MODEL 1
REMARK VINA RESULT:      -7.9      0.000      0.000
REMARK  Name = 
REMARK  6 active torsions:
REMARK  status: ('A' for Active; 'I' for Inactive)
REMARK    1  A    between atoms: O_2  and  C_3
REMARK    2  A    between atoms: C_3  and  C_4
REMARK    3  A    between atoms: N_8  and  C_9
REMARK    4  A    between atoms: C_12  and  C_13
REMARK    5  A    between atoms: C_16  and  C_17
REMARK    6  A    between atoms: C_17  and  N_18
REMARK                            x       y       z     vdW  Elec       q    Type
REMARK                         _______ _______ _______ _____ _____    ______ ____
ROOT
ATOM      9  C   UNL     1      -3.667   2.658  24.457  0.00  0.00    +0.120 C 
ATOM     10  C   UNL     1      -4.448   2.544  24.693  0.00  0.00    +0.198 C 
ATOM     11  O   UNL     1      -4.976   1.994  24.377  0.00  0.00    -0.219 OA
ATOM     12  C   UNL     1      -4.611   3.078  25.301  0.00  0.00    +0.180 C 
ATOM     15  O   UNL     1      -3.930   3.521  25.440  0.00  0.00    -0.350 OA
ATOM     16  C   UNL     1      -3.346   3.261  24.919  0.00  0.00    +0.154 C 
ENDROOT
BRANCH   9   8
ATOM      4  C   UNL     1      -2.896   1.513  23.951  0.00  0.00    +0.087 C 
ATOM      5  C   UNL     1      -2.579   1.300  23.219  0.00  0.00    +0.020 C 
ATOM      6  C   UNL     1      -2.761   1.898  22.679  0.00  0.00    +0.019 C 
ATOM      7  C   UNL     1      -3.191   2.479  23.077  0.00  0.00    +0.072 C 
ATOM      8  N   UNL     1      -3.274   2.241  23.863  0.00  0.00    -0.269 NA
BRANCH   4   3
ATOM      3  C   UNL     1      -2.844   1.074  24.648  0.00  0.00    +0.158 C 
BRANCH   3   2
ATOM      1  C   UNL     1      -2.387  -0.084  25.348  0.00  0.00    +0.174 C 
ATOM      2  O   UNL     1      -2.420   0.366  24.658  0.00  0.00    -0.350 OA
ENDBRANCH   3   2
ENDBRANCH   4   3
ENDBRANCH   9   8
BRANCH  12  13
ATOM     13  C   UNL     1      -5.329   3.155  25.700  0.00  0.00    +0.214 C 
ATOM     14  O   UNL     1      -5.671   3.900  25.794  0.00  0.00    -0.218 OA
ENDBRANCH  12  13
BRANCH  16  17
ATOM     17  C   UNL     1      -2.576   3.554  24.868  0.00  0.00    +0.146 C 
BRANCH  17  18
ATOM     18  N   UNL     1      -2.422   4.345  25.048  0.00  0.00    -0.203 NA
ATOM     19  C   UNL     1      -1.646   4.593  25.180  0.00  0.00    +0.242 C 
ATOM     20  C   UNL     1      -1.025   4.051  25.130  0.00  0.00    +0.096 C 
ATOM     21  O   UNL     1      -1.491   5.382  25.360  0.00  0.00    -0.273 OA
ENDBRANCH  17  18
ENDBRANCH  16  17
TORSDOF 6
ENDMDL
MODEL 2
REMARK VINA RESULT:      -7.8      1.425      3.095
REMARK  Name = 
REMARK  6 active torsions:
REMARK  status: ('A' for Active; 'I' for Inactive)
REMARK    1  A    between atoms: O_2  and  C_3
REMARK    2  A    between atoms: C_3  and  C_4
REMARK    3  A    between atoms: N_8  and  C_9
REMARK    4  A    between atoms: C_12  and  C_13
REMARK    5  A    between atoms: C_16  and  C_17
REMARK    6  A    between atoms: C_17  and  N_18
REMARK                            x       y       z     vdW  Elec       q    Type
REMARK                         _______ _______ _______ _____ _____    ______ ____
ROOT
ATOM      9  C   UNL     1      -3.870   1.627  24.423  0.00  0.00    +0.120 C 
ATOM     10  C   UNL     1      -4.512   2.138  24.506  0.00  0.00    +0.198 C 
ATOM     11  O   UNL     1      -4.594   2.877  24.148  0.00  0.00    -0.219 OA
ATOM     12  C   UNL     1      -5.058   1.780  25.011  0.00  0.00    +0.180 C 
ATOM     15  O   UNL     1      -4.754   1.049  25.239  0.00  0.00    -0.350 OA
ATOM     16  C   UNL     1      -4.019   0.954  24.876  0.00  0.00    +0.154 C 
ENDROOT
BRANCH   9   8
ATOM      4  C   UNL     1      -2.531   2.193  24.201  0.00  0.00    +0.087 C 
ATOM      5  C   UNL     1      -1.993   2.192  23.575  0.00  0.00    +0.020 C 
ATOM      6  C   UNL     1      -2.327   1.763  22.953  0.00  0.00    +0.019 C 
ATOM      7  C   UNL     1      -3.070   1.499  23.195  0.00  0.00    +0.072 C 
ATOM      8  N   UNL     1      -3.196   1.765  23.967  0.00  0.00    -0.269 NA
BRANCH   4   3
ATOM      3  C   UNL     1      -2.422   2.557  24.933  0.00  0.00    +0.158 C 
BRANCH   3   2
ATOM      1  C   UNL     1      -1.610   3.325  25.824  0.00  0.00    +0.174 C 
ATOM      2  O   UNL     1      -1.710   2.937  25.102  0.00  0.00    -0.350 OA
ENDBRANCH   3   2
ENDBRANCH   4   3
ENDBRANCH   9   8
BRANCH  12  13
ATOM     13  C   UNL     1      -5.782   2.099  25.246  0.00  0.00    +0.214 C 
ATOM     14  O   UNL     1      -6.096   1.907  25.984  0.00  0.00    -0.218 OA
ENDBRANCH  12  13
BRANCH  16  17
ATOM     17  C   UNL     1      -3.521   0.300  24.952  0.00  0.00    +0.146 C 
BRANCH  17  18
ATOM     18  N   UNL     1      -3.828  -0.428  25.189  0.00  0.00    -0.203 NA
ATOM     19  C   UNL     1      -3.321  -1.021  25.458  0.00  0.00    +0.242 C 
ATOM     20  C   UNL     1      -2.508  -0.886  25.489  0.00  0.00    +0.096 C 
ATOM     21  O   UNL     1      -3.628  -1.749  25.695  0.00  0.00    -0.273 OA
ENDBRANCH  17  18
ENDBRANCH  16  17
TORSDOF 6
ENDMDL
MODEL 3
REMARK VINA RESULT:      -7.6      1.346      2.855
REMARK  Name = 
REMARK  6 active torsions:
REMARK  status: ('A' for Active; 'I' for Inactive)
REMARK    1  A    between atoms: O_2  and  C_3
REMARK    2  A    between atoms: C_3  and  C_4
REMARK    3  A    between atoms: N_8  and  C_9
REMARK    4  A    between atoms: C_12  and  C_13
REMARK    5  A    between atoms: C_16  and  C_17
REMARK    6  A    between atoms: C_17  and  N_18
REMARK                            x       y       z     vdW  Elec       q    Type
REMARK                         _______ _______ _______ _____ _____    ______ ____
ROOT
ATOM      9  C   UNL     1      -2.956   1.212  24.465  0.00  0.00    +0.120 C 
ATOM     10  C   UNL     1      -3.265   0.448  24.479  0.00  0.00    +0.198 C 
ATOM     11  O   UNL     1      -3.917   0.180  24.051  0.00  0.00    -0.219 OA
ATOM     12  C   UNL     1      -2.807  -0.002  24.997  0.00  0.00    +0.180 C 
ATOM     15  O   UNL     1      -2.216   0.484  25.303  0.00  0.00    -0.350 OA
ATOM     16  C   UNL     1      -2.308   1.235  24.974  0.00  0.00    +0.154 C 
ENDROOT
BRANCH   9   8
ATOM      4  C   UNL     1      -3.867   2.342  24.231  0.00  0.00    +0.087 C 
ATOM      5  C   UNL     1      -3.969   2.894  23.626  0.00  0.00    +0.020 C 
ATOM      6  C   UNL     1      -3.410   2.736  23.040  0.00  0.00    +0.019 C 
ATOM      7  C   UNL     1      -2.963   2.087  23.283  0.00  0.00    +0.072 C 
ATOM      8  N   UNL     1      -3.245   1.844  24.019  0.00  0.00    -0.269 NA
BRANCH   4   3
ATOM      3  C   UNL     1      -4.309   2.297  24.926  0.00  0.00    +0.158 C 
BRANCH   3   2
ATOM      1  C   UNL     1      -5.371   2.784  25.749  0.00  0.00    +0.174 C 
ATOM      2  O   UNL     1      -4.899   2.854  25.076  0.00  0.00    -0.350 OA
ENDBRANCH   3   2
ENDBRANCH   4   3
ENDBRANCH   9   8
BRANCH  12  13
ATOM     13  C   UNL     1      -2.921  -0.799  25.178  0.00  0.00    +0.214 C 
ATOM     14  O   UNL     1      -2.708  -1.088  25.921  0.00  0.00    -0.218 OA
ENDBRANCH  12  13
BRANCH  16  17
ATOM     17  C   UNL     1      -1.834   1.893  25.127  0.00  0.00    +0.146 C 
BRANCH  17  18
ATOM     18  N   UNL     1      -1.076   1.793  25.438  0.00  0.00    -0.203 NA
ATOM     19  C   UNL     1      -0.670   2.442  25.748  0.00  0.00    +0.242 C 
ATOM     20  C   UNL     1      -1.022   3.188  25.747  0.00  0.00    +0.096 C 
ATOM     21  O   UNL     1       0.087   2.342  26.059  0.00  0.00    -0.273 OA
ENDBRANCH  17  18
ENDBRANCH  16  17
TORSDOF 6
ENDMDL
MODEL 4
REMARK VINA RESULT:      -7.6      1.666      3.372
REMARK  Name = 
REMARK  6 active torsions:
REMARK  status: ('A' for Active; 'I' for Inactive)
REMARK    1  A    between atoms: O_2  and  C_3
REMARK    2  A    between atoms: C_3  and  C_4
REMARK    3  A    between atoms: N_8  and  C_9
REMARK    4  A    between atoms: C_12  and  C_13
REMARK    5  A    between atoms: C_16  and  C_17
REMARK    6  A    between atoms: C_17  and  N_18
REMARK                            x       y       z     vdW  Elec       q    Type
REMARK                         _______ _______ _______ _____ _____    ______ ____
ROOT
ATOM      9  C   UNL     1      -3.087   0.706  24.449  0.00  0.00    +0.120 C 
ATOM     10  C   UNL     1      -2.777  -0.034  24.638  0.00  0.00    +0.198 C 
ATOM     11  O   UNL     1      -2.059  -0.342  24.370  0.00  0.00    -0.219 OA
ATOM     12  C   UNL     1      -3.310  -0.413  25.140  0.00  0.00    +0.180 C 
ATOM     15  O   UNL     1      -3.949   0.092  25.262  0.00  0.00    -0.350 OA
ATOM     16  C   UNL     1      -3.811   0.785  24.835  0.00  0.00    +0.154 C 
ENDROOT
BRANCH   9   8
ATOM      4  C   UNL     1      -2.163   1.820  24.188  0.00  0.00    +0.087 C 
ATOM      5  C   UNL     1      -1.966   2.272  23.526  0.00  0.00    +0.020 C 
ATOM      6  C   UNL     1      -2.416   2.001  22.890  0.00  0.00    +0.019 C 
ATOM      7  C   UNL     1      -2.891   1.382  23.158  0.00  0.00    +0.072 C 
ATOM      8  N   UNL     1      -2.734   1.270  23.960  0.00  0.00    -0.269 NA
BRANCH   4   3
ATOM      3  C   UNL     1      -1.844   1.903  24.945  0.00  0.00    +0.158 C 
BRANCH   3   2
ATOM      1  C   UNL     1      -0.967   2.575  25.850  0.00  0.00    +0.174 C 
ATOM      2  O   UNL     1      -1.296   2.500  25.097  0.00  0.00    -0.350 OA
ENDBRANCH   3   2
ENDBRANCH   4   3
ENDBRANCH   9   8
BRANCH  12  13
ATOM     13  C   UNL     1      -3.219  -1.167  25.464  0.00  0.00    +0.214 C 
ATOM     14  O   UNL     1      -3.581  -1.354  26.181  0.00  0.00    -0.218 OA
ENDBRANCH  12  13
BRANCH  16  17
ATOM     17  C   UNL     1      -4.311   1.441  24.800  0.00  0.00    +0.146 C 
BRANCH  17  18
ATOM     18  N   UNL     1      -5.124   1.347  24.905  0.00  0.00    -0.203 NA
ATOM     19  C   UNL     1      -5.595   2.002  25.080  0.00  0.00    +0.242 C 
ATOM     20  C   UNL     1      -5.252   2.750  25.150  0.00  0.00    +0.096 C 
ATOM     21  O   UNL     1      -6.407   1.909  25.186  0.00  0.00    -0.273 OA
ENDBRANCH  17  18
ENDBRANCH  16  17
TORSDOF 6
ENDMDL
MODEL 5
REMARK VINA RESULT:      -7.5      1.441      3.699
REMARK  Name = 
REMARK  6 active torsions:
REMARK  status: ('A' for Active; 'I' for Inactive)
REMARK    1  A    between atoms: O_2  and  C_3
REMARK    2  A    between atoms: C_3  and  C_4
REMARK    3  A    between atoms: N_8  and  C_9
REMARK    4  A    between atoms: C_12  and  C_13
REMARK    5  A    between atoms: C_16  and  C_17
REMARK    6  A    between atoms: C_17  and  N_18
REMARK                            x       y       z     vdW  Elec       q    Type
REMARK                         _______ _______ _______ _____ _____    ______ ____
ROOT
ATOM      9  C   UNL     1      -3.909   2.104  24.138  0.00  0.00    +0.120 C 
ATOM     10  C   UNL     1      -3.665   2.518  23.468  0.00  0.00    +0.198 C 
ATOM     11  O   UNL     1      -3.953   3.250  23.218  0.00  0.00    -0.219 OA
ATOM     12  C   UNL     1      -3.082   2.072  23.092  0.00  0.00    +0.180 C 
ATOM     15  O   UNL     1      -2.966   1.383  23.528  0.00  0.00    -0.350 OA
ATOM     16  C   UNL     1      -3.478   1.402  24.176  0.00  0.00    +0.154 C 
ENDROOT
BRANCH   9   8
ATOM      4  C   UNL     1      -4.374   2.886  25.293  0.00  0.00    +0.087 C 
ATOM      5  C   UNL     1      -5.092   2.969  25.691  0.00  0.00    +0.020 C 
ATOM      6  C   UNL     1      -5.647   2.483  25.320  0.00  0.00    +0.019 C 
ATOM      7  C   UNL     1      -5.271   2.100  24.693  0.00  0.00    +0.072 C 
ATOM      8  N   UNL     1      -4.484   2.349  24.677  0.00  0.00    -0.269 NA
BRANCH   4   3
ATOM      3  C   UNL     1      -3.669   3.272  25.480  0.00  0.00    +0.158 C 
BRANCH   3   2
ATOM      1  C   UNL     1      -2.933   4.167  26.315  0.00  0.00    +0.174 C 
ATOM      2  O   UNL     1      -3.640   3.789  26.122  0.00  0.00    -0.350 OA
ENDBRANCH   3   2
ENDBRANCH   4   3
ENDBRANCH   9   8
BRANCH  12  13
ATOM     13  C   UNL     1      -2.685   2.279  22.399  0.00  0.00    +0.214 C 
ATOM     14  O   UNL     1      -2.345   1.694  21.927  0.00  0.00    -0.218 OA
ENDBRANCH  12  13
BRANCH  16  17
ATOM     17  C   UNL     1      -3.545   0.822  24.758  0.00  0.00    +0.146 C 
BRANCH  17  18
ATOM     18  N   UNL     1      -2.924   0.295  24.891  0.00  0.00    -0.203 NA
ATOM     19  C   UNL     1      -3.066  -0.422  25.275  0.00  0.00    +0.242 C 
ATOM     20  C   UNL     1      -3.830  -0.610  25.527  0.00  0.00    +0.096 C 
ATOM     21  O   UNL     1      -2.446  -0.948  25.408  0.00  0.00    -0.273 OA
ENDBRANCH  17  18
ENDBRANCH  16  17
TORSDOF 6
ENDMDL
MODEL 6
REMARK VINA RESULT:      -7.5      0.958      2.564
REMARK  Name = 
REMARK  6 active torsions:
REMARK  status: ('A' for Active; 'I' for Inactive)
REMARK    1  A    between atoms: O_2  and  C_3
REMARK    2  A    between atoms: C_3  and  C_4
REMARK    3  A    between atoms: N_8  and  C_9
REMARK    4  A    between atoms: C_12  and  C_13
REMARK    5  A    between atoms: C_16  and  C_17
REMARK    6  A    between atoms: C_17  and  N_18
REMARK                            x       y       z     vdW  Elec       q    Type
REMARK                         _______ _______ _______ _____ _____    ______ ____
ROOT
ATOM      9  C   UNL     1      -2.492   2.894  24.456  0.00  0.00    +0.120 C 
ATOM     10  C   UNL     1      -1.784   3.311  24.524  0.00  0.00    +0.198 C 
ATOM     11  O   UNL     1      -1.080   3.141  24.129  0.00  0.00    -0.219 OA
ATOM     12  C   UNL     1      -1.903   3.929  25.057  0.00  0.00    +0.180 C 
ATOM     15  O   UNL     1      -2.684   3.894  25.318  0.00  0.00    -0.350 OA
ATOM     16  C   UNL     1      -3.048   3.254  24.946  0.00  0.00    +0.154 C 
ENDROOT
BRANCH   9   8
ATOM      4  C   UNL     1      -2.433   1.452  24.173  0.00  0.00    +0.087 C 
ATOM      5  C   UNL     1      -2.656   0.972  23.540  0.00  0.00    +0.020 C 
ATOM      6  C   UNL     1      -2.981   1.456  22.955  0.00  0.00    +0.019 C 
ATOM      7  C   UNL     1      -2.959   2.234  23.227  0.00  0.00    +0.072 C 
ATOM      8  N   UNL     1      -2.620   2.232  23.980  0.00  0.00    -0.269 NA
BRANCH   4   3
ATOM      3  C   UNL     1      -2.084   1.197  24.875  0.00  0.00    +0.158 C 
BRANCH   3   2
ATOM      1  C   UNL     1      -1.513   0.146  25.656  0.00  0.00    +0.174 C 
ATOM      2  O   UNL     1      -1.944   0.393  24.998  0.00  0.00    -0.350 OA
ENDBRANCH   3   2
ENDBRANCH   4   3
ENDBRANCH   9   8
BRANCH  12  13
ATOM     13  C   UNL     1      -1.339   4.486  25.289  0.00  0.00    +0.214 C 
ATOM     14  O   UNL     1      -1.531   5.288  25.296  0.00  0.00    -0.218 OA
ENDBRANCH  12  13
BRANCH  16  17
ATOM     17  C   UNL     1      -3.832   3.016  25.047  0.00  0.00    +0.146 C 
BRANCH  17  18
ATOM     18  N   UNL     1      -4.393   3.550  25.332  0.00  0.00    -0.203 NA
ATOM     19  C   UNL     1      -5.137   3.280  25.567  0.00  0.00    +0.242 C 
ATOM     20  C   UNL     1      -5.319   2.476  25.517  0.00  0.00    +0.096 C 
ATOM     21  O   UNL     1      -5.697   3.813  25.852  0.00  0.00    -0.273 OA
ENDBRANCH  17  18
ENDBRANCH  16  17
TORSDOF 6
ENDMDL
MODEL 7
REMARK VINA RESULT:      -7.4      1.550      3.712
REMARK  Name = 
REMARK  6 active torsions:
REMARK  status: ('A' for Active; 'I' for Inactive)
REMARK    1  A    between atoms: O_2  and  C_3
REMARK    2  A    between atoms: C_3  and  C_4
REMARK    3  A    between atoms: N_8  and  C_9
REMARK    4  A    between atoms: C_12  and  C_13
REMARK    5  A    between atoms: C_16  and  C_17
REMARK    6  A    between atoms: C_17  and  N_18
REMARK                            x       y       z     vdW  Elec       q    Type
REMARK                         _______ _______ _______ _____ _____    ______ ____
ROOT
ATOM      9  C   UNL     1      -1.849   2.117  24.622  0.00  0.00    +0.120 C 
ATOM     10  C   UNL     1      -1.284   2.668  24.863  0.00  0.00    +0.198 C 
ATOM     11  O   UNL     1      -1.191   3.430  24.563  0.00  0.00    -0.219 OA
ATOM     12  C   UNL     1      -0.830   2.322  25.459  0.00  0.00    +0.180 C 
ATOM     15  O   UNL     1      -1.113   1.558  25.585  0.00  0.00    -0.350 OA
ATOM     16  C   UNL     1      -1.743   1.431  25.067  0.00  0.00    +0.154 C 
ENDROOT
BRANCH   9   8
ATOM      4  C   UNL     1      -3.155   2.587  24.140  0.00  0.00    +0.087 C 
ATOM      5  C   UNL     1      -3.544   2.587  23.412  0.00  0.00    +0.020 C 
ATOM      6  C   UNL     1      -3.047   2.230  22.858  0.00  0.00    +0.019 C 
ATOM      7  C   UNL     1      -2.352   2.011  23.244  0.00  0.00    +0.072 C 
ATOM      8  N   UNL     1      -2.419   2.232  24.036  0.00  0.00    -0.269 NA
BRANCH   4   3
ATOM      3  C   UNL     1      -3.452   2.891  24.848  0.00  0.00    +0.158 C 
BRANCH   3   2
ATOM      1  C   UNL     1      -4.521   3.485  25.587  0.00  0.00    +0.174 C 
ATOM      2  O   UNL     1      -4.214   3.207  24.873  0.00  0.00    -0.350 OA
ENDBRANCH   3   2
ENDBRANCH   4   3
ENDBRANCH   9   8
BRANCH  12  13
ATOM     13  C   UNL     1      -0.202   2.678  25.859  0.00  0.00    +0.214 C 
ATOM     14  O   UNL     1       0.018   2.407  26.606  0.00  0.00    -0.218 OA
ENDBRANCH  12  13
BRANCH  16  17
ATOM     17  C   UNL     1      -2.189   0.739  25.007  0.00  0.00    +0.146 C 
BRANCH  17  18
ATOM     18  N   UNL     1      -1.865   0.017  25.239  0.00  0.00    -0.203 NA
ATOM     19  C   UNL     1      -2.357  -0.633  25.366  0.00  0.00    +0.242 C 
ATOM     20  C   UNL     1      -3.173  -0.561  25.261  0.00  0.00    +0.096 C 
ATOM     21  O   UNL     1      -2.034  -1.355  25.598  0.00  0.00    -0.273 OA
ENDBRANCH  17  18
ENDBRANCH  16  17
TORSDOF 6
ENDMDL
