MODEL 1
REMARK VINA RESULT:      -9.4      0.000      0.000
REMARK  Name = 
REMARK  6 active torsions:
REMARK  status: ('A' for Active; 'I' for Inactive)
REMARK    1  A    between atoms: C_2  and  C_3
REMARK    2  A    between atoms: C_10  and  C_11
REMARK    3  A    between atoms: C_11  and  N_12
REMARK    4  A    between atoms: N_12  and  C_13
REMARK    5  A    between atoms: C_13  and  C_14
REMARK    6  A    between atoms: C_17  and  C_18
REMARK                            x       y       z     vdW  Elec       q    Type
REMARK                         _______ _______ _______ _____ _____    ______ ____
ROOT
ATOM      3  C   UNL     1      -3.879  -1.275  24.491  0.00  0.00    +0.016 C 
ATOM      4  C   UNL     1      -4.178  -0.876  23.893  0.00  0.00    +0.072 C 
ATOM      5  N   UNL     1      -3.894  -0.556  24.599  0.00  0.00    -0.273 NA
ATOM      6  C   UNL     1      -3.562  -1.356  25.190  0.00  0.00    +0.072 C 
ATOM      7  C   UNL     1      -3.297  -1.582  25.743  0.00  0.00    +0.017 C 
ATOM      8  C   UNL     1      -3.602  -0.953  25.180  0.00  0.00    +0.004 C 
ATOM      9  C   UNL     1      -3.549  -0.124  25.464  0.00  0.00    +0.018 C 
ATOM     10  C   UNL     1      -3.836   0.304  24.900  0.00  0.00    +0.075 C 
ENDROOT
BRANCH   3   2
ATOM      1  C   UNL     1      -4.135  -2.462  23.738  0.00  0.00    +0.000 C 
ATOM      2  C   UNL     1      -3.840  -2.096  24.415  0.00  0.00    +0.001 C 
ENDBRANCH   3   2
BRANCH  10  11
ATOM     11  C   UNL     1      -3.998   1.084  24.689  0.00  0.00    +0.105 C 
BRANCH  11  12
ATOM     12  N   UNL     1      -3.549   1.699  25.006  0.00  0.00    -0.209 NA
BRANCH  12  13
ATOM     13  C   UNL     1      -3.715   2.480  24.801  0.00  0.00    +0.153 C 
BRANCH  13  14
ATOM     14  C   UNL     1      -3.246   3.092  25.093  0.00  0.00    +0.140 A 
ATOM     15  C   UNL     1      -3.434   3.588  25.725  0.00  0.00    +0.037 A 
ATOM     16  C   UNL     1      -2.811   4.119  25.827  0.00  0.00    +0.038 A 
ATOM     17  C   UNL     1      -2.237   3.951  25.258  0.00  0.00    +0.156 A 
ATOM     20  O   UNL     1      -2.507   3.317  24.804  0.00  0.00    -0.458 OA
BRANCH  17  18
ATOM     18  C   UNL     1      -1.522   4.349  25.160  0.00  0.00    +0.246 C 
ATOM     19  O   UNL     1      -1.483   5.164  25.279  0.00  0.00    -0.212 OA
ENDBRANCH  17  18
ENDBRANCH  13  14
ENDBRANCH  12  13
ENDBRANCH  11  12
ENDBRANCH  10  11
TORSDOF 6
ENDMDL
MODEL 2
REMARK VINA RESULT:      -8.7      1.862      5.039
REMARK  Name = 
REMARK  6 active torsions:
REMARK  status: ('A' for Active; 'I' for Inactive)
REMARK    1  A    between atoms: C_2  and  C_3
REMARK    2  A    between atoms: C_10  and  C_11
REMARK    3  A    between atoms: C_11  and  N_12
REMARK    4  A    between atoms: N_12  and  C_13
REMARK    5  A    between atoms: C_13  and  C_14
REMARK    6  A    between atoms: C_17  and  C_18
REMARK                            x       y       z     vdW  Elec       q    Type
REMARK                         _______ _______ _______ _____ _____    ______ ____
ROOT
ATOM      3  C   UNL     1      -2.222   3.747  25.159  0.00  0.00    +0.016 C 
ATOM      4  C   UNL     1      -1.983   3.307  24.563  0.00  0.00    +0.072 C 
ATOM      5  N   UNL     1      -2.701   3.237  24.964  0.00  0.00    -0.273 NA
ATOM      6  C   UNL     1      -2.714   3.975  25.708  0.00  0.00    +0.072 C 
ATOM      7  C   UNL     1      -3.014   4.276  26.204  0.00  0.00    +0.017 C 
ATOM      8  C   UNL     1      -2.929   3.672  25.547  0.00  0.00    +0.004 C 
ATOM      9  C   UNL     1      -3.603   3.121  25.439  0.00  0.00    +0.018 C 
ATOM     10  C   UNL     1      -3.406   2.667  24.857  0.00  0.00    +0.075 C 
ENDROOT
BRANCH   3   2
ATOM      1  C   UNL     1      -0.992   4.464  25.032  0.00  0.00    +0.000 C 
ATOM      2  C   UNL     1      -1.711   4.342  25.417  0.00  0.00    +0.001 C 
ENDBRANCH   3   2
BRANCH  10  11
ATOM     11  C   UNL     1      -3.674   2.035  24.402  0.00  0.00    +0.105 C 
BRANCH  11  12
ATOM     12  N   UNL     1      -3.741   1.284  24.738  0.00  0.00    -0.209 NA
BRANCH  12  13
ATOM     13  C   UNL     1      -4.150   0.688  24.340  0.00  0.00    +0.153 C 
BRANCH  13  14
ATOM     14  C   UNL     1      -4.016  -0.103  24.531  0.00  0.00    +0.140 A 
ATOM     15  C   UNL     1      -3.890  -0.405  25.288  0.00  0.00    +0.037 A 
ATOM     16  C   UNL     1      -3.781  -1.220  25.222  0.00  0.00    +0.038 A 
ATOM     17  C   UNL     1      -3.839  -1.422  24.424  0.00  0.00    +0.156 A 
ATOM     20  O   UNL     1      -3.984  -0.731  23.997  0.00  0.00    -0.458 OA
BRANCH  17  18
ATOM     18  C   UNL     1      -3.764  -2.181  24.110  0.00  0.00    +0.246 C 
ATOM     19  O   UNL     1      -3.739  -2.835  24.612  0.00  0.00    -0.212 OA
ENDBRANCH  17  18
ENDBRANCH  13  14
ENDBRANCH  12  13
ENDBRANCH  11  12
ENDBRANCH  10  11
TORSDOF 6
ENDMDL
MODEL 3
REMARK VINA RESULT:      -8.5      2.198      4.786
REMARK  Name = 
REMARK  6 active torsions:
REMARK  status: ('A' for Active; 'I' for Inactive)
REMARK    1  A    between atoms: C_2  and  C_3
REMARK    2  A    between atoms: C_10  and  C_11
REMARK    3  A    between atoms: C_11  and  N_12
REMARK    4  A    between atoms: N_12  and  C_13
REMARK    5  A    between atoms: C_13  and  C_14
REMARK    6  A    between atoms: C_17  and  C_18
REMARK                            x       y       z     vdW  Elec       q    Type
REMARK                         _______ _______ _______ _____ _____    ______ ____
ROOT
ATOM      3  C   UNL     1      -4.764   2.711  25.015  0.00  0.00    +0.016 C 
ATOM      4  C   UNL     1      -5.285   2.229  25.334  0.00  0.00    +0.072 C 
ATOM      5  N   UNL     1      -4.662   2.014  24.838  0.00  0.00    -0.273 NA
ATOM      6  C   UNL     1      -4.151   2.893  24.584  0.00  0.00    +0.072 C 
ATOM      7  C   UNL     1      -3.667   3.198  24.267  0.00  0.00    +0.017 C 
ATOM      8  C   UNL     1      -4.155   2.492  24.529  0.00  0.00    +0.004 C 
ATOM      9  C   UNL     1      -3.898   1.710  24.224  0.00  0.00    +0.018 C 
ATOM     10  C   UNL     1      -4.388   1.204  24.517  0.00  0.00    +0.075 C 
ENDROOT
BRANCH   3   2
ATOM      1  C   UNL     1      -5.471   3.782  25.645  0.00  0.00    +0.000 C 
ATOM      2  C   UNL     1      -4.839   3.516  25.187  0.00  0.00    +0.001 C 
ENDBRANCH   3   2
BRANCH  10  11
ATOM     11  C   UNL     1      -4.566   0.399  24.534  0.00  0.00    +0.105 C 
BRANCH  11  12
ATOM     12  N   UNL     1      -3.960  -0.158  24.487  0.00  0.00    -0.209 NA
BRANCH  12  13
ATOM     13  C   UNL     1      -4.136  -0.949  24.333  0.00  0.00    +0.153 C 
BRANCH  13  14
ATOM     14  C   UNL     1      -3.566  -1.531  24.459  0.00  0.00    +0.140 A 
ATOM     15  C   UNL     1      -3.704  -2.292  24.745  0.00  0.00    +0.037 A 
ATOM     16  C   UNL     1      -2.981  -2.686  24.784  0.00  0.00    +0.038 A 
ATOM     17  C   UNL     1      -2.394  -2.169  24.522  0.00  0.00    +0.156 A 
ATOM     20  O   UNL     1      -2.756  -1.454  24.321  0.00  0.00    -0.458 OA
BRANCH  17  18
ATOM     18  C   UNL     1      -1.589  -2.336  24.470  0.00  0.00    +0.246 C 
ATOM     19  O   UNL     1      -1.076  -2.084  25.065  0.00  0.00    -0.212 OA
ENDBRANCH  17  18
ENDBRANCH  13  14
ENDBRANCH  12  13
ENDBRANCH  11  12
ENDBRANCH  10  11
TORSDOF 6
ENDMDL
