MODEL 1
REMARK VINA RESULT:     -11.5      0.000      0.000
REMARK  Name = 
REMARK  5 active torsions:
REMARK  status: ('A' for Active; 'I' for Inactive)
REMARK    1  A    between atoms: C_2  and  CA_3
REMARK    2  A    between atoms: C_9  and  C_10
REMARK    3  A    between atoms: C_13  and  N_14
REMARK    4  A    between atoms: C_15  and  C_17
REMARK    5  A    between atoms: C_17  and  C_18
REMARK                            x       y       z     vdW  Elec       q    Type
REMARK                         _______ _______ _______ _____ _____    ______ ____
ROOT
ATOM     10  C   UNL     1      -2.593   2.664  24.848  0.00  0.00    +0.006 A 
ATOM     11  C   UNL     1      -2.438   2.018  25.337  0.00  0.00    -0.001 A 
ATOM     12  C   UNL     1      -2.937   1.360  25.321  0.00  0.00    +0.016 A 
ATOM     13  C   UNL     1      -3.589   1.349  24.816  0.00  0.00    +0.073 A 
ATOM     24  C   UNL     1      -3.743   1.996  24.327  0.00  0.00    +0.016 A 
ATOM     25  C   UNL     1      -3.244   2.653  24.343  0.00  0.00    -0.001 A 
ENDROOT
BRANCH  10   9
ATOM      3  CA  UNL     1      -2.266   3.957  25.361  0.00  0.00    +0.159 C 
ATOM      4  N   UNL     1      -1.767   4.614  25.377  0.00  0.00    -0.199 NA
ATOM      5  C   UNL     1      -1.097   4.636  24.896  0.00  0.00    +0.272 C 
ATOM      6  O   UNL     1      -0.599   5.293  24.913  0.00  0.00    -0.271 OA
ATOM      7  C   UNL     1      -0.926   4.000  24.400  0.00  0.00    +0.229 C 
ATOM      8  O   UNL     1      -1.424   3.343  24.383  0.00  0.00    -0.341 OA
ATOM      9  C   UNL     1      -2.094   3.321  24.864  0.00  0.00    +0.160 C 
BRANCH   3   2
ATOM      1  O   UNL     1      -3.069   4.536  26.390  0.00  0.00    -0.218 OA
ATOM      2  C   UNL     1      -2.936   3.935  25.841  0.00  0.00    +0.206 C 
ENDBRANCH   3   2
ENDBRANCH  10   9
BRANCH  13  14
ATOM     14  N   UNL     1      -4.087   0.692  24.800  0.00  0.00    -0.179 NA
ATOM     15  C   UNL     1      -3.900   0.043  24.326  0.00  0.00    +0.250 C 
ATOM     16  O   UNL     1      -3.214   0.051  23.869  0.00  0.00    -0.273 OA
BRANCH  15  17
ATOM     17  C   UNL     1      -4.399  -0.613  24.311  0.00  0.00    +0.113 C 
BRANCH  17  18
ATOM     18  C   UNL     1      -4.087  -1.372  24.409  0.00  0.00    -0.013 A 
ATOM     19  C   UNL     1      -4.124  -1.916  23.790  0.00  0.00    -0.004 A 
ATOM     20  C   UNL     1      -3.813  -2.673  23.888  0.00  0.00    -0.000 A 
ATOM     21  C   UNL     1      -3.463  -2.887  24.605  0.00  0.00    -0.000 A 
ATOM     22  C   UNL     1      -3.426  -2.341  25.223  0.00  0.00    -0.000 A 
ATOM     23  C   UNL     1      -3.738  -1.584  25.125  0.00  0.00    -0.004 A 
ENDBRANCH  17  18
ENDBRANCH  15  17
ENDBRANCH  13  14
TORSDOF 5
ENDMDL
MODEL 2
REMARK VINA RESULT:     -10.8      1.518      5.439
REMARK  Name = 
REMARK  5 active torsions:
REMARK  status: ('A' for Active; 'I' for Inactive)
REMARK    1  A    between atoms: C_2  and  CA_3
REMARK    2  A    between atoms: C_9  and  C_10
REMARK    3  A    between atoms: C_13  and  N_14
REMARK    4  A    between atoms: C_15  and  C_17
REMARK    5  A    between atoms: C_17  and  C_18
REMARK                            x       y       z     vdW  Elec       q    Type
REMARK                         _______ _______ _______ _____ _____    ______ ____
ROOT
ATOM     10  C   UNL     1      -3.928  -0.279  24.363  0.00  0.00    +0.006 A 
ATOM     11  C   UNL     1      -4.405   0.079  24.933  0.00  0.00    -0.001 A 
ATOM     12  C   UNL     1      -4.469   0.902  24.959  0.00  0.00    +0.016 A 
ATOM     13  C   UNL     1      -4.055   1.365  24.417  0.00  0.00    +0.073 A 
ATOM     24  C   UNL     1      -3.577   1.006  23.847  0.00  0.00    +0.016 A 
ATOM     25  C   UNL     1      -3.514   0.184  23.821  0.00  0.00    -0.001 A 
ENDROOT
BRANCH  10   9
ATOM      3  CA  UNL     1      -3.278  -1.484  24.773  0.00  0.00    +0.159 C 
ATOM      4  N   UNL     1      -3.214  -2.306  24.746  0.00  0.00    -0.199 NA
ATOM      5  C   UNL     1      -3.738  -2.746  24.284  0.00  0.00    +0.272 C 
ATOM      6  O   UNL     1      -3.674  -3.567  24.258  0.00  0.00    -0.271 OA
ATOM      7  C   UNL     1      -4.324  -2.363  23.848  0.00  0.00    +0.229 C 
ATOM      8  O   UNL     1      -4.388  -1.541  23.875  0.00  0.00    -0.341 OA
ATOM      9  C   UNL     1      -3.864  -1.102  24.337  0.00  0.00    +0.160 C 
BRANCH   3   2
ATOM      1  O   UNL     1      -2.126  -1.419  25.615  0.00  0.00    -0.218 OA
ATOM      2  C   UNL     1      -2.755  -1.045  25.235  0.00  0.00    +0.206 C 
ENDBRANCH   3   2
ENDBRANCH  10   9
BRANCH  13  14
ATOM     14  N   UNL     1      -4.118   2.187  24.444  0.00  0.00    -0.179 NA
ATOM     15  C   UNL     1      -3.612   2.625  24.926  0.00  0.00    +0.250 C 
ATOM     16  O   UNL     1      -3.044   2.241  25.383  0.00  0.00    -0.273 OA
BRANCH  15  17
ATOM     17  C   UNL     1      -3.676   3.446  24.952  0.00  0.00    +0.113 C 
BRANCH  17  18
ATOM     18  C   UNL     1      -3.009   3.907  25.110  0.00  0.00    -0.013 A 
ATOM     19  C   UNL     1      -2.517   4.146  24.493  0.00  0.00    -0.004 A 
ATOM     20  C   UNL     1      -1.851   4.606  24.651  0.00  0.00    -0.000 A 
ATOM     21  C   UNL     1      -1.677   4.828  25.427  0.00  0.00    -0.000 A 
ATOM     22  C   UNL     1      -2.170   4.589  26.044  0.00  0.00    -0.000 A 
ATOM     23  C   UNL     1      -2.836   4.129  25.885  0.00  0.00    -0.004 A 
ENDBRANCH  17  18
ENDBRANCH  15  17
ENDBRANCH  13  14
TORSDOF 5
ENDMDL
MODEL 3
REMARK VINA RESULT:     -10.5      1.412      1.674
REMARK  Name = 
REMARK  5 active torsions:
REMARK  status: ('A' for Active; 'I' for Inactive)
REMARK    1  A    between atoms: C_2  and  CA_3
REMARK    2  A    between atoms: C_9  and  C_10
REMARK    3  A    between atoms: C_13  and  N_14
REMARK    4  A    between atoms: C_15  and  C_17
REMARK    5  A    between atoms: C_17  and  C_18
REMARK                            x       y       z     vdW  Elec       q    Type
REMARK                         _______ _______ _______ _____ _____    ______ ____
ROOT
ATOM     10  C   UNL     1      -1.201   2.529  25.053  0.00  0.00    +0.006 A 
ATOM     11  C   UNL     1      -0.889   2.126  25.701  0.00  0.00    -0.001 A 
ATOM     12  C   UNL     1      -0.842   1.301  25.690  0.00  0.00    +0.016 A 
ATOM     13  C   UNL     1      -1.108   0.882  25.032  0.00  0.00    +0.073 A 
ATOM     24  C   UNL     1      -1.420   1.287  24.383  0.00  0.00    +0.016 A 
ATOM     25  C   UNL     1      -1.466   2.110  24.395  0.00  0.00    -0.001 A 
ENDROOT
BRANCH  10   9
ATOM      3  CA  UNL     1      -1.937   3.724  25.324  0.00  0.00    +0.159 C 
ATOM      4  N   UNL     1      -1.983   4.548  25.335  0.00  0.00    -0.199 NA
ATOM      5  C   UNL     1      -1.341   5.001  25.086  0.00  0.00    +0.272 C 
ATOM      6  O   UNL     1      -1.387   5.824  25.097  0.00  0.00    -0.271 OA
ATOM      7  C   UNL     1      -0.651   4.629  24.825  0.00  0.00    +0.229 C 
ATOM      8  O   UNL     1      -0.605   3.806  24.814  0.00  0.00    -0.341 OA
ATOM      9  C   UNL     1      -1.247   3.354  25.064  0.00  0.00    +0.160 C 
BRANCH   3   2
ATOM      1  O   UNL     1      -3.281   3.640  25.801  0.00  0.00    -0.218 OA
ATOM      2  C   UNL     1      -2.579   3.271  25.574  0.00  0.00    +0.206 C 
ENDBRANCH   3   2
ENDBRANCH  10   9
BRANCH  13  14
ATOM     14  N   UNL     1      -1.061   0.059  25.020  0.00  0.00    -0.179 NA
ATOM     15  C   UNL     1      -1.657  -0.393  25.369  0.00  0.00    +0.250 C 
ATOM     16  O   UNL     1      -2.299  -0.022  25.729  0.00  0.00    -0.273 OA
BRANCH  15  17
ATOM     17  C   UNL     1      -1.610  -1.216  25.357  0.00  0.00    +0.113 C 
BRANCH  17  18
ATOM     18  C   UNL     1      -2.256  -1.663  25.102  0.00  0.00    -0.013 A 
ATOM     19  C   UNL     1      -2.202  -2.108  24.409  0.00  0.00    -0.004 A 
ATOM     20  C   UNL     1      -2.847  -2.554  24.154  0.00  0.00    -0.000 A 
ATOM     21  C   UNL     1      -3.547  -2.555  24.592  0.00  0.00    -0.000 A 
ATOM     22  C   UNL     1      -3.601  -2.110  25.284  0.00  0.00    -0.000 A 
ATOM     23  C   UNL     1      -2.955  -1.664  25.539  0.00  0.00    -0.004 A 
ENDBRANCH  17  18
ENDBRANCH  15  17
ENDBRANCH  13  14
TORSDOF 5
ENDMDL
MODEL 4
REMARK VINA RESULT:     -10.5      1.792      5.563
REMARK  Name = 
REMARK  5 active torsions:
REMARK  status: ('A' for Active; 'I' for Inactive)
REMARK    1  A    between atoms: C_2  and  CA_3
REMARK    2  A    between atoms: C_9  and  C_10
REMARK    3  A    between atoms: C_13  and  N_14
REMARK    4  A    between atoms: C_15  and  C_17
REMARK    5  A    between atoms: C_17  and  C_18
REMARK                            x       y       z     vdW  Elec       q    Type
REMARK                         _______ _______ _______ _____ _____    ______ ____
ROOT
ATOM     10  C   UNL     1      -1.935  -0.451  24.890  0.00  0.00    +0.006 A 
ATOM     11  C   UNL     1      -1.551  -0.315  25.607  0.00  0.00    -0.001 A 
ATOM     12  C   UNL     1      -1.116   0.378  25.716  0.00  0.00    +0.016 A 
ATOM     13  C   UNL     1      -1.066   0.934  25.109  0.00  0.00    +0.073 A 
ATOM     24  C   UNL     1      -1.451   0.797  24.391  0.00  0.00    +0.016 A 
ATOM     25  C   UNL     1      -1.885   0.104  24.283  0.00  0.00    -0.001 A 
ENDROOT
BRANCH  10   9
ATOM      3  CA  UNL     1      -3.176  -1.157  24.957  0.00  0.00    +0.159 C 
ATOM      4  N   UNL     1      -3.611  -1.850  24.848  0.00  0.00    -0.199 NA
ATOM      5  C   UNL     1      -3.240  -2.530  24.563  0.00  0.00    +0.272 C 
ATOM      6  O   UNL     1      -3.675  -3.222  24.454  0.00  0.00    -0.271 OA
ATOM      7  C   UNL     1      -2.434  -2.516  24.387  0.00  0.00    +0.229 C 
ATOM      8  O   UNL     1      -1.999  -1.824  24.496  0.00  0.00    -0.341 OA
ATOM      9  C   UNL     1      -2.370  -1.144  24.781  0.00  0.00    +0.160 C 
BRANCH   3   2
ATOM      1  O   UNL     1      -4.356  -0.485  25.401  0.00  0.00    -0.218 OA
ATOM      2  C   UNL     1      -3.547  -0.478  25.241  0.00  0.00    +0.206 C 
ENDBRANCH   3   2
ENDBRANCH  10   9
BRANCH  13  14
ATOM     14  N   UNL     1      -0.631   1.626  25.217  0.00  0.00    -0.179 NA
ATOM     15  C   UNL     1      -0.991   2.293  25.545  0.00  0.00    +0.250 C 
ATOM     16  O   UNL     1      -1.786   2.266  25.763  0.00  0.00    -0.273 OA
BRANCH  15  17
ATOM     17  C   UNL     1      -0.556   2.984  25.653  0.00  0.00    +0.113 C 
BRANCH  17  18
ATOM     18  C   UNL     1      -0.877   3.713  25.432  0.00  0.00    -0.013 A 
ATOM     19  C   UNL     1      -0.485   4.186  24.881  0.00  0.00    -0.004 A 
ATOM     20  C   UNL     1      -0.806   4.913  24.660  0.00  0.00    -0.000 A 
ATOM     21  C   UNL     1      -1.519   5.167  24.990  0.00  0.00    -0.000 A 
ATOM     22  C   UNL     1      -1.910   4.694  25.541  0.00  0.00    -0.000 A 
ATOM     23  C   UNL     1      -1.589   3.966  25.761  0.00  0.00    -0.004 A 
ENDBRANCH  17  18
ENDBRANCH  15  17
ENDBRANCH  13  14
TORSDOF 5
ENDMDL
MODEL 5
REMARK VINA RESULT:      -7.8     17.469     19.136
REMARK  Name = 
REMARK  5 active torsions:
REMARK  status: ('A' for Active; 'I' for Inactive)
REMARK    1  A    between atoms: C_2  and  CA_3
REMARK    2  A    between atoms: C_9  and  C_10
REMARK    3  A    between atoms: C_13  and  N_14
REMARK    4  A    between atoms: C_15  and  C_17
REMARK    5  A    between atoms: C_17  and  C_18
REMARK                            x       y       z     vdW  Elec       q    Type
REMARK                         _______ _______ _______ _____ _____    ______ ____
ROOT
ATOM     10  C   UNL     1      12.340   7.993  18.220  0.00  0.00    +0.006 A 
ATOM     11  C   UNL     1      12.619   7.217  18.228  0.00  0.00    -0.001 A 
ATOM     12  C   UNL     1      13.055   6.942  18.873  0.00  0.00    +0.016 A 
ATOM     13  C   UNL     1      13.211   7.442  19.508  0.00  0.00    +0.073 A 
ATOM     24  C   UNL     1      12.932   8.219  19.500  0.00  0.00    +0.016 A 
ATOM     25  C   UNL     1      12.497   8.494  18.856  0.00  0.00    -0.001 A 
ENDROOT
BRANCH  10   9
ATOM      3  CA  UNL     1      12.289   8.631  16.943  0.00  0.00    +0.159 C 
ATOM      4  N   UNL     1      11.853   8.907  16.298  0.00  0.00    -0.199 NA
ATOM      5  C   UNL     1      11.033   8.819  16.287  0.00  0.00    +0.272 C 
ATOM      6  O   UNL     1      10.598   9.094  15.642  0.00  0.00    -0.271 OA
ATOM      7  C   UNL     1      10.649   8.456  16.920  0.00  0.00    +0.229 C 
ATOM      8  O   UNL     1      11.084   8.181  17.564  0.00  0.00    -0.341 OA
ATOM      9  C   UNL     1      11.904   8.269  17.576  0.00  0.00    +0.160 C 
BRANCH   3   2
ATOM      1  O   UNL     1      13.498   9.050  16.306  0.00  0.00    -0.218 OA
ATOM      2  C   UNL     1      13.109   8.719  16.954  0.00  0.00    +0.206 C 
ENDBRANCH   3   2
ENDBRANCH  10   9
BRANCH  13  14
ATOM     14  N   UNL     1      13.647   7.168  20.153  0.00  0.00    -0.179 NA
ATOM     15  C   UNL     1      14.449   7.348  20.216  0.00  0.00    +0.250 C 
ATOM     16  O   UNL     1      14.817   7.802  19.634  0.00  0.00    -0.273 OA
BRANCH  15  17
ATOM     17  C   UNL     1      14.884   7.073  20.860  0.00  0.00    +0.113 C 
BRANCH  17  18
ATOM     18  C   UNL     1      15.709   7.079  20.834  0.00  0.00    -0.013 A 
ATOM     19  C   UNL     1      16.128   7.704  21.173  0.00  0.00    -0.004 A 
ATOM     20  C   UNL     1      16.952   7.710  21.147  0.00  0.00    -0.000 A 
ATOM     21  C   UNL     1      17.359   7.091  20.782  0.00  0.00    -0.000 A 
ATOM     22  C   UNL     1      16.939   6.466  20.444  0.00  0.00    -0.000 A 
ATOM     23  C   UNL     1      16.115   6.460  20.470  0.00  0.00    -0.004 A 
ENDBRANCH  17  18
ENDBRANCH  15  17
ENDBRANCH  13  14
TORSDOF 5
ENDMDL
MODEL 6
REMARK VINA RESULT:      -7.6     15.616     18.469
REMARK  Name = 
REMARK  5 active torsions:
REMARK  status: ('A' for Active; 'I' for Inactive)
REMARK    1  A    between atoms: C_2  and  CA_3
REMARK    2  A    between atoms: C_9  and  C_10
REMARK    3  A    between atoms: C_13  and  N_14
REMARK    4  A    between atoms: C_15  and  C_17
REMARK    5  A    between atoms: C_17  and  C_18
REMARK                            x       y       z     vdW  Elec       q    Type
REMARK                         _______ _______ _______ _____ _____    ______ ____
ROOT
ATOM     10  C   UNL     1      12.550   7.878  21.294  0.00  0.00    +0.006 A 
ATOM     11  C   UNL     1      13.212   7.877  21.786  0.00  0.00    -0.001 A 
ATOM     12  C   UNL     1      13.968   7.947  21.459  0.00  0.00    +0.016 A 
ATOM     13  C   UNL     1      14.059   8.018  20.643  0.00  0.00    +0.073 A 
ATOM     24  C   UNL     1      13.395   8.019  20.152  0.00  0.00    +0.016 A 
ATOM     25  C   UNL     1      12.641   7.949  20.479  0.00  0.00    -0.001 A 
ENDROOT
BRANCH  10   9
ATOM      3  CA  UNL     1      11.397   7.087  21.587  0.00  0.00    +0.159 C 
ATOM      4  N   UNL     1      10.642   7.017  21.914  0.00  0.00    -0.199 NA
ATOM      5  C   UNL     1      10.286   7.668  22.274  0.00  0.00    +0.272 C 
ATOM      6  O   UNL     1       9.532   7.598  22.600  0.00  0.00    -0.271 OA
ATOM      7  C   UNL     1      10.685   8.390  22.307  0.00  0.00    +0.229 C 
ATOM      8  O   UNL     1      11.439   8.460  21.981  0.00  0.00    -0.341 OA
ATOM      9  C   UNL     1      11.795   7.808  21.621  0.00  0.00    +0.160 C 
BRANCH   3   2
ATOM      1  O   UNL     1      11.348   5.718  21.181  0.00  0.00    -0.218 OA
ATOM      2  C   UNL     1      11.752   6.436  21.228  0.00  0.00    +0.206 C 
ENDBRANCH   3   2
ENDBRANCH  10   9
BRANCH  13  14
ATOM     14  N   UNL     1      14.813   8.088  20.316  0.00  0.00    -0.179 NA
ATOM     15  C   UNL     1      15.378   7.503  20.454  0.00  0.00    +0.250 C 
ATOM     16  O   UNL     1      15.190   6.848  20.917  0.00  0.00    -0.273 OA
BRANCH  15  17
ATOM     17  C   UNL     1      16.132   7.574  20.127  0.00  0.00    +0.113 C 
BRANCH  17  18
ATOM     18  C   UNL     1      16.495   6.917  19.780  0.00  0.00    -0.013 A 
ATOM     19  C   UNL     1      16.308   6.705  19.005  0.00  0.00    -0.004 A 
ATOM     20  C   UNL     1      16.671   6.049  18.659  0.00  0.00    -0.000 A 
ATOM     21  C   UNL     1      17.220   5.606  19.089  0.00  0.00    -0.000 A 
ATOM     22  C   UNL     1      17.405   5.820  19.863  0.00  0.00    -0.000 A 
ATOM     23  C   UNL     1      17.043   6.475  20.209  0.00  0.00    -0.004 A 
ENDBRANCH  17  18
ENDBRANCH  15  17
ENDBRANCH  13  14
TORSDOF 5
ENDMDL
