MODEL 1
REMARK VINA RESULT:     -11.7      0.000      0.000
REMARK  Name = 
REMARK  4 active torsions:
REMARK  status: ('A' for Active; 'I' for Inactive)
REMARK    1  A    between atoms: C_2  and  C_4
REMARK    2  A    between atoms: C_4  and  N_5
REMARK    3  A    between atoms: N_10  and  S_16
REMARK    4  A    between atoms: S_16  and  C_19
REMARK                            x       y       z     vdW  Elec       q    Type
REMARK                         _______ _______ _______ _____ _____    ______ ____
ROOT
ATOM      5  N   UNL     1      -3.281   3.236  24.878  0.00  0.00    -0.203 N 
ATOM      6  C   UNL     1      -2.887   2.523  24.748  0.00  0.00    +0.253 C 
ATOM      7  O   UNL     1      -2.080   2.436  24.601  0.00  0.00    -0.273 OA
ATOM      8  C   UNL     1      -3.441   1.915  24.789  0.00  0.00    +0.172 C 
ATOM      9  C   UNL     1      -3.371   1.097  24.704  0.00  0.00    +0.125 C 
ATOM     10  N   UNL     1      -4.036   0.616  24.776  0.00  0.00    -0.152 NA
ATOM     11  C   UNL     1      -4.773   0.952  24.932  0.00  0.00    +0.117 C 
ATOM     12  C   UNL     1      -4.845   1.769  25.017  0.00  0.00    +0.115 C 
ATOM     13  N   UNL     1      -4.178   2.251  24.945  0.00  0.00    -0.254 N 
ATOM     14  C   UNL     1      -4.079   3.067  25.000  0.00  0.00    +0.314 C 
ATOM     15  O   UNL     1      -4.674   3.619  25.151  0.00  0.00    -0.252 OA
ENDROOT
BRANCH  10  16
ATOM     16  S   UNL     1      -3.966  -0.202  24.692  0.00  0.00    +0.063 S 
ATOM     17  O   UNL     1      -3.896  -0.113  23.875  0.00  0.00    -0.153 OA
ATOM     18  O   UNL     1      -4.037  -0.292  25.509  0.00  0.00    -0.153 OA
BRANCH  16  19
ATOM     19  C   UNL     1      -3.896  -1.020  24.609  0.00  0.00    +0.122 A 
ATOM     20  C   UNL     1      -3.492  -1.460  25.177  0.00  0.00    +0.022 A 
ATOM     21  C   UNL     1      -3.422  -2.278  25.093  0.00  0.00    +0.031 A 
ATOM     22  C   UNL     1      -3.757  -2.656  24.441  0.00  0.00    +0.140 A 
ATOM     23  F   UNL     1      -3.688  -3.474  24.357  0.00  0.00    -0.204 F 
ATOM     24  C   UNL     1      -4.162  -2.216  23.873  0.00  0.00    +0.031 A 
ATOM     25  C   UNL     1      -4.232  -1.398  23.956  0.00  0.00    +0.022 A 
ENDBRANCH  16  19
ENDBRANCH  10  16
BRANCH   5   4
ATOM      4  C   UNL     1      -2.937   3.986  24.886  0.00  0.00    +0.191 C 
BRANCH   4   2
ATOM      1  N   UNL     1      -1.730   4.481  25.469  0.00  0.00    -0.086 NA
ATOM      2  C   UNL     1      -2.515   4.241  25.547  0.00  0.00    +0.281 C 
ATOM      3  O   UNL     1      -2.879   4.254  26.288  0.00  0.00    -0.270 OA
ENDBRANCH   4   2
ENDBRANCH   5   4
TORSDOF 4
ENDMDL
MODEL 2
REMARK VINA RESULT:     -10.7      1.057      1.575
REMARK  Name = 
REMARK  4 active torsions:
REMARK  status: ('A' for Active; 'I' for Inactive)
REMARK    1  A    between atoms: C_2  and  C_4
REMARK    2  A    between atoms: C_4  and  N_5
REMARK    3  A    between atoms: N_10  and  S_16
REMARK    4  A    between atoms: S_16  and  C_19
REMARK                            x       y       z     vdW  Elec       q    Type
REMARK                         _______ _______ _______ _____ _____    ______ ____
ROOT
ATOM      5  N   UNL     1      -4.380   2.925  24.756  0.00  0.00    -0.203 N 
ATOM      6  C   UNL     1      -4.759   2.192  24.782  0.00  0.00    +0.253 C 
ATOM      7  O   UNL     1      -5.566   2.067  24.897  0.00  0.00    -0.273 OA
ATOM      8  C   UNL     1      -4.188   1.607  24.672  0.00  0.00    +0.172 C 
ATOM      9  C   UNL     1      -4.239   0.784  24.645  0.00  0.00    +0.125 C 
ATOM     10  N   UNL     1      -3.560   0.332  24.525  0.00  0.00    -0.152 NA
ATOM     11  C   UNL     1      -2.829   0.703  24.432  0.00  0.00    +0.117 C 
ATOM     12  C   UNL     1      -2.777   1.526  24.459  0.00  0.00    +0.115 C 
ATOM     13  N   UNL     1      -3.457   1.978  24.579  0.00  0.00    -0.254 N 
ATOM     14  C   UNL     1      -3.576   2.792  24.631  0.00  0.00    +0.314 C 
ATOM     15  O   UNL     1      -2.993   3.373  24.568  0.00  0.00    -0.252 OA
ENDROOT
BRANCH  10  16
ATOM     16  S   UNL     1      -3.611  -0.491  24.498  0.00  0.00    +0.063 S 
ATOM     17  O   UNL     1      -3.708  -0.459  23.680  0.00  0.00    -0.153 OA
ATOM     18  O   UNL     1      -3.513  -0.523  25.318  0.00  0.00    -0.153 OA
BRANCH  16  19
ATOM     19  C   UNL     1      -3.661  -1.314  24.473  0.00  0.00    +0.122 A 
ATOM     20  C   UNL     1      -3.244  -1.771  25.019  0.00  0.00    +0.022 A 
ATOM     21  C   UNL     1      -3.295  -2.594  24.992  0.00  0.00    +0.031 A 
ATOM     22  C   UNL     1      -3.763  -2.960  24.421  0.00  0.00    +0.140 A 
ATOM     23  F   UNL     1      -3.814  -3.783  24.394  0.00  0.00    -0.204 F 
ATOM     24  C   UNL     1      -4.180  -2.503  23.875  0.00  0.00    +0.031 A 
ATOM     25  C   UNL     1      -4.130  -1.681  23.900  0.00  0.00    +0.022 A 
ENDBRANCH  16  19
ENDBRANCH  10  16
BRANCH   5   4
ATOM      4  C   UNL     1      -4.743   3.661  24.841  0.00  0.00    +0.191 C 
BRANCH   4   2
ATOM      1  N   UNL     1      -5.740   4.055  25.786  0.00  0.00    -0.086 NA
ATOM      2  C   UNL     1      -4.947   3.937  25.591  0.00  0.00    +0.281 C 
ATOM      3  O   UNL     1      -4.357   4.095  26.147  0.00  0.00    -0.270 OA
ENDBRANCH   4   2
ENDBRANCH   5   4
TORSDOF 4
ENDMDL
MODEL 3
REMARK VINA RESULT:     -10.6      0.844      1.397
REMARK  Name = 
REMARK  4 active torsions:
REMARK  status: ('A' for Active; 'I' for Inactive)
REMARK    1  A    between atoms: C_2  and  C_4
REMARK    2  A    between atoms: C_4  and  N_5
REMARK    3  A    between atoms: N_10  and  S_16
REMARK    4  A    between atoms: S_16  and  C_19
REMARK                            x       y       z     vdW  Elec       q    Type
REMARK                         _______ _______ _______ _____ _____    ______ ____
ROOT
ATOM      5  N   UNL     1      -2.863   3.167  24.845  0.00  0.00    -0.203 N 
ATOM      6  C   UNL     1      -3.389   2.545  24.981  0.00  0.00    +0.253 C 
ATOM      7  O   UNL     1      -4.140   2.609  25.315  0.00  0.00    -0.273 OA
ATOM      8  C   UNL     1      -3.030   1.848  24.724  0.00  0.00    +0.172 C 
ATOM      9  C   UNL     1      -3.286   1.064  24.720  0.00  0.00    +0.125 C 
ATOM     10  N   UNL     1      -2.797   0.471  24.423  0.00  0.00    -0.152 NA
ATOM     11  C   UNL     1      -2.051   0.662  24.128  0.00  0.00    +0.117 C 
ATOM     12  C   UNL     1      -1.793   1.445  24.132  0.00  0.00    +0.115 C 
ATOM     13  N   UNL     1      -2.283   2.039  24.430  0.00  0.00    -0.254 N 
ATOM     14  C   UNL     1      -2.180   2.853  24.505  0.00  0.00    +0.314 C 
ATOM     15  O   UNL     1      -1.511   3.281  24.278  0.00  0.00    -0.252 OA
ENDROOT
BRANCH  10  16
ATOM     16  S   UNL     1      -3.054  -0.314  24.418  0.00  0.00    +0.063 S 
ATOM     17  O   UNL     1      -3.452  -0.180  23.709  0.00  0.00    -0.153 OA
ATOM     18  O   UNL     1      -2.655  -0.447  25.129  0.00  0.00    -0.153 OA
BRANCH  16  19
ATOM     19  C   UNL     1      -3.309  -1.098  24.416  0.00  0.00    +0.122 A 
ATOM     20  C   UNL     1      -2.955  -1.650  24.916  0.00  0.00    +0.022 A 
ATOM     21  C   UNL     1      -3.211  -2.434  24.912  0.00  0.00    +0.031 A 
ATOM     22  C   UNL     1      -3.821  -2.666  24.409  0.00  0.00    +0.140 A 
ATOM     23  F   UNL     1      -4.078  -3.451  24.405  0.00  0.00    -0.204 F 
ATOM     24  C   UNL     1      -4.176  -2.114  23.909  0.00  0.00    +0.031 A 
ATOM     25  C   UNL     1      -3.921  -1.330  23.912  0.00  0.00    +0.022 A 
ENDBRANCH  16  19
ENDBRANCH  10  16
BRANCH   5   4
ATOM      4  C   UNL     1      -2.997   3.962  25.020  0.00  0.00    +0.191 C 
BRANCH   4   2
ATOM      1  N   UNL     1      -1.985   4.781  25.608  0.00  0.00    -0.086 NA
ATOM      2  C   UNL     1      -2.652   4.302  25.687  0.00  0.00    +0.281 C 
ATOM      3  O   UNL     1      -2.975   4.163  26.434  0.00  0.00    -0.270 OA
ENDBRANCH   4   2
ENDBRANCH   5   4
TORSDOF 4
ENDMDL
MODEL 4
REMARK VINA RESULT:     -10.4      2.566      5.223
REMARK  Name = 
REMARK  4 active torsions:
REMARK  status: ('A' for Active; 'I' for Inactive)
REMARK    1  A    between atoms: C_2  and  C_4
REMARK    2  A    between atoms: C_4  and  N_5
REMARK    3  A    between atoms: N_10  and  S_16
REMARK    4  A    between atoms: S_16  and  C_19
REMARK                            x       y       z     vdW  Elec       q    Type
REMARK                         _______ _______ _______ _____ _____    ______ ____
ROOT
ATOM      5  N   UNL     1      -3.093  -0.787  25.033  0.00  0.00    -0.203 N 
ATOM      6  C   UNL     1      -3.333  -0.001  25.106  0.00  0.00    +0.253 C 
ATOM      7  O   UNL     1      -4.107   0.263  25.207  0.00  0.00    -0.273 OA
ATOM      8  C   UNL     1      -2.661   0.475  25.059  0.00  0.00    +0.172 C 
ATOM      9  C   UNL     1      -2.560   1.293  25.095  0.00  0.00    +0.125 C 
ATOM     10  N   UNL     1      -1.805   1.619  25.031  0.00  0.00    -0.152 NA
ATOM     11  C   UNL     1      -1.151   1.127  24.929  0.00  0.00    +0.117 C 
ATOM     12  C   UNL     1      -1.251   0.309  24.893  0.00  0.00    +0.115 C 
ATOM     13  N   UNL     1      -2.007  -0.017  24.958  0.00  0.00    -0.254 N 
ATOM     14  C   UNL     1      -2.274  -0.797  24.942  0.00  0.00    +0.314 C 
ATOM     15  O   UNL     1      -1.804  -1.469  24.850  0.00  0.00    -0.252 OA
ENDROOT
BRANCH  10  16
ATOM     16  S   UNL     1      -1.704   2.437  25.067  0.00  0.00    +0.063 S 
ATOM     17  O   UNL     1      -1.912   2.499  24.272  0.00  0.00    -0.153 OA
ATOM     18  O   UNL     1      -1.496   2.375  25.864  0.00  0.00    -0.153 OA
BRANCH  16  19
ATOM     19  C   UNL     1      -1.602   3.255  25.105  0.00  0.00    +0.122 A 
ATOM     20  C   UNL     1      -2.189   3.729  25.438  0.00  0.00    +0.022 A 
ATOM     21  C   UNL     1      -2.087   4.547  25.476  0.00  0.00    +0.031 A 
ATOM     22  C   UNL     1      -1.398   4.891  25.180  0.00  0.00    +0.140 A 
ATOM     23  F   UNL     1      -1.295   5.708  25.217  0.00  0.00    -0.204 F 
ATOM     24  C   UNL     1      -0.811   4.416  24.846  0.00  0.00    +0.031 A 
ATOM     25  C   UNL     1      -0.913   3.599  24.809  0.00  0.00    +0.022 A 
ENDBRANCH  16  19
ENDBRANCH  10  16
BRANCH   5   4
ATOM      4  C   UNL     1      -3.587  -1.448  25.050  0.00  0.00    +0.191 C 
BRANCH   4   2
ATOM      1  N   UNL     1      -3.541  -2.590  24.191  0.00  0.00    -0.086 NA
ATOM      2  C   UNL     1      -3.800  -1.822  24.346  0.00  0.00    +0.281 C 
ATOM      3  O   UNL     1      -4.273  -1.427  23.796  0.00  0.00    -0.270 OA
ENDBRANCH   4   2
ENDBRANCH   5   4
TORSDOF 4
ENDMDL
