MODEL 1
REMARK VINA RESULT:      -8.5      0.000      0.000
REMARK  Name = 
REMARK  7 active torsions:
REMARK  status: ('A' for Active; 'I' for Inactive)
REMARK    1  A    between atoms: O_2  and  C_3
REMARK    2  A    between atoms: C_3  and  C_4
REMARK    3  A    between atoms: C_4  and  N_5
REMARK    4  A    between atoms: C_6  and  C_8
REMARK    5  A    between atoms: C_8  and  C_10
REMARK    6  A    between atoms: C_21  and  C_23
REMARK    7  A    between atoms: C_23  and  N_24
REMARK                            x       y       z     vdW  Elec       q    Type
REMARK                         _______ _______ _______ _____ _____    ______ ____
ROOT
ATOM     10  C   UNL     1      -3.117   3.466  24.718  0.00  0.00    +0.039 C 
ATOM     11  C   UNL     1      -2.679   3.864  25.291  0.00  0.00    +0.003 C 
ATOM     12  C   UNL     1      -1.889   3.661  25.421  0.00  0.00    +0.001 C 
ATOM     13  C   UNL     1      -1.539   3.060  24.976  0.00  0.00    +0.007 C 
ATOM     14  C   UNL     1      -1.100   3.459  25.551  0.00  0.00    +0.000 C 
ATOM     15  C   UNL     1      -0.749   2.858  25.106  0.00  0.00    +0.034 C 
ATOM     16  C   UNL     1      -0.400   2.257  24.662  0.00  0.00    +0.023 A 
ATOM     17  C   UNL     1      -0.839   1.859  24.089  0.00  0.00    +0.063 A 
ATOM     18  N   UNL     1      -0.349   1.294  23.739  0.00  0.00    -0.227 NA
ATOM     19  C   UNL     1       0.393   1.344  24.096  0.00  0.00    +0.185 A 
ATOM     20  N   UNL     1       1.051   0.880  23.915  0.00  0.00    -0.153 NA
ATOM     21  C   UNL     1       0.999   0.303  23.328  0.00  0.00    +0.264 C 
ATOM     22  O   UNL     1       0.290   0.190  22.921  0.00  0.00    -0.271 OA
ATOM     27  S   UNL     1       0.361   1.939  24.667  0.00  0.00    -0.054 S 
ATOM     28  C   UNL     1      -1.628   2.061  23.959  0.00  0.00    +0.043 C 
ATOM     29  C   UNL     1      -2.067   1.662  23.386  0.00  0.00    +0.006 C 
ATOM     30  C   UNL     1      -1.978   2.662  24.404  0.00  0.00    +0.036 C 
ATOM     31  C   UNL     1      -2.767   2.864  24.273  0.00  0.00    +0.153 C 
ATOM     32  O   UNL     1      -3.206   2.466  23.700  0.00  0.00    -0.223 OA
ENDROOT
BRANCH  10   8
ATOM      8  C   UNL     1      -3.906   3.668  24.588  0.00  0.00    +0.081 C 
ATOM      9  C   UNL     1      -4.137   3.985  23.862  0.00  0.00    +0.010 C 
BRANCH   8   6
ATOM      5  N   UNL     1      -4.958   2.890  25.165  0.00  0.00    -0.203 NA
ATOM      6  C   UNL     1      -4.465   3.552  25.185  0.00  0.00    +0.241 C 
ATOM      7  O   UNL     1      -4.531   4.096  25.799  0.00  0.00    -0.273 OA
BRANCH   5   4
ATOM      4  C   UNL     1      -5.517   2.774  25.761  0.00  0.00    +0.147 C 
BRANCH   4   3
ATOM      3  C   UNL     1      -5.905   2.050  25.826  0.00  0.00    +0.166 C 
BRANCH   3   2
ATOM      1  C   UNL     1      -6.581   1.431  26.923  0.00  0.00    +0.174 C 
ATOM      2  O   UNL     1      -6.572   1.981  26.309  0.00  0.00    -0.349 OA
ENDBRANCH   3   2
ENDBRANCH   4   3
ENDBRANCH   5   4
ENDBRANCH   8   6
ENDBRANCH  10   8
BRANCH  21  23
ATOM     23  C   UNL     1       1.657  -0.160  23.146  0.00  0.00    +0.161 C 
BRANCH  23  24
ATOM     24  N   UNL     1       2.037  -0.071  22.419  0.00  0.00    -0.263 NA
ATOM     25  C   UNL     1       1.677  -0.345  21.729  0.00  0.00    +0.090 C 
ATOM     26  C   UNL     1       2.777   0.291  22.383  0.00  0.00    +0.090 C 
ENDBRANCH  23  24
ENDBRANCH  21  23
TORSDOF 7
ENDMDL
MODEL 2
REMARK VINA RESULT:      -8.4      1.243      2.030
REMARK  Name = 
REMARK  7 active torsions:
REMARK  status: ('A' for Active; 'I' for Inactive)
REMARK    1  A    between atoms: O_2  and  C_3
REMARK    2  A    between atoms: C_3  and  C_4
REMARK    3  A    between atoms: C_4  and  N_5
REMARK    4  A    between atoms: C_6  and  C_8
REMARK    5  A    between atoms: C_8  and  C_10
REMARK    6  A    between atoms: C_21  and  C_23
REMARK    7  A    between atoms: C_23  and  N_24
REMARK                            x       y       z     vdW  Elec       q    Type
REMARK                         _______ _______ _______ _____ _____    ______ ____
ROOT
ATOM     10  C   UNL     1      -2.041   2.385  25.045  0.00  0.00    +0.039 C 
ATOM     11  C   UNL     1      -2.447   1.673  24.956  0.00  0.00    +0.003 C 
ATOM     12  C   UNL     1      -2.067   1.020  24.622  0.00  0.00    +0.001 C 
ATOM     13  C   UNL     1      -1.282   1.081  24.378  0.00  0.00    +0.007 C 
ATOM     14  C   UNL     1      -1.689   0.368  24.289  0.00  0.00    +0.000 C 
ATOM     15  C   UNL     1      -0.903   0.428  24.044  0.00  0.00    +0.034 C 
ATOM     16  C   UNL     1      -0.117   0.489  23.799  0.00  0.00    +0.023 A 
ATOM     17  C   UNL     1       0.289   1.200  23.888  0.00  0.00    +0.063 A 
ATOM     18  N   UNL     1       1.054   1.095  23.598  0.00  0.00    -0.227 NA
ATOM     19  C   UNL     1       1.121   0.318  23.330  0.00  0.00    +0.185 A 
ATOM     20  N   UNL     1       1.793  -0.024  22.996  0.00  0.00    -0.153 NA
ATOM     21  C   UNL     1       2.481   0.422  22.906  0.00  0.00    +0.264 C 
ATOM     22  O   UNL     1       2.497   1.210  23.149  0.00  0.00    -0.271 OA
ATOM     27  S   UNL     1       0.397  -0.057  23.454  0.00  0.00    -0.054 S 
ATOM     28  C   UNL     1      -0.090   1.853  24.221  0.00  0.00    +0.043 C 
ATOM     29  C   UNL     1       0.316   2.566  24.310  0.00  0.00    +0.006 C 
ATOM     30  C   UNL     1      -0.876   1.793  24.466  0.00  0.00    +0.036 C 
ATOM     31  C   UNL     1      -1.255   2.445  24.800  0.00  0.00    +0.153 C 
ATOM     32  O   UNL     1      -0.848   3.158  24.888  0.00  0.00    -0.223 OA
ENDROOT
BRANCH  10   8
ATOM      8  C   UNL     1      -2.419   3.038  25.378  0.00  0.00    +0.081 C 
ATOM      9  C   UNL     1      -2.057   3.459  25.987  0.00  0.00    +0.010 C 
BRANCH   8   6
ATOM      5  N   UNL     1      -3.835   3.122  25.555  0.00  0.00    -0.203 NA
ATOM      6  C   UNL     1      -3.162   3.269  25.101  0.00  0.00    +0.241 C 
ATOM      7  O   UNL     1      -3.231   3.647  24.372  0.00  0.00    -0.273 OA
BRANCH   5   4
ATOM      4  C   UNL     1      -4.578   3.353  25.278  0.00  0.00    +0.147 C 
BRANCH   4   3
ATOM      3  C   UNL     1      -5.258   3.130  25.688  0.00  0.00    +0.166 C 
BRANCH   3   2
ATOM      1  C   UNL     1      -6.293   2.152  25.562  0.00  0.00    +0.174 C 
ATOM      2  O   UNL     1      -5.904   2.821  25.276  0.00  0.00    -0.349 OA
ENDBRANCH   3   2
ENDBRANCH   4   3
ENDBRANCH   5   4
ENDBRANCH   8   6
ENDBRANCH  10   8
BRANCH  21  23
ATOM     23  C   UNL     1       3.153   0.080  22.572  0.00  0.00    +0.161 C 
BRANCH  23  24
ATOM     24  N   UNL     1       3.903   0.356  22.779  0.00  0.00    -0.263 NA
ATOM     25  C   UNL     1       4.196   1.050  22.443  0.00  0.00    +0.090 C 
ATOM     26  C   UNL     1       4.360  -0.063  23.324  0.00  0.00    +0.090 C 
ENDBRANCH  23  24
ENDBRANCH  21  23
TORSDOF 7
ENDMDL
MODEL 3
REMARK VINA RESULT:      -8.4      1.356      6.228
REMARK  Name = 
REMARK  7 active torsions:
REMARK  status: ('A' for Active; 'I' for Inactive)
REMARK    1  A    between atoms: O_2  and  C_3
REMARK    2  A    between atoms: C_3  and  C_4
REMARK    3  A    between atoms: C_4  and  N_5
REMARK    4  A    between atoms: C_6  and  C_8
REMARK    5  A    between atoms: C_8  and  C_10
REMARK    6  A    between atoms: C_21  and  C_23
REMARK    7  A    between atoms: C_23  and  N_24
REMARK                            x       y       z     vdW  Elec       q    Type
REMARK                         _______ _______ _______ _____ _____    ______ ____
ROOT
ATOM     10  C   UNL     1       0.097   0.578  23.899  0.00  0.00    +0.039 C 
ATOM     11  C   UNL     1       0.469   1.299  24.040  0.00  0.00    +0.003 C 
ATOM     12  C   UNL     1       0.026   1.949  24.293  0.00  0.00    +0.001 C 
ATOM     13  C   UNL     1      -0.788   1.875  24.405  0.00  0.00    +0.007 C 
ATOM     14  C   UNL     1      -0.415   2.599  24.546  0.00  0.00    +0.000 C 
ATOM     15  C   UNL     1      -1.230   2.525  24.658  0.00  0.00    +0.034 C 
ATOM     16  C   UNL     1      -2.044   2.451  24.769  0.00  0.00    +0.023 A 
ATOM     17  C   UNL     1      -2.415   1.729  24.628  0.00  0.00    +0.063 A 
ATOM     18  N   UNL     1      -3.220   1.822  24.784  0.00  0.00    -0.227 NA
ATOM     19  C   UNL     1      -3.346   2.602  25.022  0.00  0.00    +0.185 A 
ATOM     20  N   UNL     1      -4.071   2.934  25.232  0.00  0.00    -0.153 NA
ATOM     21  C   UNL     1      -4.755   2.475  25.215  0.00  0.00    +0.264 C 
ATOM     22  O   UNL     1      -4.716   1.683  24.987  0.00  0.00    -0.271 OA
ATOM     27  S   UNL     1      -2.619   2.990  25.013  0.00  0.00    -0.054 S 
ATOM     28  C   UNL     1      -1.974   1.080  24.375  0.00  0.00    +0.043 C 
ATOM     29  C   UNL     1      -2.346   0.357  24.233  0.00  0.00    +0.006 C 
ATOM     30  C   UNL     1      -1.159   1.153  24.263  0.00  0.00    +0.036 C 
ATOM     31  C   UNL     1      -0.718   0.504  24.010  0.00  0.00    +0.153 C 
ATOM     32  O   UNL     1      -1.090  -0.218  23.869  0.00  0.00    -0.223 OA
ENDROOT
BRANCH  10   8
ATOM      8  C   UNL     1       0.538  -0.072  23.646  0.00  0.00    +0.081 C 
ATOM      9  C   UNL     1       0.452  -0.801  24.022  0.00  0.00    +0.010 C 
BRANCH   8   6
ATOM      5  N   UNL     1       1.876   0.065  23.162  0.00  0.00    -0.203 NA
ATOM      6  C   UNL     1       1.066   0.009  23.016  0.00  0.00    +0.241 C 
ATOM      7  O   UNL     1       0.784   0.034  22.242  0.00  0.00    -0.273 OA
BRANCH   5   4
ATOM      4  C   UNL     1       2.404   0.145  22.532  0.00  0.00    +0.147 C 
BRANCH   4   3
ATOM      3  C   UNL     1       3.215   0.074  22.663  0.00  0.00    +0.166 C 
BRANCH   3   2
ATOM      1  C   UNL     1       4.505   0.681  22.756  0.00  0.00    +0.174 C 
ATOM      2  O   UNL     1       3.711   0.722  22.538  0.00  0.00    -0.349 OA
ENDBRANCH   3   2
ENDBRANCH   4   3
ENDBRANCH   5   4
ENDBRANCH   8   6
ENDBRANCH  10   8
BRANCH  21  23
ATOM     23  C   UNL     1      -5.481   2.807  25.425  0.00  0.00    +0.161 C 
BRANCH  23  24
ATOM     24  N   UNL     1      -6.125   2.319  25.596  0.00  0.00    -0.263 NA
ATOM     25  C   UNL     1      -6.578   2.005  24.983  0.00  0.00    +0.090 C 
ATOM     26  C   UNL     1      -6.314   2.146  26.380  0.00  0.00    +0.090 C 
ENDBRANCH  23  24
ENDBRANCH  21  23
TORSDOF 7
ENDMDL
MODEL 4
REMARK VINA RESULT:      -8.3      1.795      2.580
REMARK  Name = 
REMARK  7 active torsions:
REMARK  status: ('A' for Active; 'I' for Inactive)
REMARK    1  A    between atoms: O_2  and  C_3
REMARK    2  A    between atoms: C_3  and  C_4
REMARK    3  A    between atoms: C_4  and  N_5
REMARK    4  A    between atoms: C_6  and  C_8
REMARK    5  A    between atoms: C_8  and  C_10
REMARK    6  A    between atoms: C_21  and  C_23
REMARK    7  A    between atoms: C_23  and  N_24
REMARK                            x       y       z     vdW  Elec       q    Type
REMARK                         _______ _______ _______ _____ _____    ______ ____
ROOT
ATOM     10  C   UNL     1      -4.310   0.742  24.868  0.00  0.00    +0.039 C 
ATOM     11  C   UNL     1      -4.346   0.094  25.375  0.00  0.00    +0.003 C 
ATOM     12  C   UNL     1      -3.689  -0.399  25.462  0.00  0.00    +0.001 C 
ATOM     13  C   UNL     1      -2.997  -0.241  25.042  0.00  0.00    +0.007 C 
ATOM     14  C   UNL     1      -3.033  -0.891  25.550  0.00  0.00    +0.000 C 
ATOM     15  C   UNL     1      -2.340  -0.734  25.129  0.00  0.00    +0.034 C 
ATOM     16  C   UNL     1      -1.648  -0.576  24.709  0.00  0.00    +0.023 A 
ATOM     17  C   UNL     1      -1.612   0.073  24.202  0.00  0.00    +0.063 A 
ATOM     18  N   UNL     1      -0.860   0.090  23.862  0.00  0.00    -0.227 NA
ATOM     19  C   UNL     1      -0.432  -0.549  24.159  0.00  0.00    +0.185 A 
ATOM     20  N   UNL     1       0.347  -0.742  23.967  0.00  0.00    -0.153 NA
ATOM     21  C   UNL     1       0.767  -0.277  23.432  0.00  0.00    +0.264 C 
ATOM     22  O   UNL     1       0.409   0.383  23.088  0.00  0.00    -0.271 OA
ATOM     27  S   UNL     1      -0.918  -0.961  24.682  0.00  0.00    -0.054 S 
ATOM     28  C   UNL     1      -2.268   0.565  24.114  0.00  0.00    +0.043 C 
ATOM     29  C   UNL     1      -2.232   1.215  23.607  0.00  0.00    +0.006 C 
ATOM     30  C   UNL     1      -2.961   0.408  24.535  0.00  0.00    +0.036 C 
ATOM     31  C   UNL     1      -3.617   0.900  24.447  0.00  0.00    +0.153 C 
ATOM     32  O   UNL     1      -3.581   1.549  23.940  0.00  0.00    -0.223 OA
ENDROOT
BRANCH  10   8
ATOM      8  C   UNL     1      -4.966   1.235  24.780  0.00  0.00    +0.081 C 
ATOM      9  C   UNL     1      -5.454   1.159  24.120  0.00  0.00    +0.010 C 
BRANCH   8   6
ATOM      5  N   UNL     1      -4.828   2.567  25.279  0.00  0.00    -0.203 NA
ATOM      6  C   UNL     1      -5.133   1.804  25.354  0.00  0.00    +0.241 C 
ATOM      7  O   UNL     1      -5.604   1.610  26.002  0.00  0.00    -0.273 OA
BRANCH   5   4
ATOM      4  C   UNL     1      -4.996   3.137  25.853  0.00  0.00    +0.147 C 
BRANCH   4   3
ATOM      3  C   UNL     1      -4.571   3.844  25.867  0.00  0.00    +0.166 C 
BRANCH   3   2
ATOM      1  C   UNL     1      -3.255   4.336  26.123  0.00  0.00    +0.174 C 
ATOM      2  O   UNL     1      -3.924   3.925  26.374  0.00  0.00    -0.349 OA
ENDBRANCH   3   2
ENDBRANCH   4   3
ENDBRANCH   5   4
ENDBRANCH   8   6
ENDBRANCH  10   8
BRANCH  21  23
ATOM     23  C   UNL     1       1.546  -0.470  23.239  0.00  0.00    +0.161 C 
BRANCH  23  24
ATOM     24  N   UNL     1       1.920  -0.095  22.606  0.00  0.00    -0.263 NA
ATOM     25  C   UNL     1       2.509   0.466  22.749  0.00  0.00    +0.090 C 
ATOM     26  C   UNL     1       1.705  -0.281  21.832  0.00  0.00    +0.090 C 
ENDBRANCH  23  24
ENDBRANCH  21  23
TORSDOF 7
ENDMDL
MODEL 5
REMARK VINA RESULT:      -7.4      2.385      6.397
REMARK  Name = 
REMARK  7 active torsions:
REMARK  status: ('A' for Active; 'I' for Inactive)
REMARK    1  A    between atoms: O_2  and  C_3
REMARK    2  A    between atoms: C_3  and  C_4
REMARK    3  A    between atoms: C_4  and  N_5
REMARK    4  A    between atoms: C_6  and  C_8
REMARK    5  A    between atoms: C_8  and  C_10
REMARK    6  A    between atoms: C_21  and  C_23
REMARK    7  A    between atoms: C_23  and  N_24
REMARK                            x       y       z     vdW  Elec       q    Type
REMARK                         _______ _______ _______ _____ _____    ______ ____
ROOT
ATOM     10  C   UNL     1      -1.675  -1.023  24.725  0.00  0.00    +0.039 C 
ATOM     11  C   UNL     1      -2.241  -1.573  24.486  0.00  0.00    +0.003 C 
ATOM     12  C   UNL     1      -3.039  -1.362  24.465  0.00  0.00    +0.001 C 
ATOM     13  C   UNL     1      -3.269  -0.600  24.683  0.00  0.00    +0.007 C 
ATOM     14  C   UNL     1      -3.836  -1.151  24.444  0.00  0.00    +0.000 C 
ATOM     15  C   UNL     1      -4.067  -0.389  24.663  0.00  0.00    +0.034 C 
ATOM     16  C   UNL     1      -4.297   0.372  24.881  0.00  0.00    +0.023 A 
ATOM     17  C   UNL     1      -3.732   0.921  25.121  0.00  0.00    +0.063 A 
ATOM     18  N   UNL     1      -4.121   1.626  25.303  0.00  0.00    -0.227 NA
ATOM     19  C   UNL     1      -4.928   1.511  25.177  0.00  0.00    +0.185 A 
ATOM     20  N   UNL     1      -5.522   2.072  25.291  0.00  0.00    -0.153 NA
ATOM     21  C   UNL     1      -5.328   2.829  25.556  0.00  0.00    +0.264 C 
ATOM     22  O   UNL     1      -4.541   3.025  25.706  0.00  0.00    -0.271 OA
ATOM     27  S   UNL     1      -5.037   0.736  24.916  0.00  0.00    -0.054 S 
ATOM     28  C   UNL     1      -2.934   0.711  25.142  0.00  0.00    +0.043 C 
ATOM     29  C   UNL     1      -2.368   1.261  25.381  0.00  0.00    +0.006 C 
ATOM     30  C   UNL     1      -2.703  -0.051  24.923  0.00  0.00    +0.036 C 
ATOM     31  C   UNL     1      -1.906  -0.262  24.944  0.00  0.00    +0.153 C 
ATOM     32  O   UNL     1      -1.340   0.289  25.183  0.00  0.00    -0.223 OA
ENDROOT
BRANCH  10   8
ATOM      8  C   UNL     1      -0.878  -1.234  24.746  0.00  0.00    +0.081 C 
ATOM      9  C   UNL     1      -0.526  -1.448  25.460  0.00  0.00    +0.010 C 
BRANCH   8   6
ATOM      5  N   UNL     1       0.155  -0.661  23.942  0.00  0.00    -0.203 NA
ATOM      6  C   UNL     1      -0.432  -1.230  24.051  0.00  0.00    +0.241 C 
ATOM      7  O   UNL     1      -0.574  -1.794  23.467  0.00  0.00    -0.273 OA
BRANCH   5   4
ATOM      4  C   UNL     1       0.601  -0.657  23.247  0.00  0.00    +0.147 C 
BRANCH   4   3
ATOM      3  C   UNL     1       1.182  -0.083  23.134  0.00  0.00    +0.166 C 
BRANCH   3   2
ATOM      1  C   UNL     1       2.431   0.133  22.473  0.00  0.00    +0.174 C 
ATOM      2  O   UNL     1       1.636  -0.086  22.444  0.00  0.00    -0.349 OA
ENDBRANCH   3   2
ENDBRANCH   4   3
ENDBRANCH   5   4
ENDBRANCH   8   6
ENDBRANCH  10   8
BRANCH  21  23
ATOM     23  C   UNL     1      -5.922   3.390  25.670  0.00  0.00    +0.161 C 
BRANCH  23  24
ATOM     24  N   UNL     1      -5.746   4.195  25.611  0.00  0.00    -0.263 NA
ATOM     25  C   UNL     1      -6.336   4.731  25.398  0.00  0.00    +0.090 C 
ATOM     26  C   UNL     1      -4.981   4.461  25.764  0.00  0.00    +0.090 C 
ENDBRANCH  23  24
ENDBRANCH  21  23
TORSDOF 7
ENDMDL
MODEL 6
REMARK VINA RESULT:      -7.1      1.707      2.515
REMARK  Name = 
REMARK  7 active torsions:
REMARK  status: ('A' for Active; 'I' for Inactive)
REMARK    1  A    between atoms: O_2  and  C_3
REMARK    2  A    between atoms: C_3  and  C_4
REMARK    3  A    between atoms: C_4  and  N_5
REMARK    4  A    between atoms: C_6  and  C_8
REMARK    5  A    between atoms: C_8  and  C_10
REMARK    6  A    between atoms: C_21  and  C_23
REMARK    7  A    between atoms: C_23  and  N_24
REMARK                            x       y       z     vdW  Elec       q    Type
REMARK                         _______ _______ _______ _____ _____    ______ ____
ROOT
ATOM     10  C   UNL     1      -2.338   0.371  24.942  0.00  0.00    +0.039 C 
ATOM     11  C   UNL     1      -2.301   1.156  25.191  0.00  0.00    +0.003 C 
ATOM     12  C   UNL     1      -1.621   1.602  25.050  0.00  0.00    +0.001 C 
ATOM     13  C   UNL     1      -0.979   1.263  24.659  0.00  0.00    +0.007 C 
ATOM     14  C   UNL     1      -0.942   2.049  24.910  0.00  0.00    +0.000 C 
ATOM     15  C   UNL     1      -0.299   1.709  24.518  0.00  0.00    +0.034 C 
ATOM     16  C   UNL     1       0.342   1.370  24.127  0.00  0.00    +0.023 A 
ATOM     17  C   UNL     1       0.305   0.585  23.877  0.00  0.00    +0.063 A 
ATOM     18  N   UNL     1       1.020   0.401  23.507  0.00  0.00    -0.227 NA
ATOM     19  C   UNL     1       1.499   1.073  23.529  0.00  0.00    +0.185 A 
ATOM     20  N   UNL     1       2.262   1.134  23.222  0.00  0.00    -0.153 NA
ATOM     21  C   UNL     1       2.611   0.486  22.852  0.00  0.00    +0.264 C 
ATOM     22  O   UNL     1       2.197  -0.226  22.788  0.00  0.00    -0.271 OA
ATOM     27  S   UNL     1       1.080   1.671  23.912  0.00  0.00    -0.054 S 
ATOM     28  C   UNL     1      -0.374   0.139  24.018  0.00  0.00    +0.043 C 
ATOM     29  C   UNL     1      -0.411  -0.646  23.768  0.00  0.00    +0.006 C 
ATOM     30  C   UNL     1      -1.017   0.478  24.409  0.00  0.00    +0.036 C 
ATOM     31  C   UNL     1      -1.696   0.032  24.550  0.00  0.00    +0.153 C 
ATOM     32  O   UNL     1      -1.733  -0.754  24.300  0.00  0.00    -0.223 OA
ENDROOT
BRANCH  10   8
ATOM      8  C   UNL     1      -3.017  -0.075  25.082  0.00  0.00    +0.081 C 
ATOM      9  C   UNL     1      -2.974  -0.759  25.542  0.00  0.00    +0.010 C 
BRANCH   8   6
ATOM      5  N   UNL     1      -4.270   0.598  25.222  0.00  0.00    -0.203 NA
ATOM      6  C   UNL     1      -3.741   0.163  24.763  0.00  0.00    +0.241 C 
ATOM      7  O   UNL     1      -3.933  -0.035  23.986  0.00  0.00    -0.273 OA
BRANCH   5   4
ATOM      4  C   UNL     1      -4.993   0.836  24.902  0.00  0.00    +0.147 C 
BRANCH   4   3
ATOM      3  C   UNL     1      -5.502   1.312  25.344  0.00  0.00    +0.166 C 
BRANCH   3   2
ATOM      1  C   UNL     1      -5.895   2.682  25.456  0.00  0.00    +0.174 C 
ATOM      2  O   UNL     1      -5.825   1.993  25.007  0.00  0.00    -0.349 OA
ENDBRANCH   3   2
ENDBRANCH   4   3
ENDBRANCH   5   4
ENDBRANCH   8   6
ENDBRANCH  10   8
BRANCH  21  23
ATOM     23  C   UNL     1       3.374   0.548  22.545  0.00  0.00    +0.161 C 
BRANCH  23  24
ATOM     24  N   UNL     1       4.009   0.205  22.945  0.00  0.00    -0.263 NA
ATOM     25  C   UNL     1       4.000  -0.601  23.120  0.00  0.00    +0.090 C 
ATOM     26  C   UNL     1       4.653   0.669  23.170  0.00  0.00    +0.090 C 
ENDBRANCH  23  24
ENDBRANCH  21  23
TORSDOF 7
ENDMDL
MODEL 7
REMARK VINA RESULT:      -7.1     14.460     15.104
REMARK  Name = 
REMARK  7 active torsions:
REMARK  status: ('A' for Active; 'I' for Inactive)
REMARK    1  A    between atoms: O_2  and  C_3
REMARK    2  A    between atoms: C_3  and  C_4
REMARK    3  A    between atoms: C_4  and  N_5
REMARK    4  A    between atoms: C_6  and  C_8
REMARK    5  A    between atoms: C_8  and  C_10
REMARK    6  A    between atoms: C_21  and  C_23
REMARK    7  A    between atoms: C_23  and  N_24
REMARK                            x       y       z     vdW  Elec       q    Type
REMARK                         _______ _______ _______ _____ _____    ______ ____
ROOT
ATOM     10  C   UNL     1      -7.826  -9.912  16.760  0.00  0.00    +0.039 C 
ATOM     11  C   UNL     1      -7.680  -9.945  17.570  0.00  0.00    +0.003 C 
ATOM     12  C   UNL     1      -6.910 -10.062  17.847  0.00  0.00    +0.001 C 
ATOM     13  C   UNL     1      -6.289 -10.146  17.311  0.00  0.00    +0.007 C 
ATOM     14  C   UNL     1      -6.142 -10.179  18.123  0.00  0.00    +0.000 C 
ATOM     15  C   UNL     1      -5.520 -10.264  17.588  0.00  0.00    +0.034 C 
ATOM     16  C   UNL     1      -4.898 -10.348  17.052  0.00  0.00    +0.023 A 
ATOM     17  C   UNL     1      -5.044 -10.316  16.242  0.00  0.00    +0.063 A 
ATOM     18  N   UNL     1      -4.326 -10.417  15.849  0.00  0.00    -0.227 NA
ATOM     19  C   UNL     1      -3.735 -10.511  16.416  0.00  0.00    +0.185 A 
ATOM     20  N   UNL     1      -2.932 -10.628  16.267  0.00  0.00    -0.153 NA
ATOM     21  C   UNL     1      -2.658 -10.658  15.490  0.00  0.00    +0.264 C 
ATOM     22  O   UNL     1      -3.186 -10.572  14.862  0.00  0.00    -0.271 OA
ATOM     27  S   UNL     1      -4.089 -10.469  17.160  0.00  0.00    -0.054 S 
ATOM     28  C   UNL     1      -5.813 -10.199  15.965  0.00  0.00    +0.043 C 
ATOM     29  C   UNL     1      -5.959 -10.166  15.154  0.00  0.00    +0.006 C 
ATOM     30  C   UNL     1      -6.435 -10.114  16.501  0.00  0.00    +0.036 C 
ATOM     31  C   UNL     1      -7.203  -9.997  16.224  0.00  0.00    +0.153 C 
ATOM     32  O   UNL     1      -7.350  -9.965  15.413  0.00  0.00    -0.223 OA
ENDROOT
BRANCH  10   8
ATOM      8  C   UNL     1      -8.594  -9.795  16.484  0.00  0.00    +0.081 C 
ATOM      9  C   UNL     1      -8.899 -10.284  15.893  0.00  0.00    +0.010 C 
BRANCH   8   6
ATOM      5  N   UNL     1      -9.279  -8.551  16.324  0.00  0.00    -0.203 NA
ATOM      6  C   UNL     1      -9.058  -9.189  16.798  0.00  0.00    +0.241 C 
ATOM      7  O   UNL     1      -9.299  -9.221  17.586  0.00  0.00    -0.273 OA
BRANCH   5   4
ATOM      4  C   UNL     1      -9.742  -7.945  16.639  0.00  0.00    +0.147 C 
BRANCH   4   3
ATOM      3  C   UNL     1     -10.254  -7.522  16.150  0.00  0.00    +0.166 C 
BRANCH   3   2
ATOM      1  C   UNL     1     -10.628  -6.178  15.840  0.00  0.00    +0.174 C 
ATOM      2  O   UNL     1     -10.050  -6.763  15.896  0.00  0.00    -0.349 OA
ENDBRANCH   3   2
ENDBRANCH   4   3
ENDBRANCH   5   4
ENDBRANCH   8   6
ENDBRANCH  10   8
BRANCH  21  23
ATOM     23  C   UNL     1      -1.855 -10.774  15.340  0.00  0.00    +0.161 C 
BRANCH  23  24
ATOM     24  N   UNL     1      -1.413 -10.181  14.973  0.00  0.00    -0.263 NA
ATOM     25  C   UNL     1      -0.916  -9.700  15.422  0.00  0.00    +0.090 C 
ATOM     26  C   UNL     1      -1.470 -10.071  14.158  0.00  0.00    +0.090 C 
ENDBRANCH  23  24
ENDBRANCH  21  23
TORSDOF 7
ENDMDL
MODEL 8
REMARK VINA RESULT:      -6.9      2.933      5.085
REMARK  Name = 
REMARK  7 active torsions:
REMARK  status: ('A' for Active; 'I' for Inactive)
REMARK    1  A    between atoms: O_2  and  C_3
REMARK    2  A    between atoms: C_3  and  C_4
REMARK    3  A    between atoms: C_4  and  N_5
REMARK    4  A    between atoms: C_6  and  C_8
REMARK    5  A    between atoms: C_8  and  C_10
REMARK    6  A    between atoms: C_21  and  C_23
REMARK    7  A    between atoms: C_23  and  N_24
REMARK                            x       y       z     vdW  Elec       q    Type
REMARK                         _______ _______ _______ _____ _____    ______ ____
ROOT
ATOM     10  C   UNL     1      -4.077  -0.566  24.307  0.00  0.00    +0.039 C 
ATOM     11  C   UNL     1      -4.798  -0.406  24.672  0.00  0.00    +0.003 C 
ATOM     12  C   UNL     1      -4.944   0.343  24.989  0.00  0.00    +0.001 C 
ATOM     13  C   UNL     1      -4.366   0.930  24.940  0.00  0.00    +0.007 C 
ATOM     14  C   UNL     1      -5.089   1.090  25.306  0.00  0.00    +0.000 C 
ATOM     15  C   UNL     1      -4.511   1.678  25.257  0.00  0.00    +0.034 C 
ATOM     16  C   UNL     1      -3.934   2.265  25.209  0.00  0.00    +0.023 A 
ATOM     17  C   UNL     1      -3.213   2.105  24.844  0.00  0.00    +0.063 A 
ATOM     18  N   UNL     1      -2.752   2.789  24.879  0.00  0.00    -0.227 NA
ATOM     19  C   UNL     1      -3.189   3.372  25.265  0.00  0.00    +0.185 A 
ATOM     20  N   UNL     1      -2.940   4.143  25.420  0.00  0.00    -0.153 NA
ATOM     21  C   UNL     1      -2.190   4.389  25.182  0.00  0.00    +0.264 C 
ATOM     22  O   UNL     1      -1.689   3.865  24.788  0.00  0.00    -0.271 OA
ATOM     27  S   UNL     1      -3.920   3.048  25.469  0.00  0.00    -0.054 S 
ATOM     28  C   UNL     1      -3.067   1.357  24.527  0.00  0.00    +0.043 C 
ATOM     29  C   UNL     1      -2.345   1.197  24.162  0.00  0.00    +0.006 C 
ATOM     30  C   UNL     1      -3.645   0.769  24.576  0.00  0.00    +0.036 C 
ATOM     31  C   UNL     1      -3.499   0.022  24.259  0.00  0.00    +0.153 C 
ATOM     32  O   UNL     1      -2.777  -0.138  23.894  0.00  0.00    -0.223 OA
ENDROOT
BRANCH  10   8
ATOM      8  C   UNL     1      -3.931  -1.313  23.990  0.00  0.00    +0.081 C 
ATOM      9  C   UNL     1      -4.168  -1.489  23.219  0.00  0.00    +0.010 C 
BRANCH   8   6
ATOM      5  N   UNL     1      -2.768  -2.093  24.276  0.00  0.00    -0.203 NA
ATOM      6  C   UNL     1      -3.548  -1.886  24.445  0.00  0.00    +0.241 C 
ATOM      7  O   UNL     1      -3.946  -2.252  25.067  0.00  0.00    -0.273 OA
BRANCH   5   4
ATOM      4  C   UNL     1      -2.385  -2.666  24.731  0.00  0.00    +0.147 C 
BRANCH   4   3
ATOM      3  C   UNL     1      -1.571  -2.777  24.653  0.00  0.00    +0.166 C 
BRANCH   3   2
ATOM      1  C   UNL     1      -0.326  -2.264  25.129  0.00  0.00    +0.174 C 
ATOM      2  O   UNL     1      -1.068  -2.592  25.280  0.00  0.00    -0.349 OA
ENDBRANCH   3   2
ENDBRANCH   4   3
ENDBRANCH   5   4
ENDBRANCH   8   6
ENDBRANCH  10   8
BRANCH  21  23
ATOM     23  C   UNL     1      -1.941   5.160  25.337  0.00  0.00    +0.161 C 
BRANCH  23  24
ATOM     24  N   UNL     1      -1.263   5.456  24.970  0.00  0.00    -0.263 NA
ATOM     25  C   UNL     1      -1.296   6.170  24.557  0.00  0.00    +0.090 C 
ATOM     26  C   UNL     1      -0.553   5.038  25.016  0.00  0.00    +0.090 C 
ENDBRANCH  23  24
ENDBRANCH  21  23
TORSDOF 7
ENDMDL
MODEL 9
REMARK VINA RESULT:      -6.5      2.813      4.979
REMARK  Name = 
REMARK  7 active torsions:
REMARK  status: ('A' for Active; 'I' for Inactive)
REMARK    1  A    between atoms: O_2  and  C_3
REMARK    2  A    between atoms: C_3  and  C_4
REMARK    3  A    between atoms: C_4  and  N_5
REMARK    4  A    between atoms: C_6  and  C_8
REMARK    5  A    between atoms: C_8  and  C_10
REMARK    6  A    between atoms: C_21  and  C_23
REMARK    7  A    between atoms: C_23  and  N_24
REMARK                            x       y       z     vdW  Elec       q    Type
REMARK                         _______ _______ _______ _____ _____    ______ ____
ROOT
ATOM     10  C   UNL     1      -0.759  -1.219  24.690  0.00  0.00    +0.039 C 
ATOM     11  C   UNL     1      -0.247  -1.197  24.045  0.00  0.00    +0.003 C 
ATOM     12  C   UNL     1       0.016  -0.472  23.751  0.00  0.00    +0.001 C 
ATOM     13  C   UNL     1      -0.234   0.231  24.103  0.00  0.00    +0.007 C 
ATOM     14  C   UNL     1       0.279   0.253  23.456  0.00  0.00    +0.000 C 
ATOM     15  C   UNL     1       0.029   0.956  23.809  0.00  0.00    +0.034 C 
ATOM     16  C   UNL     1      -0.221   1.659  24.162  0.00  0.00    +0.023 A 
ATOM     17  C   UNL     1      -0.733   1.637  24.807  0.00  0.00    +0.063 A 
ATOM     18  N   UNL     1      -0.884   2.415  25.039  0.00  0.00    -0.227 NA
ATOM     19  C   UNL     1      -0.466   2.917  24.536  0.00  0.00    +0.185 A 
ATOM     20  N   UNL     1      -0.458   3.741  24.570  0.00  0.00    -0.153 NA
ATOM     21  C   UNL     1      -0.898   4.134  25.146  0.00  0.00    +0.264 C 
ATOM     22  O   UNL     1      -1.346   3.703  25.689  0.00  0.00    -0.271 OA
ATOM     27  S   UNL     1      -0.056   2.450  23.994  0.00  0.00    -0.054 S 
ATOM     28  C   UNL     1      -0.996   0.913  25.101  0.00  0.00    +0.043 C 
ATOM     29  C   UNL     1      -1.508   0.891  25.748  0.00  0.00    +0.006 C 
ATOM     30  C   UNL     1      -0.746   0.209  24.749  0.00  0.00    +0.036 C 
ATOM     31  C   UNL     1      -1.009  -0.515  25.043  0.00  0.00    +0.153 C 
ATOM     32  O   UNL     1      -1.521  -0.537  25.689  0.00  0.00    -0.223 OA
ENDROOT
BRANCH  10   8
ATOM      8  C   UNL     1      -1.022  -1.943  24.985  0.00  0.00    +0.081 C 
ATOM      9  C   UNL     1      -0.739  -2.222  25.708  0.00  0.00    +0.010 C 
BRANCH   8   6
ATOM      5  N   UNL     1      -2.371  -2.344  24.738  0.00  0.00    -0.203 NA
ATOM      6  C   UNL     1      -1.568  -2.389  24.555  0.00  0.00    +0.241 C 
ATOM      7  O   UNL     1      -1.311  -2.878  23.944  0.00  0.00    -0.273 OA
BRANCH   5   4
ATOM      4  C   UNL     1      -2.917  -2.789  24.308  0.00  0.00    +0.147 C 
BRANCH   4   3
ATOM      3  C   UNL     1      -3.726  -2.687  24.438  0.00  0.00    +0.166 C 
BRANCH   3   2
ATOM      1  C   UNL     1      -4.591  -1.701  23.871  0.00  0.00    +0.174 C 
ATOM      2  O   UNL     1      -4.213  -2.433  23.823  0.00  0.00    -0.349 OA
ENDBRANCH   3   2
ENDBRANCH   4   3
ENDBRANCH   5   4
ENDBRANCH   8   6
ENDBRANCH  10   8
BRANCH  21  23
ATOM     23  C   UNL     1      -0.891   4.958  25.180  0.00  0.00    +0.161 C 
BRANCH  23  24
ATOM     24  N   UNL     1      -1.601   5.379  25.157  0.00  0.00    -0.263 NA
ATOM     25  C   UNL     1      -1.687   6.015  24.639  0.00  0.00    +0.090 C 
ATOM     26  C   UNL     1      -2.224   5.162  25.652  0.00  0.00    +0.090 C 
ENDBRANCH  23  24
ENDBRANCH  21  23
TORSDOF 7
ENDMDL
MODEL 10
REMARK VINA RESULT:      -6.5     14.998     16.922
REMARK  Name = 
REMARK  7 active torsions:
REMARK  status: ('A' for Active; 'I' for Inactive)
REMARK    1  A    between atoms: O_2  and  C_3
REMARK    2  A    between atoms: C_3  and  C_4
REMARK    3  A    between atoms: C_4  and  N_5
REMARK    4  A    between atoms: C_6  and  C_8
REMARK    5  A    between atoms: C_8  and  C_10
REMARK    6  A    between atoms: C_21  and  C_23
REMARK    7  A    between atoms: C_23  and  N_24
REMARK                            x       y       z     vdW  Elec       q    Type
REMARK                         _______ _______ _______ _____ _____    ______ ____
ROOT
ATOM     10  C   UNL     1      -5.788 -10.464  15.196  0.00  0.00    +0.039 C 
ATOM     11  C   UNL     1      -5.042 -10.721  15.433  0.00  0.00    +0.003 C 
ATOM     12  C   UNL     1      -4.423 -10.751  14.887  0.00  0.00    +0.001 C 
ATOM     13  C   UNL     1      -4.552 -10.523  14.105  0.00  0.00    +0.007 C 
ATOM     14  C   UNL     1      -3.805 -10.781  14.342  0.00  0.00    +0.000 C 
ATOM     15  C   UNL     1      -3.933 -10.552  13.560  0.00  0.00    +0.034 C 
ATOM     16  C   UNL     1      -4.063 -10.324  12.778  0.00  0.00    +0.023 A 
ATOM     17  C   UNL     1      -4.809 -10.066  12.541  0.00  0.00    +0.063 A 
ATOM     18  N   UNL     1      -4.770  -9.877  11.739  0.00  0.00    -0.227 NA
ATOM     19  C   UNL     1      -4.000 -10.018  11.479  0.00  0.00    +0.185 A 
ATOM     20  N   UNL     1      -3.718  -9.903  10.713  0.00  0.00    -0.153 NA
ATOM     21  C   UNL     1      -4.223  -9.623  10.125  0.00  0.00    +0.264 C 
ATOM     22  O   UNL     1      -5.011  -9.456  10.303  0.00  0.00    -0.271 OA
ATOM     27  S   UNL     1      -3.563 -10.294  12.122  0.00  0.00    -0.054 S 
ATOM     28  C   UNL     1      -5.427 -10.036  13.086  0.00  0.00    +0.043 C 
ATOM     29  C   UNL     1      -6.174  -9.778  12.849  0.00  0.00    +0.006 C 
ATOM     30  C   UNL     1      -5.298 -10.265  13.869  0.00  0.00    +0.036 C 
ATOM     31  C   UNL     1      -5.917 -10.235  14.413  0.00  0.00    +0.153 C 
ATOM     32  O   UNL     1      -6.664  -9.977  14.177  0.00  0.00    -0.223 OA
ENDROOT
BRANCH  10   8
ATOM      8  C   UNL     1      -6.407 -10.434  15.741  0.00  0.00    +0.081 C 
ATOM      9  C   UNL     1      -7.133 -10.781  15.561  0.00  0.00    +0.010 C 
BRANCH   8   6
ATOM      5  N   UNL     1      -6.370 -10.484  17.169  0.00  0.00    -0.203 NA
ATOM      6  C   UNL     1      -6.299 -10.056  16.467  0.00  0.00    +0.241 C 
ATOM      7  O   UNL     1      -6.119  -9.252  16.491  0.00  0.00    -0.273 OA
BRANCH   5   4
ATOM      4  C   UNL     1      -6.262 -10.106  17.895  0.00  0.00    +0.147 C 
BRANCH   4   3
ATOM      3  C   UNL     1      -6.373 -10.524  18.597  0.00  0.00    +0.166 C 
BRANCH   3   2
ATOM      1  C   UNL     1      -6.048 -10.684  19.980  0.00  0.00    +0.174 C 
ATOM      2  O   UNL     1      -5.844 -10.424  19.224  0.00  0.00    -0.349 OA
ENDBRANCH   3   2
ENDBRANCH   4   3
ENDBRANCH   5   4
ENDBRANCH   8   6
ENDBRANCH  10   8
BRANCH  21  23
ATOM     23  C   UNL     1      -3.940  -9.508   9.359  0.00  0.00    +0.161 C 
BRANCH  23  24
ATOM     24  N   UNL     1      -4.450  -9.586   8.714  0.00  0.00    -0.263 NA
ATOM     25  C   UNL     1      -4.890  -8.938   8.456  0.00  0.00    +0.090 C 
ATOM     26  C   UNL     1      -4.520 -10.312   8.330  0.00  0.00    +0.090 C 
ENDBRANCH  23  24
ENDBRANCH  21  23
TORSDOF 7
ENDMDL
