MODEL 1
REMARK VINA RESULT:     -10.4      0.000      0.000
REMARK  Name = 
REMARK  3 active torsions:
REMARK  status: ('A' for Active; 'I' for Inactive)
REMARK    1  A    between atoms: C_2  and  C_3
REMARK    2  A    between atoms: C_10  and  C_12
REMARK    3  A    between atoms: N_15  and  C_17
REMARK                            x       y       z     vdW  Elec       q    Type
REMARK                         _______ _______ _______ _____ _____    ______ ____
ROOT
ATOM      3  C   UNL     1      -3.619  -1.369  24.781  0.00  0.00    +0.070 A 
ATOM      4  C   UNL     1      -3.173  -0.751  25.097  0.00  0.00    +0.031 A 
ATOM      5  C   UNL     1      -3.324   0.026  24.866  0.00  0.00    +0.101 A 
ATOM      6  C   UNL     1      -3.921   0.186  24.319  0.00  0.00    +0.100 A 
ATOM      7  C   UNL     1      -4.367  -0.433  24.003  0.00  0.00    +0.021 A 
ATOM      8  C   UNL     1      -4.216  -1.210  24.235  0.00  0.00    +0.012 A 
ATOM      9  N   UNL     1      -3.943   1.001  24.196  0.00  0.00    -0.229 NA
ATOM     10  C   UNL     1      -3.361   1.346  24.667  0.00  0.00    +0.140 A 
ATOM     11  N   UNL     1      -2.978   0.743  25.080  0.00  0.00    -0.229 NA
ENDROOT
BRANCH  10  12
ATOM     12  C   UNL     1      -3.190   2.151  24.716  0.00  0.00    +0.076 C 
ATOM     13  C   UNL     1      -3.731   2.768  24.626  0.00  0.00    +0.026 C 
ATOM     14  C   UNL     1      -3.325   3.480  24.717  0.00  0.00    +0.073 C 
ATOM     15  N   UNL     1      -2.532   3.304  24.864  0.00  0.00    -0.274 NA
ATOM     16  C   UNL     1      -2.450   2.482  24.863  0.00  0.00    +0.080 C 
BRANCH  15  17
ATOM     17  C   UNL     1      -1.929   3.851  24.990  0.00  0.00    +0.058 C 
ATOM     18  C   UNL     1      -1.886   4.607  25.319  0.00  0.00    +0.016 C 
ATOM     19  C   UNL     1      -1.075   4.627  25.168  0.00  0.00    +0.003 C 
ATOM     20  C   UNL     1      -1.118   3.871  24.838  0.00  0.00    +0.016 C 
ENDBRANCH  15  17
ENDBRANCH  10  12
BRANCH   3   2
ATOM      1  N   UNL     1      -3.317  -2.924  25.243  0.00  0.00    -0.191 NA
ATOM      2  C   UNL     1      -3.468  -2.146  25.012  0.00  0.00    +0.100 C 
ENDBRANCH   3   2
TORSDOF 3
ENDMDL
MODEL 2
REMARK VINA RESULT:     -10.4      0.970      4.846
REMARK  Name = 
REMARK  3 active torsions:
REMARK  status: ('A' for Active; 'I' for Inactive)
REMARK    1  A    between atoms: C_2  and  C_3
REMARK    2  A    between atoms: C_10  and  C_12
REMARK    3  A    between atoms: N_15  and  C_17
REMARK                            x       y       z     vdW  Elec       q    Type
REMARK                         _______ _______ _______ _____ _____    ______ ____
ROOT
ATOM      3  C   UNL     1      -1.560   3.762  25.148  0.00  0.00    +0.070 A 
ATOM      4  C   UNL     1      -2.301   3.453  24.962  0.00  0.00    +0.031 A 
ATOM      5  C   UNL     1      -2.421   2.637  24.964  0.00  0.00    +0.101 A 
ATOM      6  C   UNL     1      -1.798   2.129  25.152  0.00  0.00    +0.100 A 
ATOM      7  C   UNL     1      -1.055   2.438  25.338  0.00  0.00    +0.021 A 
ATOM      8  C   UNL     1      -0.937   3.255  25.335  0.00  0.00    +0.012 A 
ATOM      9  N   UNL     1      -2.078   1.355  25.109  0.00  0.00    -0.229 NA
ATOM     10  C   UNL     1      -2.874   1.384  24.895  0.00  0.00    +0.140 A 
ATOM     11  N   UNL     1      -3.086   2.176  24.806  0.00  0.00    -0.229 NA
ENDROOT
BRANCH  10  12
ATOM     12  C   UNL     1      -3.372   0.734  24.789  0.00  0.00    +0.076 C 
ATOM     13  C   UNL     1      -4.196   0.750  24.788  0.00  0.00    +0.026 C 
ATOM     14  C   UNL     1      -4.467  -0.020  24.664  0.00  0.00    +0.073 C 
ATOM     15  N   UNL     1      -3.809  -0.512  24.588  0.00  0.00    -0.274 NA
ATOM     16  C   UNL     1      -3.132  -0.045  24.666  0.00  0.00    +0.080 C 
BRANCH  15  17
ATOM     17  C   UNL     1      -3.824  -1.326  24.458  0.00  0.00    +0.058 C 
ATOM     18  C   UNL     1      -3.506  -1.984  24.842  0.00  0.00    +0.016 C 
ATOM     19  C   UNL     1      -3.845  -2.478  24.275  0.00  0.00    +0.003 C 
ATOM     20  C   UNL     1      -4.163  -1.820  23.892  0.00  0.00    +0.016 C 
ENDBRANCH  15  17
ENDBRANCH  10  12
BRANCH   3   2
ATOM      1  N   UNL     1      -1.321   5.395  25.144  0.00  0.00    -0.191 NA
ATOM      2  C   UNL     1      -1.440   4.578  25.146  0.00  0.00    +0.100 C 
ENDBRANCH   3   2
TORSDOF 3
ENDMDL
MODEL 3
REMARK VINA RESULT:     -10.2      0.822      1.161
REMARK  Name = 
REMARK  3 active torsions:
REMARK  status: ('A' for Active; 'I' for Inactive)
REMARK    1  A    between atoms: C_2  and  C_3
REMARK    2  A    between atoms: C_10  and  C_12
REMARK    3  A    between atoms: N_15  and  C_17
REMARK                            x       y       z     vdW  Elec       q    Type
REMARK                         _______ _______ _______ _____ _____    ______ ____
ROOT
ATOM      3  C   UNL     1      -3.475  -1.350  24.578  0.00  0.00    +0.070 A 
ATOM      4  C   UNL     1      -2.785  -1.009  24.875  0.00  0.00    +0.031 A 
ATOM      5  C   UNL     1      -2.688  -0.190  24.857  0.00  0.00    +0.101 A 
ATOM      6  C   UNL     1      -3.282   0.289  24.543  0.00  0.00    +0.100 A 
ATOM      7  C   UNL     1      -3.973  -0.052  24.246  0.00  0.00    +0.021 A 
ATOM      8  C   UNL     1      -4.069  -0.871  24.264  0.00  0.00    +0.012 A 
ATOM      9  N   UNL     1      -3.034   1.073  24.599  0.00  0.00    -0.229 NA
ATOM     10  C   UNL     1      -2.287   1.080  24.948  0.00  0.00    +0.140 A 
ATOM     11  N   UNL     1      -2.074   0.299  25.107  0.00  0.00    -0.229 NA
ENDROOT
BRANCH  10  12
ATOM     12  C   UNL     1      -1.832   1.749  25.109  0.00  0.00    +0.076 C 
ATOM     13  C   UNL     1      -1.065   1.754  25.412  0.00  0.00    +0.026 C 
ATOM     14  C   UNL     1      -0.823   2.539  25.486  0.00  0.00    +0.073 C 
ATOM     15  N   UNL     1      -1.442   3.020  25.228  0.00  0.00    -0.274 NA
ATOM     16  C   UNL     1      -2.065   2.532  24.995  0.00  0.00    +0.080 C 
BRANCH  15  17
ATOM     17  C   UNL     1      -1.438   3.845  25.206  0.00  0.00    +0.058 C 
ATOM     18  C   UNL     1      -1.985   4.436  25.387  0.00  0.00    +0.016 C 
ATOM     19  C   UNL     1      -1.433   5.011  25.176  0.00  0.00    +0.003 C 
ATOM     20  C   UNL     1      -0.886   4.421  24.994  0.00  0.00    +0.016 C 
ENDBRANCH  15  17
ENDBRANCH  10  12
BRANCH   3   2
ATOM      1  N   UNL     1      -3.669  -2.988  24.614  0.00  0.00    -0.191 NA
ATOM      2  C   UNL     1      -3.572  -2.168  24.596  0.00  0.00    +0.100 C 
ENDBRANCH   3   2
TORSDOF 3
ENDMDL
MODEL 4
REMARK VINA RESULT:     -10.1      1.702      4.651
REMARK  Name = 
REMARK  3 active torsions:
REMARK  status: ('A' for Active; 'I' for Inactive)
REMARK    1  A    between atoms: C_2  and  C_3
REMARK    2  A    between atoms: C_10  and  C_12
REMARK    3  A    between atoms: N_15  and  C_17
REMARK                            x       y       z     vdW  Elec       q    Type
REMARK                         _______ _______ _______ _____ _____    ______ ____
ROOT
ATOM      3  C   UNL     1      -4.959   3.018  25.103  0.00  0.00    +0.070 A 
ATOM      4  C   UNL     1      -5.094   2.227  25.293  0.00  0.00    +0.031 A 
ATOM      5  C   UNL     1      -4.646   1.634  24.935  0.00  0.00    +0.101 A 
ATOM      6  C   UNL     1      -4.063   1.833  24.385  0.00  0.00    +0.100 A 
ATOM      7  C   UNL     1      -3.928   2.625  24.195  0.00  0.00    +0.021 A 
ATOM      8  C   UNL     1      -4.377   3.217  24.554  0.00  0.00    +0.012 A 
ATOM      9  N   UNL     1      -3.711   1.136  24.123  0.00  0.00    -0.229 NA
ATOM     10  C   UNL     1      -4.075   0.505  24.510  0.00  0.00    +0.140 A 
ATOM     11  N   UNL     1      -4.653   0.814  25.011  0.00  0.00    -0.229 NA
ENDROOT
BRANCH  10  12
ATOM     12  C   UNL     1      -3.894  -0.294  24.412  0.00  0.00    +0.076 C 
ATOM     13  C   UNL     1      -4.407  -0.877  24.135  0.00  0.00    +0.026 C 
ATOM     14  C   UNL     1      -3.998  -1.594  24.126  0.00  0.00    +0.073 C 
ATOM     15  N   UNL     1      -3.232  -1.454  24.398  0.00  0.00    -0.274 NA
ATOM     16  C   UNL     1      -3.168  -0.650  24.575  0.00  0.00    +0.080 C 
BRANCH  15  17
ATOM     17  C   UNL     1      -2.636  -2.017  24.480  0.00  0.00    +0.058 C 
ATOM     18  C   UNL     1      -1.817  -1.989  24.576  0.00  0.00    +0.016 C 
ATOM     19  C   UNL     1      -1.791  -2.814  24.595  0.00  0.00    +0.003 C 
ATOM     20  C   UNL     1      -2.610  -2.842  24.499  0.00  0.00    +0.016 C 
ENDBRANCH  15  17
ENDBRANCH  10  12
BRANCH   3   2
ATOM      1  N   UNL     1      -5.856   4.203  25.821  0.00  0.00    -0.191 NA
ATOM      2  C   UNL     1      -5.407   3.610  25.462  0.00  0.00    +0.100 C 
ENDBRANCH   3   2
TORSDOF 3
ENDMDL
