REMARK  Name = 
REMARK  6 active torsions:
REMARK  status: ('A' for Active; 'I' for Inactive)
REMARK    1  A    between atoms: C_1  and  N_2
REMARK    2  A    between atoms: C_1  and  C_23
REMARK    3  A    between atoms: N_2  and  C_3
REMARK    4  A    between atoms: C_7  and  N_11
REMARK    5  A    between atoms: C_14  and  C_18
REMARK    6  A    between atoms: C_26  and  C_29
REMARK                            x       y       z     vdW  Elec       q    Type
REMARK                         _______ _______ _______ _____ _____    ______ ____
ROOT
ATOM      3  C   UNL     1       1.270  -0.922   0.000  0.00  0.00    +0.132 C 
ATOM      4  C   UNL     1       0.785  -0.255   0.000  0.00  0.00    +0.162 C 
ATOM      5  O   UNL     1       1.270   0.412   0.000  0.00  0.00    -0.350 OA
ATOM      6  C   UNL     1       2.054   0.158   0.000  0.00  0.00    +0.166 C 
ATOM      7  C   UNL     1       2.839   0.412   0.000  0.00  0.00    +0.154 C 
ATOM      8  C   UNL     1       3.324  -0.255   0.000  0.00  0.00    +0.166 C 
ATOM      9  O   UNL     1       2.839  -0.922   0.000  0.00  0.00    -0.350 OA
ATOM     10  C   UNL     1       2.054  -0.667   0.000  0.00  0.00    +0.162 C 
ENDROOT
BRANCH   7  11
ATOM     11  N   UNL     1       3.094   1.197   0.000  0.00  0.00    -0.200 NA
ATOM     12  C   UNL     1       3.901   1.369   0.000  0.00  0.00    +0.237 A 
ATOM     13  N   UNL     1       4.156   2.153   0.000  0.00  0.00    -0.209 NA
ATOM     14  C   UNL     1       4.963   2.325   0.000  0.00  0.00    +0.120 A 
ATOM     15  C   UNL     1       5.515   1.712   0.000  0.00  0.00    +0.043 A 
ATOM     16  C   UNL     1       5.260   0.927   0.000  0.00  0.00    +0.104 A 
ATOM     17  N   UNL     1       4.453   0.756   0.000  0.00  0.00    -0.211 NA
BRANCH  14  18
ATOM     18  C   UNL     1       5.218   3.109   0.000  0.00  0.00    +0.163 A 
ATOM     19  C   UNL     1       4.733   3.777   0.000  0.00  0.00    +0.042 A 
ATOM     20  C   UNL     1       5.218   4.444   0.000  0.00  0.00    +0.044 A 
ATOM     21  C   UNL     1       6.002   4.189   0.000  0.00  0.00    +0.180 A 
ATOM     22  O   UNL     1       6.002   3.364   0.000  0.00  0.00    -0.449 OA
ENDBRANCH  14  18
ENDBRANCH   7  11
BRANCH   3   2
ATOM      2  N   UNL     1       1.015  -1.707   0.000  0.00  0.00    -0.210 NA
BRANCH   2   1
ATOM      1  C   UNL     1       1.567  -2.320   0.000  0.00  0.00    +0.115 C 
BRANCH   1  23
ATOM     23  C   UNL     1       1.312  -3.105   0.000  0.00  0.00    -0.005 A 
ATOM     24  C   UNL     1       1.864  -3.718   0.000  0.00  0.00    -0.003 A 
ATOM     25  C   UNL     1       1.609  -4.502   0.000  0.00  0.00    -0.000 A 
ATOM     26  C   UNL     1       0.802  -4.674   0.000  0.00  0.00    -0.000 A 
ATOM     27  C   UNL     1       0.250  -4.061   0.000  0.00  0.00    -0.000 A 
ATOM     28  C   UNL     1       0.505  -3.276   0.000  0.00  0.00    -0.003 A 
BRANCH  26  29
ATOM     29  C   UNL     1       0.547  -5.459   0.000  0.00  0.00    -0.000 A 
ATOM     30  C   UNL     1       1.099  -6.072   0.000  0.00  0.00    -0.000 A 
ATOM     31  C   UNL     1       0.844  -6.856   0.000  0.00  0.00    +0.000 A 
ATOM     32  C   UNL     1       0.037  -7.028   0.000  0.00  0.00    +0.000 A 
ATOM     33  C   UNL     1      -0.515  -6.415   0.000  0.00  0.00    +0.000 A 
ATOM     34  C   UNL     1      -0.260  -5.630   0.000  0.00  0.00    -0.000 A 
ENDBRANCH  26  29
ENDBRANCH   1  23
ENDBRANCH   2   1
ENDBRANCH   3   2
TORSDOF 6
