REMARK  Name = 
REMARK  7 active torsions:
REMARK  status: ('A' for Active; 'I' for Inactive)
REMARK    1  A    between atoms: O_2  and  C_3
REMARK    2  A    between atoms: C_6  and  C_9
REMARK    3  A    between atoms: C_14  and  C_15
REMARK    4  A    between atoms: C_15  and  C_16
REMARK    5  A    between atoms: C_19  and  C_20
REMARK    6  A    between atoms: C_20  and  C_21
REMARK    7  A    between atoms: C_21  and  N_22
REMARK                            x       y       z     vdW  Elec       q    Type
REMARK                         _______ _______ _______ _____ _____    ______ ____
ROOT
ATOM      9  C   UNL     1       2.858  -7.425   0.000  0.00  0.00    +0.249 C 
ATOM     10  O   UNL     1       2.143  -7.838   0.000  0.00  0.00    -0.270 OA
ATOM     11  N   UNL     1       3.572  -7.838   0.000  0.00  0.00    -0.276 N 
ATOM     12  C   UNL     1       4.287  -7.425   0.000  0.00  0.00    +0.094 C 
ATOM     13  C   UNL     1       5.001  -7.838   0.000  0.00  0.00    +0.022 C 
ATOM     14  C   UNL     1       5.001  -8.662   0.000  0.00  0.00    +0.015 C 
ATOM     19  C   UNL     1       4.287  -9.075   0.000  0.00  0.00    +0.022 C 
ATOM     28  C   UNL     1       3.572  -8.662   0.000  0.00  0.00    +0.094 C 
ENDROOT
BRANCH   9   6
ATOM      3  C   UNL     1       2.858  -4.950   0.000  0.00  0.00    +0.139 A 
ATOM      4  C   UNL     1       3.572  -5.362   0.000  0.00  0.00    +0.037 A 
ATOM      5  C   UNL     1       3.572  -6.188   0.000  0.00  0.00    +0.008 A 
ATOM      6  C   UNL     1       2.858  -6.600   0.000  0.00  0.00    +0.054 A 
ATOM      7  C   UNL     1       2.143  -6.188   0.000  0.00  0.00    +0.008 A 
ATOM      8  C   UNL     1       2.143  -5.362   0.000  0.00  0.00    +0.037 A 
BRANCH   3   2
ATOM      1  C   UNL     1       2.143  -3.712   0.000  0.00  0.00    +0.252 C 
ATOM      2  O   UNL     1       2.858  -4.125   0.000  0.00  0.00    -0.471 OA
ENDBRANCH   3   2
ENDBRANCH   9   6
BRANCH  14  15
ATOM     15  C   UNL     1       5.716  -9.075   0.000  0.00  0.00    +0.114 C 
BRANCH  15  16
ATOM     16  C   UNL     1       6.430  -8.662   0.000  0.00  0.00    +0.365 C 
ATOM     17  O   UNL     1       6.430  -7.838   0.000  0.00  0.00    -0.246 OA
ATOM     18  O   UNL     1       7.145  -9.075   0.000  0.00  0.00    -0.246 OA
ENDBRANCH  15  16
ENDBRANCH  14  15
BRANCH  19  20
ATOM     20  C   UNL     1       4.287  -9.900   0.000  0.00  0.00    +0.019 C 
BRANCH  20  21
ATOM     21  C   UNL     1       5.001 -10.312   0.000  0.00  0.00    +0.072 C 
BRANCH  21  22
ATOM     22  N   UNL     1       5.001 -11.137   0.000  0.00  0.00    -0.273 NA
ATOM     23  C   UNL     1       5.716 -11.550   0.000  0.00  0.00    +0.072 C 
ATOM     24  C   UNL     1       5.716 -12.375   0.000  0.00  0.00    +0.017 C 
ATOM     25  C   UNL     1       5.001 -12.787   0.000  0.00  0.00    +0.003 C 
ATOM     26  C   UNL     1       4.287 -12.375   0.000  0.00  0.00    +0.017 C 
ATOM     27  C   UNL     1       4.287 -11.550   0.000  0.00  0.00    +0.072 C 
ENDBRANCH  21  22
ENDBRANCH  20  21
ENDBRANCH  19  20
TORSDOF 7
