MODEL 1
REMARK VINA RESULT:     -13.6      0.000      0.000
REMARK  Name = 
REMARK  5 active torsions:
REMARK  status: ('A' for Active; 'I' for Inactive)
REMARK    1  A    between atoms: C_5  and  C_6
REMARK    2  A    between atoms: C_6  and  C_7
REMARK    3  A    between atoms: C_19  and  C_20
REMARK    4  A    between atoms: C_20  and  N_21
REMARK    5  A    between atoms: C_22  and  C_24
REMARK                            x       y       z     vdW  Elec       q    Type
REMARK                         _______ _______ _______ _____ _____    ______ ____
ROOT
ATOM      1  O   UNL     1      -5.588   2.720  25.128  0.00  0.00    -0.218 OA
ATOM      2  C   UNL     1      -4.942   2.208  25.104  0.00  0.00    +0.213 C 
ATOM      3  C   UNL     1      -4.964   1.408  24.907  0.00  0.00    +0.212 C 
ATOM      4  O   UNL     1      -5.636   0.978  24.698  0.00  0.00    -0.218 OA
ATOM      5  C   UNL     1      -4.195   1.112  24.954  0.00  0.00    +0.157 C 
ATOM     18  O   UNL     1      -3.697   1.730  25.181  0.00  0.00    -0.351 OA
ATOM     19  C   UNL     1      -4.159   2.408  25.274  0.00  0.00    +0.170 C 
ENDROOT
BRANCH   5   6
ATOM      6  C   UNL     1      -3.964   0.335  24.801  0.00  0.00    +0.118 C 
BRANCH   6   7
ATOM      7  C   UNL     1      -3.270   0.037  25.135  0.00  0.00    +0.232 C 
ATOM      8  O   UNL     1      -2.784   0.530  25.584  0.00  0.00    -0.274 OA
ATOM      9  N   UNL     1      -3.062  -0.753  25.019  0.00  0.00    -0.259 N 
ATOM     10  C   UNL     1      -2.390  -1.126  25.316  0.00  0.00    +0.103 C 
ATOM     11  C   UNL     1      -2.403  -1.913  25.067  0.00  0.00    +0.049 C 
ATOM     12  C   UNL     1      -3.083  -2.025  24.615  0.00  0.00    -0.007 A 
ATOM     13  C   UNL     1      -3.385  -2.687  24.227  0.00  0.00    -0.003 A 
ATOM     14  C   UNL     1      -4.094  -2.634  23.809  0.00  0.00    -0.000 A 
ATOM     15  C   UNL     1      -4.502  -1.917  23.780  0.00  0.00    +0.001 A 
ATOM     16  C   UNL     1      -4.201  -1.254  24.168  0.00  0.00    +0.015 A 
ATOM     17  C   UNL     1      -3.491  -1.308  24.586  0.00  0.00    +0.050 A 
ENDBRANCH   6   7
ENDBRANCH   5   6
BRANCH  19  20
ATOM     20  C   UNL     1      -3.886   3.153  25.496  0.00  0.00    +0.148 C 
BRANCH  20  21
ATOM     21  N   UNL     1      -3.148   3.416  25.238  0.00  0.00    -0.199 NA
ATOM     22  C   UNL     1      -2.757   4.017  25.648  0.00  0.00    +0.265 C 
ATOM     23  O   UNL     1      -3.104   4.355  26.315  0.00  0.00    -0.268 OA
BRANCH  22  24
ATOM     24  C   UNL     1      -2.019   4.280  25.389  0.00  0.00    +0.055 A 
ATOM     25  C   UNL     1      -1.384   3.754  25.350  0.00  0.00    +0.005 A 
ATOM     26  C   UNL     1      -0.646   4.017  25.092  0.00  0.00    +0.000 A 
ATOM     27  C   UNL     1      -0.543   4.805  24.872  0.00  0.00    +0.000 A 
ATOM     28  C   UNL     1      -1.177   5.331  24.912  0.00  0.00    +0.000 A 
ATOM     29  C   UNL     1      -1.916   5.068  25.170  0.00  0.00    +0.005 A 
ENDBRANCH  22  24
ENDBRANCH  20  21
ENDBRANCH  19  20
TORSDOF 5
ENDMDL
MODEL 2
REMARK VINA RESULT:     -13.3      1.815      2.907
REMARK  Name = 
REMARK  5 active torsions:
REMARK  status: ('A' for Active; 'I' for Inactive)
REMARK    1  A    between atoms: C_5  and  C_6
REMARK    2  A    between atoms: C_6  and  C_7
REMARK    3  A    between atoms: C_19  and  C_20
REMARK    4  A    between atoms: C_20  and  N_21
REMARK    5  A    between atoms: C_22  and  C_24
REMARK                            x       y       z     vdW  Elec       q    Type
REMARK                         _______ _______ _______ _____ _____    ______ ____
ROOT
ATOM      1  O   UNL     1       0.809   0.884  23.963  0.00  0.00    -0.218 OA
ATOM      2  C   UNL     1       0.042   0.718  24.217  0.00  0.00    +0.213 C 
ATOM      3  C   UNL     1      -0.404   0.056  24.010  0.00  0.00    +0.212 C 
ATOM      4  O   UNL     1      -0.162  -0.557  23.514  0.00  0.00    -0.218 OA
ATOM      5  C   UNL     1      -1.136   0.114  24.388  0.00  0.00    +0.157 C 
ATOM     18  O   UNL     1      -1.142   0.811  24.827  0.00  0.00    -0.351 OA
ATOM     19  C   UNL     1      -0.414   1.186  24.722  0.00  0.00    +0.170 C 
ENDROOT
BRANCH   5   6
ATOM      6  C   UNL     1      -1.753  -0.431  24.335  0.00  0.00    +0.118 C 
BRANCH   6   7
ATOM      7  C   UNL     1      -2.518  -0.173  24.165  0.00  0.00    +0.232 C 
ATOM      8  O   UNL     1      -2.656   0.620  23.985  0.00  0.00    -0.274 OA
ATOM      9  N   UNL     1      -3.146  -0.708  24.176  0.00  0.00    -0.259 N 
ATOM     10  C   UNL     1      -3.936  -0.531  24.019  0.00  0.00    +0.103 C 
ATOM     11  C   UNL     1      -4.373  -1.228  24.092  0.00  0.00    +0.049 C 
ATOM     12  C   UNL     1      -3.853  -1.834  24.294  0.00  0.00    -0.007 A 
ATOM     13  C   UNL     1      -3.970  -2.639  24.437  0.00  0.00    -0.003 A 
ATOM     14  C   UNL     1      -3.331  -3.121  24.632  0.00  0.00    -0.000 A 
ATOM     15  C   UNL     1      -2.573  -2.800  24.684  0.00  0.00    +0.001 A 
ATOM     16  C   UNL     1      -2.454  -1.996  24.541  0.00  0.00    +0.015 A 
ATOM     17  C   UNL     1      -3.095  -1.513  24.346  0.00  0.00    +0.050 A 
ENDBRANCH   6   7
ENDBRANCH   5   6
BRANCH  19  20
ATOM     20  C   UNL     1      -0.182   1.900  25.061  0.00  0.00    +0.148 C 
BRANCH  20  21
ATOM     21  N   UNL     1      -0.663   2.567  24.986  0.00  0.00    -0.199 NA
ATOM     22  C   UNL     1      -0.532   3.226  25.465  0.00  0.00    +0.265 C 
ATOM     23  O   UNL     1       0.079   3.218  26.020  0.00  0.00    -0.268 OA
BRANCH  22  24
ATOM     24  C   UNL     1      -1.012   3.892  25.390  0.00  0.00    +0.055 A 
ATOM     25  C   UNL     1      -1.775   3.889  25.705  0.00  0.00    +0.005 A 
ATOM     26  C   UNL     1      -2.256   4.555  25.629  0.00  0.00    +0.000 A 
ATOM     27  C   UNL     1      -1.973   5.225  25.240  0.00  0.00    +0.000 A 
ATOM     28  C   UNL     1      -1.211   5.229  24.926  0.00  0.00    +0.000 A 
ATOM     29  C   UNL     1      -0.730   4.562  25.001  0.00  0.00    +0.005 A 
ENDBRANCH  22  24
ENDBRANCH  20  21
ENDBRANCH  19  20
TORSDOF 5
ENDMDL
MODEL 3
REMARK VINA RESULT:     -13.1      1.017      5.243
REMARK  Name = 
REMARK  5 active torsions:
REMARK  status: ('A' for Active; 'I' for Inactive)
REMARK    1  A    between atoms: C_5  and  C_6
REMARK    2  A    between atoms: C_6  and  C_7
REMARK    3  A    between atoms: C_19  and  C_20
REMARK    4  A    between atoms: C_20  and  N_21
REMARK    5  A    between atoms: C_22  and  C_24
REMARK                            x       y       z     vdW  Elec       q    Type
REMARK                         _______ _______ _______ _____ _____    ______ ____
ROOT
ATOM      1  O   UNL     1      -5.531   1.355  24.665  0.00  0.00    -0.218 OA
ATOM      2  C   UNL     1      -4.723   1.517  24.715  0.00  0.00    +0.213 C 
ATOM      3  C   UNL     1      -4.354   2.220  24.492  0.00  0.00    +0.212 C 
ATOM      4  O   UNL     1      -4.727   2.885  24.179  0.00  0.00    -0.218 OA
ATOM      5  C   UNL     1      -3.546   2.140  24.637  0.00  0.00    +0.157 C 
ATOM     18  O   UNL     1      -3.415   1.389  24.950  0.00  0.00    -0.351 OA
ATOM     19  C   UNL     1      -4.143   1.003  24.999  0.00  0.00    +0.170 C 
ENDROOT
BRANCH   5   6
ATOM      6  C   UNL     1      -2.969   2.713  24.494  0.00  0.00    +0.118 C 
BRANCH   6   7
ATOM      7  C   UNL     1      -2.220   2.488  24.231  0.00  0.00    +0.232 C 
ATOM      8  O   UNL     1      -2.110   1.749  23.881  0.00  0.00    -0.274 OA
ATOM      9  N   UNL     1      -1.580   3.002  24.318  0.00  0.00    -0.259 N 
ATOM     10  C   UNL     1      -0.804   2.853  24.083  0.00  0.00    +0.103 C 
ATOM     11  C   UNL     1      -0.348   3.513  24.275  0.00  0.00    +0.049 C 
ATOM     12  C   UNL     1      -0.843   4.070  24.629  0.00  0.00    -0.007 A 
ATOM     13  C   UNL     1      -0.699   4.824  24.931  0.00  0.00    -0.003 A 
ATOM     14  C   UNL     1      -1.316   5.262  25.259  0.00  0.00    -0.000 A 
ATOM     15  C   UNL     1      -2.078   4.945  25.285  0.00  0.00    +0.001 A 
ATOM     16  C   UNL     1      -2.222   4.191  24.984  0.00  0.00    +0.015 A 
ATOM     17  C   UNL     1      -1.604   3.753  24.655  0.00  0.00    +0.050 A 
ENDBRANCH   6   7
ENDBRANCH   5   6
BRANCH  19  20
ATOM     20  C   UNL     1      -4.268   0.238  25.280  0.00  0.00    +0.148 C 
BRANCH  20  21
ATOM     21  N   UNL     1      -3.912  -0.404  24.904  0.00  0.00    -0.199 NA
ATOM     22  C   UNL     1      -3.749  -1.093  25.327  0.00  0.00    +0.265 C 
ATOM     23  O   UNL     1      -3.942  -1.140  26.128  0.00  0.00    -0.268 OA
BRANCH  22  24
ATOM     24  C   UNL     1      -3.394  -1.734  24.951  0.00  0.00    +0.055 A 
ATOM     25  C   UNL     1      -3.857  -2.284  24.546  0.00  0.00    +0.005 A 
ATOM     26  C   UNL     1      -3.502  -2.926  24.169  0.00  0.00    +0.000 A 
ATOM     27  C   UNL     1      -2.682  -3.018  24.197  0.00  0.00    +0.000 A 
ATOM     28  C   UNL     1      -2.218  -2.469  24.601  0.00  0.00    +0.000 A 
ATOM     29  C   UNL     1      -2.574  -1.826  24.978  0.00  0.00    +0.005 A 
ENDBRANCH  22  24
ENDBRANCH  20  21
ENDBRANCH  19  20
TORSDOF 5
ENDMDL
MODEL 4
REMARK VINA RESULT:     -12.8      1.951      5.647
REMARK  Name = 
REMARK  5 active torsions:
REMARK  status: ('A' for Active; 'I' for Inactive)
REMARK    1  A    between atoms: C_5  and  C_6
REMARK    2  A    between atoms: C_6  and  C_7
REMARK    3  A    between atoms: C_19  and  C_20
REMARK    4  A    between atoms: C_20  and  N_21
REMARK    5  A    between atoms: C_22  and  C_24
REMARK                            x       y       z     vdW  Elec       q    Type
REMARK                         _______ _______ _______ _____ _____    ______ ____
ROOT
ATOM      1  O   UNL     1       0.704   0.649  24.002  0.00  0.00    -0.218 OA
ATOM      2  C   UNL     1      -0.053   0.940  24.155  0.00  0.00    +0.213 C 
ATOM      3  C   UNL     1      -0.290   1.728  24.099  0.00  0.00    +0.212 C 
ATOM      4  O   UNL     1       0.188   2.364  23.881  0.00  0.00    -0.218 OA
ATOM      5  C   UNL     1      -1.089   1.769  24.300  0.00  0.00    +0.157 C 
ATOM     18  O   UNL     1      -1.346   1.006  24.480  0.00  0.00    -0.351 OA
ATOM     19  C   UNL     1      -0.706   0.493  24.390  0.00  0.00    +0.170 C 
ENDROOT
BRANCH   5   6
ATOM      6  C   UNL     1      -1.550   2.453  24.317  0.00  0.00    +0.118 C 
BRANCH   6   7
ATOM      7  C   UNL     1      -2.262   2.481  23.901  0.00  0.00    +0.232 C 
ATOM      8  O   UNL     1      -2.341   2.070  23.190  0.00  0.00    -0.274 OA
ATOM      9  N   UNL     1      -2.895   2.922  24.195  0.00  0.00    -0.259 N 
ATOM     10  C   UNL     1      -3.636   3.002  23.841  0.00  0.00    +0.103 C 
ATOM     11  C   UNL     1      -4.097   3.489  24.322  0.00  0.00    +0.049 C 
ATOM     12  C   UNL     1      -3.640   3.710  24.972  0.00  0.00    -0.007 A 
ATOM     13  C   UNL     1      -3.804   4.186  25.626  0.00  0.00    -0.003 A 
ATOM     14  C   UNL     1      -3.227   4.311  26.201  0.00  0.00    -0.000 A 
ATOM     15  C   UNL     1      -2.484   3.960  26.123  0.00  0.00    +0.001 A 
ATOM     16  C   UNL     1      -2.319   3.485  25.469  0.00  0.00    +0.015 A 
ATOM     17  C   UNL     1      -2.898   3.360  24.894  0.00  0.00    +0.050 A 
ENDBRANCH   6   7
ENDBRANCH   5   6
BRANCH  19  20
ATOM     20  C   UNL     1      -0.716  -0.322  24.514  0.00  0.00    +0.148 C 
BRANCH  20  21
ATOM     21  N   UNL     1      -1.433  -0.730  24.510  0.00  0.00    -0.199 NA
ATOM     22  C   UNL     1      -1.475  -1.494  24.818  0.00  0.00    +0.265 C 
ATOM     23  O   UNL     1      -0.799  -1.851  25.131  0.00  0.00    -0.268 OA
BRANCH  22  24
ATOM     24  C   UNL     1      -2.192  -1.903  24.814  0.00  0.00    +0.055 A 
ATOM     25  C   UNL     1      -2.792  -1.687  25.338  0.00  0.00    +0.005 A 
ATOM     26  C   UNL     1      -3.509  -2.096  25.334  0.00  0.00    +0.000 A 
ATOM     27  C   UNL     1      -3.625  -2.719  24.806  0.00  0.00    +0.000 A 
ATOM     28  C   UNL     1      -3.026  -2.934  24.283  0.00  0.00    +0.000 A 
ATOM     29  C   UNL     1      -2.308  -2.526  24.286  0.00  0.00    +0.005 A 
ENDBRANCH  22  24
ENDBRANCH  20  21
ENDBRANCH  19  20
TORSDOF 5
ENDMDL
MODEL 5
REMARK VINA RESULT:     -11.0     16.427     19.302
REMARK  Name = 
REMARK  5 active torsions:
REMARK  status: ('A' for Active; 'I' for Inactive)
REMARK    1  A    between atoms: C_5  and  C_6
REMARK    2  A    between atoms: C_6  and  C_7
REMARK    3  A    between atoms: C_19  and  C_20
REMARK    4  A    between atoms: C_20  and  N_21
REMARK    5  A    between atoms: C_22  and  C_24
REMARK                            x       y       z     vdW  Elec       q    Type
REMARK                         _______ _______ _______ _____ _____    ______ ____
ROOT
ATOM      1  O   UNL     1      12.373   7.500  17.274  0.00  0.00    -0.218 OA
ATOM      2  C   UNL     1      12.900   7.605  17.900  0.00  0.00    +0.213 C 
ATOM      3  C   UNL     1      13.719   7.508  17.865  0.00  0.00    +0.212 C 
ATOM      4  O   UNL     1      14.154   7.290  17.199  0.00  0.00    -0.218 OA
ATOM      5  C   UNL     1      14.026   7.668  18.614  0.00  0.00    +0.157 C 
ATOM     18  O   UNL     1      13.398   7.864  19.111  0.00  0.00    -0.351 OA
ATOM     19  C   UNL     1      12.702   7.824  18.670  0.00  0.00    +0.170 C 
ENDROOT
BRANCH   5   6
ATOM      6  C   UNL     1      14.823   7.638  18.828  0.00  0.00    +0.118 C 
BRANCH   6   7
ATOM      7  C   UNL     1      15.135   8.208  19.336  0.00  0.00    +0.232 C 
ATOM      8  O   UNL     1      14.768   8.943  19.408  0.00  0.00    -0.274 OA
ATOM      9  N   UNL     1      15.816   8.043  19.773  0.00  0.00    -0.259 N 
ATOM     10  C   UNL     1      16.190   8.556  20.300  0.00  0.00    +0.103 C 
ATOM     11  C   UNL     1      16.847   8.166  20.612  0.00  0.00    +0.049 C 
ATOM     12  C   UNL     1      16.879   7.413  20.278  0.00  0.00    -0.007 A 
ATOM     13  C   UNL     1      17.405   6.786  20.378  0.00  0.00    -0.003 A 
ATOM     14  C   UNL     1      17.295   6.084  19.960  0.00  0.00    -0.000 A 
ATOM     15  C   UNL     1      16.658   6.008  19.441  0.00  0.00    +0.001 A 
ATOM     16  C   UNL     1      16.131   6.634  19.341  0.00  0.00    +0.015 A 
ATOM     17  C   UNL     1      16.241   7.337  19.759  0.00  0.00    +0.050 A 
ENDBRANCH   6   7
ENDBRANCH   5   6
BRANCH  19  20
ATOM     20  C   UNL     1      11.941   7.978  18.950  0.00  0.00    +0.148 C 
BRANCH  20  21
ATOM     21  N   UNL     1      11.803   8.031  19.761  0.00  0.00    -0.199 NA
ATOM     22  C   UNL     1      11.049   8.215  20.040  0.00  0.00    +0.265 C 
ATOM     23  O   UNL     1      10.432   8.346  19.508  0.00  0.00    -0.268 OA
BRANCH  22  24
ATOM     24  C   UNL     1      10.911   8.268  20.852  0.00  0.00    +0.055 A 
ATOM     25  C   UNL     1      10.657   7.605  21.272  0.00  0.00    +0.005 A 
ATOM     26  C   UNL     1      10.519   7.658  22.083  0.00  0.00    +0.000 A 
ATOM     27  C   UNL     1      10.636   8.375  22.475  0.00  0.00    +0.000 A 
ATOM     28  C   UNL     1      10.890   9.038  22.056  0.00  0.00    +0.000 A 
ATOM     29  C   UNL     1      11.028   8.985  21.244  0.00  0.00    +0.005 A 
ENDBRANCH  22  24
ENDBRANCH  20  21
ENDBRANCH  19  20
TORSDOF 5
ENDMDL
MODEL 6
REMARK VINA RESULT:     -10.7     16.034     18.811
REMARK  Name = 
REMARK  5 active torsions:
REMARK  status: ('A' for Active; 'I' for Inactive)
REMARK    1  A    between atoms: C_5  and  C_6
REMARK    2  A    between atoms: C_6  and  C_7
REMARK    3  A    between atoms: C_19  and  C_20
REMARK    4  A    between atoms: C_20  and  N_21
REMARK    5  A    between atoms: C_22  and  C_24
REMARK                            x       y       z     vdW  Elec       q    Type
REMARK                         _______ _______ _______ _____ _____    ______ ____
ROOT
ATOM      1  O   UNL     1      13.697   7.463  17.240  0.00  0.00    -0.218 OA
ATOM      2  C   UNL     1      13.457   7.395  18.026  0.00  0.00    +0.213 C 
ATOM      3  C   UNL     1      12.694   7.520  18.313  0.00  0.00    +0.212 C 
ATOM      4  O   UNL     1      12.036   7.734  17.864  0.00  0.00    -0.218 OA
ATOM      5  C   UNL     1      12.704   7.392  19.128  0.00  0.00    +0.157 C 
ATOM     18  O   UNL     1      13.473   7.189  19.345  0.00  0.00    -0.351 OA
ATOM     19  C   UNL     1      13.939   7.190  18.664  0.00  0.00    +0.170 C 
ENDROOT
BRANCH   5   6
ATOM      6  C   UNL     1      12.057   7.457  19.637  0.00  0.00    +0.118 C 
BRANCH   6   7
ATOM      7  C   UNL     1      11.845   6.821  20.117  0.00  0.00    +0.232 C 
ATOM      8  O   UNL     1      12.049   6.052  19.898  0.00  0.00    -0.274 OA
ATOM      9  N   UNL     1      11.428   6.953  20.817  0.00  0.00    -0.259 N 
ATOM     10  C   UNL     1      11.179   6.375  21.350  0.00  0.00    +0.103 C 
ATOM     11  C   UNL     1      10.784   6.751  21.969  0.00  0.00    +0.049 C 
ATOM     12  C   UNL     1      10.789   7.562  21.818  0.00  0.00    -0.007 A 
ATOM     13  C   UNL     1      10.482   8.203  22.237  0.00  0.00    -0.003 A 
ATOM     14  C   UNL     1      10.573   8.969  21.945  0.00  0.00    -0.000 A 
ATOM     15  C   UNL     1      10.971   9.094  21.233  0.00  0.00    +0.001 A 
ATOM     16  C   UNL     1      11.278   8.453  20.813  0.00  0.00    +0.015 A 
ATOM     17  C   UNL     1      11.186   7.687  21.106  0.00  0.00    +0.050 A 
ENDBRANCH   6   7
ENDBRANCH   5   6
BRANCH  19  20
ATOM     20  C   UNL     1      14.744   7.018  18.627  0.00  0.00    +0.148 C 
BRANCH  20  21
ATOM     21  N   UNL     1      15.222   7.136  19.289  0.00  0.00    -0.199 NA
ATOM     22  C   UNL     1      15.973   6.796  19.323  0.00  0.00    +0.265 C 
ATOM     23  O   UNL     1      16.247   6.337  18.694  0.00  0.00    -0.268 OA
BRANCH  22  24
ATOM     24  C   UNL     1      16.450   6.914  19.985  0.00  0.00    +0.055 A 
ATOM     25  C   UNL     1      16.478   6.344  20.581  0.00  0.00    +0.005 A 
ATOM     26  C   UNL     1      16.956   6.463  21.243  0.00  0.00    +0.000 A 
ATOM     27  C   UNL     1      17.405   7.151  21.309  0.00  0.00    +0.000 A 
ATOM     28  C   UNL     1      17.378   7.721  20.714  0.00  0.00    +0.000 A 
ATOM     29  C   UNL     1      16.900   7.603  20.051  0.00  0.00    +0.005 A 
ENDBRANCH  22  24
ENDBRANCH  20  21
ENDBRANCH  19  20
TORSDOF 5
ENDMDL
MODEL 7
REMARK VINA RESULT:      -9.8     17.122     19.113
REMARK  Name = 
REMARK  5 active torsions:
REMARK  status: ('A' for Active; 'I' for Inactive)
REMARK    1  A    between atoms: C_5  and  C_6
REMARK    2  A    between atoms: C_6  and  C_7
REMARK    3  A    between atoms: C_19  and  C_20
REMARK    4  A    between atoms: C_20  and  N_21
REMARK    5  A    between atoms: C_22  and  C_24
REMARK                            x       y       z     vdW  Elec       q    Type
REMARK                         _______ _______ _______ _____ _____    ______ ____
ROOT
ATOM      1  O   UNL     1      11.306   6.934  20.726  0.00  0.00    -0.218 OA
ATOM      2  C   UNL     1      12.041   7.113  20.398  0.00  0.00    +0.213 C 
ATOM      3  C   UNL     1      12.770   6.828  20.657  0.00  0.00    +0.212 C 
ATOM      4  O   UNL     1      12.893   6.314  21.290  0.00  0.00    -0.218 OA
ATOM      5  C   UNL     1      13.356   7.148  20.171  0.00  0.00    +0.157 C 
ATOM     18  O   UNL     1      12.989   7.630  19.612  0.00  0.00    -0.351 OA
ATOM     19  C   UNL     1      12.175   7.609  19.752  0.00  0.00    +0.170 C 
ENDROOT
BRANCH   5   6
ATOM      6  C   UNL     1      14.167   7.009  20.234  0.00  0.00    +0.118 C 
BRANCH   6   7
ATOM      7  C   UNL     1      14.589   6.728  19.583  0.00  0.00    +0.232 C 
ATOM      8  O   UNL     1      14.191   6.527  18.889  0.00  0.00    -0.274 OA
ATOM      9  N   UNL     1      15.409   6.648  19.626  0.00  0.00    -0.259 N 
ATOM     10  C   UNL     1      15.902   6.375  19.023  0.00  0.00    +0.103 C 
ATOM     11  C   UNL     1      16.678   6.385  19.304  0.00  0.00    +0.049 C 
ATOM     12  C   UNL     1      16.664   6.664  20.080  0.00  0.00    -0.007 A 
ATOM     13  C   UNL     1      17.264   6.791  20.632  0.00  0.00    -0.003 A 
ATOM     14  C   UNL     1      17.081   7.080  21.382  0.00  0.00    -0.000 A 
ATOM     15  C   UNL     1      16.297   7.242  21.581  0.00  0.00    +0.001 A 
ATOM     16  C   UNL     1      15.696   7.115  21.030  0.00  0.00    +0.015 A 
ATOM     17  C   UNL     1      15.880   6.826  20.279  0.00  0.00    +0.050 A 
ENDBRANCH   6   7
ENDBRANCH   5   6
BRANCH  19  20
ATOM     20  C   UNL     1      11.599   8.013  19.322  0.00  0.00    +0.148 C 
BRANCH  20  21
ATOM     21  N   UNL     1      11.726   8.188  18.526  0.00  0.00    -0.199 NA
ATOM     22  C   UNL     1      11.129   8.545  18.082  0.00  0.00    +0.265 C 
ATOM     23  O   UNL     1      10.405   8.726  18.434  0.00  0.00    -0.268 OA
BRANCH  22  24
ATOM     24  C   UNL     1      11.256   8.721  17.286  0.00  0.00    +0.055 A 
ATOM     25  C   UNL     1      10.626   8.699  16.753  0.00  0.00    +0.005 A 
ATOM     26  C   UNL     1      10.753   8.875  15.957  0.00  0.00    +0.000 A 
ATOM     27  C   UNL     1      11.509   9.072  15.694  0.00  0.00    +0.000 A 
ATOM     28  C   UNL     1      12.139   9.094  16.226  0.00  0.00    +0.000 A 
ATOM     29  C   UNL     1      12.012   8.918  17.023  0.00  0.00    +0.005 A 
ENDBRANCH  22  24
ENDBRANCH  20  21
ENDBRANCH  19  20
TORSDOF 5
ENDMDL
