MODEL 1
REMARK VINA RESULT:      -7.4      0.000      0.000
REMARK  Name = 
REMARK  6 active torsions:
REMARK  status: ('A' for Active; 'I' for Inactive)
REMARK    1  A    between atoms: C_2  and  C_4
REMARK    2  A    between atoms: C_6  and  C_7
REMARK    3  A    between atoms: C_7  and  C_8
REMARK    4  A    between atoms: C_25  and  C_26
REMARK    5  A    between atoms: C_26  and  N_27
REMARK    6  A    between atoms: C_28  and  C_30
REMARK                            x       y       z     vdW  Elec       q    Type
REMARK                         _______ _______ _______ _____ _____    ______ ____
ROOT
ATOM      4  C   UNL     1      -1.597   0.025  24.606  0.00  0.00    +0.006 C 
ATOM      5  C   UNL     1      -0.848   0.170  24.292  0.00  0.00    +0.005 C 
ATOM      6  C   UNL     1      -0.721   0.831  23.816  0.00  0.00    +0.027 C 
ATOM     22  C   UNL     1      -1.342   1.348  23.654  0.00  0.00    -0.048 C 
ATOM     23  C   UNL     1      -1.215   2.010  23.178  0.00  0.00    +0.026 C 
ATOM     24  C   UNL     1      -2.092   1.204  23.969  0.00  0.00    -0.033 C 
ATOM     25  C   UNL     1      -2.219   0.543  24.444  0.00  0.00    +0.043 C 
ENDROOT
BRANCH   4   2
ATOM      1  C   UNL     1      -1.548  -0.604  25.888  0.00  0.00    +0.000 C 
ATOM      2  C   UNL     1      -1.724  -0.636  25.083  0.00  0.00    +0.000 C 
ATOM      3  C   UNL     1      -2.027  -1.329  24.754  0.00  0.00    +0.000 C 
ENDBRANCH   4   2
BRANCH   6   7
ATOM      7  C   UNL     1       0.029   0.975  23.502  0.00  0.00    +0.089 C 
BRANCH   7   8
ATOM      8  C   UNL     1       0.434   0.373  23.109  0.00  0.00    +0.226 C 
ATOM      9  O   UNL     1       0.014  -0.221  22.719  0.00  0.00    -0.275 OA
ATOM     10  N   UNL     1       1.259   0.366  23.106  0.00  0.00    -0.276 N 
ATOM     11  C   UNL     1       1.679   0.959  23.496  0.00  0.00    +0.115 C 
ATOM     12  C   UNL     1       2.503   0.952  23.493  0.00  0.00    +0.114 C 
ATOM     13  N   UNL     1       2.909   0.349  23.100  0.00  0.00    -0.290 N 
ATOM     14  C   UNL     1       2.490  -0.244  22.711  0.00  0.00    +0.114 C 
ATOM     15  C   UNL     1       1.665  -0.237  22.713  0.00  0.00    +0.115 C 
ATOM     16  C   UNL     1       3.734   0.342  23.098  0.00  0.00    +0.132 A 
ATOM     17  N   UNL     1       4.153   0.936  23.487  0.00  0.00    -0.229 NA
ATOM     18  C   UNL     1       4.979   0.928  23.485  0.00  0.00    +0.100 A 
ATOM     19  C   UNL     1       5.384   0.327  23.092  0.00  0.00    +0.021 A 
ATOM     20  C   UNL     1       4.965  -0.268  22.702  0.00  0.00    +0.004 A 
ATOM     21  C   UNL     1       4.140  -0.260  22.705  0.00  0.00    +0.034 A 
ENDBRANCH   7   8
ENDBRANCH   6   7
BRANCH  25  26
ATOM     26  C   UNL     1      -2.968   0.399  24.759  0.00  0.00    +0.120 C 
BRANCH  26  27
ATOM     27  N   UNL     1      -3.484   1.026  24.900  0.00  0.00    -0.200 NA
ATOM     28  C   UNL     1      -4.284   0.879  25.033  0.00  0.00    +0.284 C 
ATOM     29  O   UNL     1      -4.569   0.105  25.025  0.00  0.00    -0.267 OA
BRANCH  28  30
ATOM     30  C   UNL     1      -4.802   1.507  25.175  0.00  0.00    +0.155 A 
ATOM     31  C   UNL     1      -5.611   1.413  25.041  0.00  0.00    +0.123 A 
ATOM     32  N   UNL     1      -6.127   2.040  25.183  0.00  0.00    -0.239 NA
ATOM     33  C   UNL     1      -5.835   2.762  25.458  0.00  0.00    +0.120 A 
ATOM     34  C   UNL     1      -5.027   2.855  25.591  0.00  0.00    +0.120 A 
ATOM     35  N   UNL     1      -4.510   2.227  25.450  0.00  0.00    -0.236 NA
ENDBRANCH  28  30
ENDBRANCH  26  27
ENDBRANCH  25  26
TORSDOF 6
ENDMDL
MODEL 2
REMARK VINA RESULT:      -7.4      1.044      1.822
REMARK  Name = 
REMARK  6 active torsions:
REMARK  status: ('A' for Active; 'I' for Inactive)
REMARK    1  A    between atoms: C_2  and  C_4
REMARK    2  A    between atoms: C_6  and  C_7
REMARK    3  A    between atoms: C_7  and  C_8
REMARK    4  A    between atoms: C_25  and  C_26
REMARK    5  A    between atoms: C_26  and  N_27
REMARK    6  A    between atoms: C_28  and  C_30
REMARK                            x       y       z     vdW  Elec       q    Type
REMARK                         _______ _______ _______ _____ _____    ______ ____
ROOT
ATOM      4  C   UNL     1      -2.268   1.691  23.640  0.00  0.00    +0.006 C 
ATOM      5  C   UNL     1      -1.515   1.361  23.713  0.00  0.00    +0.005 C 
ATOM      6  C   UNL     1      -1.347   0.853  24.339  0.00  0.00    +0.027 C 
ATOM     22  C   UNL     1      -1.931   0.674  24.894  0.00  0.00    -0.048 C 
ATOM     23  C   UNL     1      -1.762   0.165  25.521  0.00  0.00    +0.026 C 
ATOM     24  C   UNL     1      -2.684   1.004  24.821  0.00  0.00    -0.033 C 
ATOM     25  C   UNL     1      -2.852   1.512  24.195  0.00  0.00    +0.043 C 
ENDROOT
BRANCH   4   2
ATOM      1  C   UNL     1      -2.307   3.011  23.094  0.00  0.00    +0.000 C 
ATOM      2  C   UNL     1      -2.436   2.200  23.012  0.00  0.00    +0.000 C 
ATOM      3  C   UNL     1      -2.733   1.898  22.305  0.00  0.00    +0.000 C 
ENDBRANCH   4   2
BRANCH   6   7
ATOM      7  C   UNL     1      -0.594   0.522  24.412  0.00  0.00    +0.089 C 
BRANCH   7   8
ATOM      8  C   UNL     1      -0.286   0.059  23.803  0.00  0.00    +0.226 C 
ATOM      9  O   UNL     1      -0.754  -0.522  23.450  0.00  0.00    -0.275 OA
ATOM     10  N   UNL     1       0.489   0.177  23.547  0.00  0.00    -0.276 N 
ATOM     11  C   UNL     1       0.957   0.758  23.900  0.00  0.00    +0.115 C 
ATOM     12  C   UNL     1       1.732   0.876  23.644  0.00  0.00    +0.114 C 
ATOM     13  N   UNL     1       2.040   0.412  23.034  0.00  0.00    -0.290 N 
ATOM     14  C   UNL     1       1.573  -0.169  22.682  0.00  0.00    +0.114 C 
ATOM     15  C   UNL     1       0.797  -0.287  22.937  0.00  0.00    +0.115 C 
ATOM     16  C   UNL     1       2.816   0.530  22.779  0.00  0.00    +0.132 A 
ATOM     17  N   UNL     1       3.283   1.111  23.131  0.00  0.00    -0.229 NA
ATOM     18  C   UNL     1       4.058   1.229  22.875  0.00  0.00    +0.100 A 
ATOM     19  C   UNL     1       4.366   0.766  22.266  0.00  0.00    +0.021 A 
ATOM     20  C   UNL     1       3.899   0.184  21.913  0.00  0.00    +0.004 A 
ATOM     21  C   UNL     1       3.124   0.067  22.169  0.00  0.00    +0.034 A 
ENDBRANCH   7   8
ENDBRANCH   6   7
BRANCH  25  26
ATOM     26  C   UNL     1      -3.604   1.842  24.122  0.00  0.00    +0.120 C 
BRANCH  26  27
ATOM     27  N   UNL     1      -4.111   1.865  24.773  0.00  0.00    -0.200 NA
ATOM     28  C   UNL     1      -4.880   2.150  24.687  0.00  0.00    +0.284 C 
ATOM     29  O   UNL     1      -5.143   2.413  23.951  0.00  0.00    -0.267 OA
BRANCH  28  30
ATOM     30  C   UNL     1      -5.387   2.172  25.339  0.00  0.00    +0.155 A 
ATOM     31  C   UNL     1      -5.396   2.835  25.830  0.00  0.00    +0.123 A 
ATOM     32  N   UNL     1      -5.903   2.858  26.481  0.00  0.00    -0.239 NA
ATOM     33  C   UNL     1      -6.399   2.217  26.641  0.00  0.00    +0.120 A 
ATOM     34  C   UNL     1      -6.389   1.556  26.148  0.00  0.00    +0.120 A 
ATOM     35  N   UNL     1      -5.882   1.533  25.497  0.00  0.00    -0.236 NA
ENDBRANCH  28  30
ENDBRANCH  26  27
ENDBRANCH  25  26
TORSDOF 6
ENDMDL
MODEL 3
REMARK VINA RESULT:      -6.6      1.278      7.036
REMARK  Name = 
REMARK  6 active torsions:
REMARK  status: ('A' for Active; 'I' for Inactive)
REMARK    1  A    between atoms: C_2  and  C_4
REMARK    2  A    between atoms: C_6  and  C_7
REMARK    3  A    between atoms: C_7  and  C_8
REMARK    4  A    between atoms: C_25  and  C_26
REMARK    5  A    between atoms: C_26  and  N_27
REMARK    6  A    between atoms: C_28  and  C_30
REMARK                            x       y       z     vdW  Elec       q    Type
REMARK                         _______ _______ _______ _____ _____    ______ ____
ROOT
ATOM      4  C   UNL     1      -0.223   0.180  23.816  0.00  0.00    +0.006 C 
ATOM      5  C   UNL     1      -0.838   0.670  24.065  0.00  0.00    +0.005 C 
ATOM      6  C   UNL     1      -0.725   1.485  24.105  0.00  0.00    +0.027 C 
ATOM     22  C   UNL     1       0.003   1.812  23.895  0.00  0.00    -0.048 C 
ATOM     23  C   UNL     1       0.116   2.629  23.935  0.00  0.00    +0.026 C 
ATOM     24  C   UNL     1       0.618   1.322  23.645  0.00  0.00    -0.033 C 
ATOM     25  C   UNL     1       0.505   0.507  23.606  0.00  0.00    +0.043 C 
ENDROOT
BRANCH   4   2
ATOM      1  C   UNL     1      -0.228  -1.101  24.450  0.00  0.00    +0.000 C 
ATOM      2  C   UNL     1      -0.336  -0.636  23.776  0.00  0.00    +0.000 C 
ATOM      3  C   UNL     1      -0.557  -0.988  23.063  0.00  0.00    +0.000 C 
ENDBRANCH   4   2
BRANCH   6   7
ATOM      7  C   UNL     1      -1.341   1.976  24.355  0.00  0.00    +0.089 C 
BRANCH   7   8
ATOM      8  C   UNL     1      -1.999   2.091  23.871  0.00  0.00    +0.226 C 
ATOM      9  O   UNL     1      -1.899   2.208  23.060  0.00  0.00    -0.275 OA
ATOM     10  N   UNL     1      -2.756   2.088  24.198  0.00  0.00    -0.276 N 
ATOM     11  C   UNL     1      -2.856   1.970  25.008  0.00  0.00    +0.115 C 
ATOM     12  C   UNL     1      -3.612   1.968  25.335  0.00  0.00    +0.114 C 
ATOM     13  N   UNL     1      -4.272   2.083  24.851  0.00  0.00    -0.290 N 
ATOM     14  C   UNL     1      -4.172   2.200  24.041  0.00  0.00    +0.114 C 
ATOM     15  C   UNL     1      -3.415   2.203  23.713  0.00  0.00    +0.115 C 
ATOM     16  C   UNL     1      -5.029   2.080  25.178  0.00  0.00    +0.132 A 
ATOM     17  N   UNL     1      -5.128   1.962  25.988  0.00  0.00    -0.229 NA
ATOM     18  C   UNL     1      -5.886   1.960  26.315  0.00  0.00    +0.100 A 
ATOM     19  C   UNL     1      -6.544   2.075  25.832  0.00  0.00    +0.021 A 
ATOM     20  C   UNL     1      -6.445   2.192  25.020  0.00  0.00    +0.004 A 
ATOM     21  C   UNL     1      -5.687   2.195  24.694  0.00  0.00    +0.034 A 
ENDBRANCH   7   8
ENDBRANCH   6   7
BRANCH  25  26
ATOM     26  C   UNL     1       1.120   0.016  23.356  0.00  0.00    +0.120 C 
BRANCH  26  27
ATOM     27  N   UNL     1       1.902   0.271  23.418  0.00  0.00    -0.200 NA
ATOM     28  C   UNL     1       2.473  -0.022  22.900  0.00  0.00    +0.284 C 
ATOM     29  O   UNL     1       2.262  -0.570  22.320  0.00  0.00    -0.267 OA
BRANCH  28  30
ATOM     30  C   UNL     1       3.256   0.232  22.962  0.00  0.00    +0.155 A 
ATOM     31  C   UNL     1       3.483   0.951  22.626  0.00  0.00    +0.123 A 
ATOM     32  N   UNL     1       4.266   1.205  22.688  0.00  0.00    -0.239 NA
ATOM     33  C   UNL     1       4.821   0.741  23.085  0.00  0.00    +0.120 A 
ATOM     34  C   UNL     1       4.592   0.023  23.420  0.00  0.00    +0.120 A 
ATOM     35  N   UNL     1       3.810  -0.231  23.359  0.00  0.00    -0.236 NA
ENDBRANCH  28  30
ENDBRANCH  26  27
ENDBRANCH  25  26
TORSDOF 6
ENDMDL
MODEL 4
REMARK VINA RESULT:      -6.1     15.852     18.154
REMARK  Name = 
REMARK  6 active torsions:
REMARK  status: ('A' for Active; 'I' for Inactive)
REMARK    1  A    between atoms: C_2  and  C_4
REMARK    2  A    between atoms: C_6  and  C_7
REMARK    3  A    between atoms: C_7  and  C_8
REMARK    4  A    between atoms: C_25  and  C_26
REMARK    5  A    between atoms: C_26  and  N_27
REMARK    6  A    between atoms: C_28  and  C_30
REMARK                            x       y       z     vdW  Elec       q    Type
REMARK                         _______ _______ _______ _____ _____    ______ ____
ROOT
ATOM      4  C   UNL     1      14.038  -6.267  30.604  0.00  0.00    +0.006 C 
ATOM      5  C   UNL     1      13.326  -6.596  30.858  0.00  0.00    +0.005 C 
ATOM      6  C   UNL     1      12.848  -6.184  31.388  0.00  0.00    +0.027 C 
ATOM     22  C   UNL     1      13.081  -5.443  31.665  0.00  0.00    -0.048 C 
ATOM     23  C   UNL     1      12.602  -5.031  32.196  0.00  0.00    +0.026 C 
ATOM     24  C   UNL     1      13.794  -5.113  31.410  0.00  0.00    -0.033 C 
ATOM     25  C   UNL     1      14.272  -5.525  30.880  0.00  0.00    +0.043 C 
ENDROOT
BRANCH   4   2
ATOM      1  C   UNL     1      14.384  -6.613  29.261  0.00  0.00    +0.000 C 
ATOM      2  C   UNL     1      14.517  -6.679  30.073  0.00  0.00    +0.000 C 
ATOM      3  C   UNL     1      15.127  -7.156  30.354  0.00  0.00    +0.000 C 
ENDBRANCH   4   2
BRANCH   6   7
ATOM      7  C   UNL     1      12.135  -6.514  31.643  0.00  0.00    +0.089 C 
BRANCH   7   8
ATOM      8  C   UNL     1      12.132  -7.242  32.031  0.00  0.00    +0.226 C 
ATOM      9  O   UNL     1      12.823  -7.523  32.384  0.00  0.00    -0.275 OA
ATOM     10  N   UNL     1      11.439  -7.687  32.066  0.00  0.00    -0.276 N 
ATOM     11  C   UNL     1      10.748  -7.406  31.713  0.00  0.00    +0.115 C 
ATOM     12  C   UNL     1      10.056  -7.852  31.749  0.00  0.00    +0.114 C 
ATOM     13  N   UNL     1      10.053  -8.580  32.137  0.00  0.00    -0.290 N 
ATOM     14  C   UNL     1      10.743  -8.862  32.490  0.00  0.00    +0.114 C 
ATOM     15  C   UNL     1      11.436  -8.416  32.455  0.00  0.00    +0.115 C 
ATOM     16  C   UNL     1       9.359  -9.026  32.172  0.00  0.00    +0.132 A 
ATOM     17  N   UNL     1       8.670  -8.745  31.820  0.00  0.00    -0.229 NA
ATOM     18  C   UNL     1       7.976  -9.191  31.854  0.00  0.00    +0.100 A 
ATOM     19  C   UNL     1       7.973  -9.919  32.243  0.00  0.00    +0.021 A 
ATOM     20  C   UNL     1       8.664 -10.201  32.596  0.00  0.00    +0.004 A 
ATOM     21  C   UNL     1       9.357  -9.754  32.561  0.00  0.00    +0.034 A 
ENDBRANCH   7   8
ENDBRANCH   6   7
BRANCH  25  26
ATOM     26  C   UNL     1      14.984  -5.196  30.626  0.00  0.00    +0.120 C 
BRANCH  26  27
ATOM     27  N   UNL     1      15.163  -4.411  30.803  0.00  0.00    -0.200 NA
ATOM     28  C   UNL     1      15.922  -4.119  30.663  0.00  0.00    +0.284 C 
ATOM     29  O   UNL     1      16.502  -4.613  30.345  0.00  0.00    -0.267 OA
BRANCH  28  30
ATOM     30  C   UNL     1      16.101  -3.333  30.841  0.00  0.00    +0.155 A 
ATOM     31  C   UNL     1      16.280  -2.804  30.234  0.00  0.00    +0.123 A 
ATOM     32  N   UNL     1      16.460  -2.018  30.412  0.00  0.00    -0.239 NA
ATOM     33  C   UNL     1      16.460  -1.762  31.197  0.00  0.00    +0.120 A 
ATOM     34  C   UNL     1      16.280  -2.292  31.803  0.00  0.00    +0.120 A 
ATOM     35  N   UNL     1      16.101  -3.078  31.625  0.00  0.00    -0.236 NA
ENDBRANCH  28  30
ENDBRANCH  26  27
ENDBRANCH  25  26
TORSDOF 6
ENDMDL
MODEL 5
REMARK VINA RESULT:      -5.5     17.746     19.130
REMARK  Name = 
REMARK  6 active torsions:
REMARK  status: ('A' for Active; 'I' for Inactive)
REMARK    1  A    between atoms: C_2  and  C_4
REMARK    2  A    between atoms: C_6  and  C_7
REMARK    3  A    between atoms: C_7  and  C_8
REMARK    4  A    between atoms: C_25  and  C_26
REMARK    5  A    between atoms: C_26  and  N_27
REMARK    6  A    between atoms: C_28  and  C_30
REMARK                            x       y       z     vdW  Elec       q    Type
REMARK                         _______ _______ _______ _____ _____    ______ ____
ROOT
ATOM      4  C   UNL     1      15.284  -5.680  30.243  0.00  0.00    +0.006 C 
ATOM      5  C   UNL     1      15.521  -6.197  29.646  0.00  0.00    +0.005 C 
ATOM      6  C   UNL     1      16.167  -6.010  29.170  0.00  0.00    +0.027 C 
ATOM     22  C   UNL     1      16.578  -5.305  29.290  0.00  0.00    -0.048 C 
ATOM     23  C   UNL     1      17.225  -5.118  28.814  0.00  0.00    +0.026 C 
ATOM     24  C   UNL     1      16.342  -4.787  29.888  0.00  0.00    -0.033 C 
ATOM     25  C   UNL     1      15.695  -4.974  30.364  0.00  0.00    +0.043 C 
ENDROOT
BRANCH   4   2
ATOM      1  C   UNL     1      13.886  -5.583  30.525  0.00  0.00    +0.000 C 
ATOM      2  C   UNL     1      14.637  -5.867  30.719  0.00  0.00    +0.000 C 
ATOM      3  C   UNL     1      14.740  -6.337  31.388  0.00  0.00    +0.000 C 
ENDBRANCH   4   2
BRANCH   6   7
ATOM      7  C   UNL     1      16.404  -6.528  28.572  0.00  0.00    +0.089 C 
BRANCH   7   8
ATOM      8  C   UNL     1      15.902  -6.679  27.935  0.00  0.00    +0.226 C 
ATOM      9  O   UNL     1      15.301  -6.146  27.748  0.00  0.00    -0.275 OA
ATOM     10  N   UNL     1      16.003  -7.362  27.484  0.00  0.00    -0.276 N 
ATOM     11  C   UNL     1      16.605  -7.895  27.670  0.00  0.00    +0.115 C 
ATOM     12  C   UNL     1      16.705  -8.578  27.220  0.00  0.00    +0.114 C 
ATOM     13  N   UNL     1      16.204  -8.729  26.581  0.00  0.00    -0.290 N 
ATOM     14  C   UNL     1      15.602  -8.197  26.395  0.00  0.00    +0.114 C 
ATOM     15  C   UNL     1      15.501  -7.513  26.846  0.00  0.00    +0.115 C 
ATOM     16  C   UNL     1      16.305  -9.413  26.131  0.00  0.00    +0.132 A 
ATOM     17  N   UNL     1      16.906  -9.946  26.317  0.00  0.00    -0.229 NA
ATOM     18  C   UNL     1      17.007 -10.629  25.866  0.00  0.00    +0.100 A 
ATOM     19  C   UNL     1      16.506 -10.780  25.229  0.00  0.00    +0.021 A 
ATOM     20  C   UNL     1      15.904 -10.247  25.042  0.00  0.00    +0.004 A 
ATOM     21  C   UNL     1      15.804  -9.564  25.493  0.00  0.00    +0.034 A 
ENDBRANCH   7   8
ENDBRANCH   6   7
BRANCH  25  26
ATOM     26  C   UNL     1      15.458  -4.457  30.961  0.00  0.00    +0.120 C 
BRANCH  26  27
ATOM     27  N   UNL     1      15.921  -3.798  31.144  0.00  0.00    -0.200 NA
ATOM     28  C   UNL     1      15.630  -3.220  31.655  0.00  0.00    +0.284 C 
ATOM     29  O   UNL     1      14.877  -3.299  31.983  0.00  0.00    -0.267 OA
BRANCH  28  30
ATOM     30  C   UNL     1      16.093  -2.561  31.838  0.00  0.00    +0.155 A 
ATOM     31  C   UNL     1      16.463  -2.510  32.574  0.00  0.00    +0.123 A 
ATOM     32  N   UNL     1      16.925  -1.852  32.757  0.00  0.00    -0.239 NA
ATOM     33  C   UNL     1      17.017  -1.244  32.205  0.00  0.00    +0.120 A 
ATOM     34  C   UNL     1      16.646  -1.297  31.471  0.00  0.00    +0.120 A 
ATOM     35  N   UNL     1      16.184  -1.955  31.287  0.00  0.00    -0.236 NA
ENDBRANCH  28  30
ENDBRANCH  26  27
ENDBRANCH  25  26
TORSDOF 6
ENDMDL
MODEL 6
REMARK VINA RESULT:      -5.3     14.445     18.417
REMARK  Name = 
REMARK  6 active torsions:
REMARK  status: ('A' for Active; 'I' for Inactive)
REMARK    1  A    between atoms: C_2  and  C_4
REMARK    2  A    between atoms: C_6  and  C_7
REMARK    3  A    between atoms: C_7  and  C_8
REMARK    4  A    between atoms: C_25  and  C_26
REMARK    5  A    between atoms: C_26  and  N_27
REMARK    6  A    between atoms: C_28  and  C_30
REMARK                            x       y       z     vdW  Elec       q    Type
REMARK                         _______ _______ _______ _____ _____    ______ ____
ROOT
ATOM      4  C   UNL     1      12.834  -7.247  30.886  0.00  0.00    +0.006 C 
ATOM      5  C   UNL     1      12.095  -7.494  31.157  0.00  0.00    +0.005 C 
ATOM      6  C   UNL     1      11.996  -8.258  31.447  0.00  0.00    +0.027 C 
ATOM     22  C   UNL     1      12.635  -8.779  31.468  0.00  0.00    -0.048 C 
ATOM     23  C   UNL     1      12.536  -9.544  31.759  0.00  0.00    +0.026 C 
ATOM     24  C   UNL     1      13.376  -8.532  31.197  0.00  0.00    -0.033 C 
ATOM     25  C   UNL     1      13.475  -7.768  30.907  0.00  0.00    +0.043 C 
ENDROOT
BRANCH   4   2
ATOM      1  C   UNL     1      12.786  -6.321  29.799  0.00  0.00    +0.000 C 
ATOM      2  C   UNL     1      12.934  -6.482  30.595  0.00  0.00    +0.000 C 
ATOM      3  C   UNL     1      13.180  -5.878  31.099  0.00  0.00    +0.000 C 
ENDBRANCH   4   2
BRANCH   6   7
ATOM      7  C   UNL     1      11.255  -8.504  31.718  0.00  0.00    +0.089 C 
BRANCH   7   8
ATOM      8  C   UNL     1      10.853  -8.058  32.283  0.00  0.00    +0.226 C 
ATOM      9  O   UNL     1      11.277  -7.625  32.844  0.00  0.00    -0.275 OA
ATOM     10  N   UNL     1      10.029  -8.045  32.288  0.00  0.00    -0.276 N 
ATOM     11  C   UNL     1       9.605  -8.478  31.727  0.00  0.00    +0.115 C 
ATOM     12  C   UNL     1       8.781  -8.464  31.732  0.00  0.00    +0.114 C 
ATOM     13  N   UNL     1       8.379  -8.017  32.298  0.00  0.00    -0.290 N 
ATOM     14  C   UNL     1       8.802  -7.585  32.858  0.00  0.00    +0.114 C 
ATOM     15  C   UNL     1       9.627  -7.598  32.854  0.00  0.00    +0.115 C 
ATOM     16  C   UNL     1       7.554  -8.004  32.303  0.00  0.00    +0.132 A 
ATOM     17  N   UNL     1       7.131  -8.437  31.743  0.00  0.00    -0.229 NA
ATOM     18  C   UNL     1       6.306  -8.424  31.747  0.00  0.00    +0.100 A 
ATOM     19  C   UNL     1       5.904  -7.978  32.312  0.00  0.00    +0.021 A 
ATOM     20  C   UNL     1       6.327  -7.544  32.873  0.00  0.00    +0.004 A 
ATOM     21  C   UNL     1       7.152  -7.558  32.868  0.00  0.00    +0.034 A 
ENDBRANCH   7   8
ENDBRANCH   6   7
BRANCH  25  26
ATOM     26  C   UNL     1      14.214  -7.522  30.636  0.00  0.00    +0.120 C 
BRANCH  26  27
ATOM     27  N   UNL     1      14.791  -8.080  30.446  0.00  0.00    -0.200 NA
ATOM     28  C   UNL     1      15.567  -7.838  30.304  0.00  0.00    +0.284 C 
ATOM     29  O   UNL     1      15.766  -7.039  30.353  0.00  0.00    -0.267 OA
BRANCH  28  30
ATOM     30  C   UNL     1      16.145  -8.397  30.114  0.00  0.00    +0.155 A 
ATOM     31  C   UNL     1      16.226  -8.656  29.334  0.00  0.00    +0.123 A 
ATOM     32  N   UNL     1      16.803  -9.214  29.144  0.00  0.00    -0.239 NA
ATOM     33  C   UNL     1      17.299  -9.513  29.733  0.00  0.00    +0.120 A 
ATOM     34  C   UNL     1      17.216  -9.254  30.512  0.00  0.00    +0.120 A 
ATOM     35  N   UNL     1      16.639  -8.696  30.702  0.00  0.00    -0.236 NA
ENDBRANCH  28  30
ENDBRANCH  26  27
ENDBRANCH  25  26
TORSDOF 6
ENDMDL
MODEL 7
REMARK VINA RESULT:      -4.8     16.949     19.039
REMARK  Name = 
REMARK  6 active torsions:
REMARK  status: ('A' for Active; 'I' for Inactive)
REMARK    1  A    between atoms: C_2  and  C_4
REMARK    2  A    between atoms: C_6  and  C_7
REMARK    3  A    between atoms: C_7  and  C_8
REMARK    4  A    between atoms: C_25  and  C_26
REMARK    5  A    between atoms: C_26  and  N_27
REMARK    6  A    between atoms: C_28  and  C_30
REMARK                            x       y       z     vdW  Elec       q    Type
REMARK                         _______ _______ _______ _____ _____    ______ ____
ROOT
ATOM      4  C   UNL     1      15.864  -7.227  26.878  0.00  0.00    +0.006 C 
ATOM      5  C   UNL     1      15.565  -7.289  27.644  0.00  0.00    +0.005 C 
ATOM      6  C   UNL     1      15.780  -6.736  28.216  0.00  0.00    +0.027 C 
ATOM     22  C   UNL     1      16.294  -6.121  28.024  0.00  0.00    -0.048 C 
ATOM     23  C   UNL     1      16.509  -5.568  28.597  0.00  0.00    +0.026 C 
ATOM     24  C   UNL     1      16.594  -6.059  27.257  0.00  0.00    -0.033 C 
ATOM     25  C   UNL     1      16.379  -6.611  26.684  0.00  0.00    +0.043 C 
ENDROOT
BRANCH   4   2
ATOM      1  C   UNL     1      16.157  -8.403  26.121  0.00  0.00    +0.000 C 
ATOM      2  C   UNL     1      15.648  -7.780  26.304  0.00  0.00    +0.000 C 
ATOM      3  C   UNL     1      14.925  -7.710  25.915  0.00  0.00    +0.000 C 
ENDBRANCH   4   2
BRANCH   6   7
ATOM      7  C   UNL     1      15.480  -6.798  28.983  0.00  0.00    +0.089 C 
BRANCH   7   8
ATOM      8  C   UNL     1      15.318  -7.541  29.304  0.00  0.00    +0.226 C 
ATOM      9  O   UNL     1      15.853  -8.161  29.199  0.00  0.00    -0.275 OA
ATOM     10  N   UNL     1      14.623  -7.663  29.730  0.00  0.00    -0.276 N 
ATOM     11  C   UNL     1      14.088  -7.044  29.835  0.00  0.00    +0.115 C 
ATOM     12  C   UNL     1      13.393  -7.166  30.260  0.00  0.00    +0.114 C 
ATOM     13  N   UNL     1      13.231  -7.909  30.582  0.00  0.00    -0.290 N 
ATOM     14  C   UNL     1      13.765  -8.529  30.477  0.00  0.00    +0.114 C 
ATOM     15  C   UNL     1      14.461  -8.407  30.051  0.00  0.00    +0.115 C 
ATOM     16  C   UNL     1      12.535  -8.031  31.007  0.00  0.00    +0.132 A 
ATOM     17  N   UNL     1      12.001  -7.412  31.112  0.00  0.00    -0.229 NA
ATOM     18  C   UNL     1      11.305  -7.534  31.538  0.00  0.00    +0.100 A 
ATOM     19  C   UNL     1      11.143  -8.277  31.859  0.00  0.00    +0.021 A 
ATOM     20  C   UNL     1      11.677  -8.897  31.754  0.00  0.00    +0.004 A 
ATOM     21  C   UNL     1      12.373  -8.774  31.328  0.00  0.00    +0.034 A 
ENDBRANCH   7   8
ENDBRANCH   6   7
BRANCH  25  26
ATOM     26  C   UNL     1      16.678  -6.549  25.918  0.00  0.00    +0.120 C 
BRANCH  26  27
ATOM     27  N   UNL     1      16.766  -5.808  25.567  0.00  0.00    -0.200 NA
ATOM     28  C   UNL     1      17.129  -5.741  24.831  0.00  0.00    +0.284 C 
ATOM     29  O   UNL     1      17.405  -6.415  24.443  0.00  0.00    -0.267 OA
BRANCH  28  30
ATOM     30  C   UNL     1      17.217  -4.999  24.479  0.00  0.00    +0.155 A 
ATOM     31  C   UNL     1      17.224  -4.930  23.657  0.00  0.00    +0.123 A 
ATOM     32  N   UNL     1      17.312  -4.188  23.307  0.00  0.00    -0.239 NA
ATOM     33  C   UNL     1      17.393  -3.516  23.778  0.00  0.00    +0.120 A 
ATOM     34  C   UNL     1      17.386  -3.586  24.600  0.00  0.00    +0.120 A 
ATOM     35  N   UNL     1      17.298  -4.327  24.951  0.00  0.00    -0.236 NA
ENDBRANCH  28  30
ENDBRANCH  26  27
ENDBRANCH  25  26
TORSDOF 6
ENDMDL
MODEL 8
REMARK VINA RESULT:      -4.3     15.081     18.415
REMARK  Name = 
REMARK  6 active torsions:
REMARK  status: ('A' for Active; 'I' for Inactive)
REMARK    1  A    between atoms: C_2  and  C_4
REMARK    2  A    between atoms: C_6  and  C_7
REMARK    3  A    between atoms: C_7  and  C_8
REMARK    4  A    between atoms: C_25  and  C_26
REMARK    5  A    between atoms: C_26  and  N_27
REMARK    6  A    between atoms: C_28  and  C_30
REMARK                            x       y       z     vdW  Elec       q    Type
REMARK                         _______ _______ _______ _____ _____    ______ ____
ROOT
ATOM      4  C   UNL     1      13.287  -8.888  30.561  0.00  0.00    +0.006 C 
ATOM      5  C   UNL     1      12.593  -8.754  30.986  0.00  0.00    +0.005 C 
ATOM      6  C   UNL     1      12.382  -7.988  31.202  0.00  0.00    +0.027 C 
ATOM     22  C   UNL     1      12.866  -7.352  30.994  0.00  0.00    -0.048 C 
ATOM     23  C   UNL     1      12.655  -6.585  31.211  0.00  0.00    +0.026 C 
ATOM     24  C   UNL     1      13.561  -7.485  30.569  0.00  0.00    -0.033 C 
ATOM     25  C   UNL     1      13.771  -8.252  30.352  0.00  0.00    +0.043 C 
ENDROOT
BRANCH   4   2
ATOM      1  C   UNL     1      13.185  -9.990  29.657  0.00  0.00    +0.000 C 
ATOM      2  C   UNL     1      13.497  -9.655  30.344  0.00  0.00    +0.000 C 
ATOM      3  C   UNL     1      14.019 -10.088  30.813  0.00  0.00    +0.000 C 
ENDBRANCH   4   2
BRANCH   6   7
ATOM      7  C   UNL     1      11.687  -7.855  31.628  0.00  0.00    +0.089 C 
BRANCH   7   8
ATOM      8  C   UNL     1      11.396  -8.437  32.134  0.00  0.00    +0.226 C 
ATOM      9  O   UNL     1      11.916  -8.883  32.593  0.00  0.00    -0.275 OA
ATOM     10  N   UNL     1      10.584  -8.574  32.180  0.00  0.00    -0.276 N 
ATOM     11  C   UNL     1      10.063  -8.128  31.721  0.00  0.00    +0.115 C 
ATOM     12  C   UNL     1       9.251  -8.264  31.767  0.00  0.00    +0.114 C 
ATOM     13  N   UNL     1       8.959  -8.848  32.274  0.00  0.00    -0.290 N 
ATOM     14  C   UNL     1       9.479  -9.293  32.733  0.00  0.00    +0.114 C 
ATOM     15  C   UNL     1      10.292  -9.157  32.687  0.00  0.00    +0.115 C 
ATOM     16  C   UNL     1       8.146  -8.984  32.320  0.00  0.00    +0.132 A 
ATOM     17  N   UNL     1       7.626  -8.538  31.861  0.00  0.00    -0.229 NA
ATOM     18  C   UNL     1       6.814  -8.674  31.907  0.00  0.00    +0.100 A 
ATOM     19  C   UNL     1       6.522  -9.257  32.413  0.00  0.00    +0.021 A 
ATOM     20  C   UNL     1       7.042  -9.703  32.873  0.00  0.00    +0.004 A 
ATOM     21  C   UNL     1       7.854  -9.566  32.826  0.00  0.00    +0.034 A 
ENDBRANCH   7   8
ENDBRANCH   6   7
BRANCH  25  26
ATOM     26  C   UNL     1      14.465  -8.386  29.927  0.00  0.00    +0.120 C 
BRANCH  26  27
ATOM     27  N   UNL     1      14.816  -7.769  29.505  0.00  0.00    -0.200 NA
ATOM     28  C   UNL     1      15.555  -7.878  29.156  0.00  0.00    +0.284 C 
ATOM     29  O   UNL     1      15.944  -8.602  29.228  0.00  0.00    -0.267 OA
BRANCH  28  30
ATOM     30  C   UNL     1      15.906  -7.261  28.734  0.00  0.00    +0.155 A 
ATOM     31  C   UNL     1      15.785  -7.197  27.920  0.00  0.00    +0.123 A 
ATOM     32  N   UNL     1      16.136  -6.581  27.499  0.00  0.00    -0.239 NA
ATOM     33  C   UNL     1      16.609  -6.028  27.891  0.00  0.00    +0.120 A 
ATOM     34  C   UNL     1      16.729  -6.094  28.704  0.00  0.00    +0.120 A 
ATOM     35  N   UNL     1      16.378  -6.710  29.126  0.00  0.00    -0.236 NA
ENDBRANCH  28  30
ENDBRANCH  26  27
ENDBRANCH  25  26
TORSDOF 6
ENDMDL
