MODEL 1
REMARK VINA RESULT:      -8.6      0.000      0.000
REMARK  Name = 
REMARK  8 active torsions:
REMARK  status: ('A' for Active; 'I' for Inactive)
REMARK    1  A    between atoms: C_4  and  C_26
REMARK    2  A    between atoms: C_6  and  C_8
REMARK    3  A    between atoms: C_15  and  C_16
REMARK    4  A    between atoms: C_16  and  N_17
REMARK    5  A    between atoms: C_18  and  C_20
REMARK    6  A    between atoms: C_20  and  S_21
REMARK    7  A    between atoms: S_21  and  C_22
REMARK    8  A    between atoms: C_22  and  C_23
REMARK                            x       y       z     vdW  Elec       q    Type
REMARK                         _______ _______ _______ _____ _____    ______ ____
ROOT
ATOM      8  C   UNL     1      -0.477  -0.497  24.203  0.00  0.00    +0.056 C 
ATOM      9  C   UNL     1      -0.017  -1.071  23.947  0.00  0.00    +0.078 C 
ATOM     10  N   UNL     1       0.065  -0.267  23.777  0.00  0.00    -0.272 NA
ATOM     11  C   UNL     1      -0.710   0.235  24.272  0.00  0.00    +0.072 C 
ATOM     12  C   UNL     1      -1.022   0.789  24.424  0.00  0.00    +0.018 C 
ATOM     13  C   UNL     1      -0.389   0.289  24.032  0.00  0.00    +0.010 C 
ATOM     14  C   UNL     1       0.198   0.723  23.545  0.00  0.00    +0.018 C 
ATOM     15  C   UNL     1       0.673   0.191  23.273  0.00  0.00    +0.079 C 
ENDROOT
BRANCH   8   6
ATOM      1  C   UNL     1      -1.622  -0.722  26.812  0.00  0.00    +0.074 C 
ATOM      2  C   UNL     1      -1.680  -0.821  25.995  0.00  0.00    +0.139 A 
ATOM      3  N   UNL     1      -2.370  -1.131  25.667  0.00  0.00    -0.230 NA
ATOM      4  C   UNL     1      -2.429  -1.230  24.850  0.00  0.00    +0.090 A 
ATOM      5  C   UNL     1      -1.798  -1.019  24.362  0.00  0.00    +0.034 A 
ATOM      6  C   UNL     1      -1.108  -0.709  24.692  0.00  0.00    +0.063 A 
ATOM      7  N   UNL     1      -1.049  -0.609  25.508  0.00  0.00    -0.235 NA
BRANCH   4  26
ATOM     26  C   UNL     1      -3.119  -1.541  24.520  0.00  0.00    +0.047 A 
ATOM     27  C   UNL     1      -3.759  -1.105  24.235  0.00  0.00    +0.009 A 
ATOM     28  C   UNL     1      -4.325  -1.636  23.957  0.00  0.00    +0.008 A 
ATOM     29  C   UNL     1      -4.035  -2.400  24.070  0.00  0.00    +0.035 A 
ATOM     30  S   UNL     1      -3.290  -2.341  24.418  0.00  0.00    -0.085 S 
ENDBRANCH   4  26
ENDBRANCH   8   6
BRANCH  15  16
ATOM     16  C   UNL     1       1.341   0.090  22.801  0.00  0.00    +0.131 C 
BRANCH  16  17
ATOM     17  N   UNL     1       2.054   0.446  23.012  0.00  0.00    -0.203 NA
ATOM     18  C   UNL     1       2.712   0.375  22.520  0.00  0.00    +0.252 C 
ATOM     19  O   UNL     1       2.658  -0.053  21.817  0.00  0.00    -0.272 OA
BRANCH  18  20
ATOM     20  C   UNL     1       3.425   0.731  22.732  0.00  0.00    +0.145 C 
BRANCH  20  21
ATOM     21  S   UNL     1       4.071   0.266  22.950  0.00  0.00    -0.119 S 
BRANCH  21  22
ATOM     22  C   UNL     1       4.769   0.623  23.207  0.00  0.00    +0.172 C 
BRANCH  22  23
ATOM     23  C   UNL     1       5.372   0.164  23.533  0.00  0.00    +0.376 C 
ATOM     24  O   UNL     1       5.939  -0.180  23.043  0.00  0.00    -0.245 OA
ATOM     25  O   UNL     1       5.407   0.049  24.349  0.00  0.00    -0.245 OA
ENDBRANCH  22  23
ENDBRANCH  21  22
ENDBRANCH  20  21
ENDBRANCH  18  20
ENDBRANCH  16  17
ENDBRANCH  15  16
TORSDOF 8
ENDMDL
MODEL 2
REMARK VINA RESULT:      -8.6      3.629      5.353
REMARK  Name = 
REMARK  8 active torsions:
REMARK  status: ('A' for Active; 'I' for Inactive)
REMARK    1  A    between atoms: C_4  and  C_26
REMARK    2  A    between atoms: C_6  and  C_8
REMARK    3  A    between atoms: C_15  and  C_16
REMARK    4  A    between atoms: C_16  and  N_17
REMARK    5  A    between atoms: C_18  and  C_20
REMARK    6  A    between atoms: C_20  and  S_21
REMARK    7  A    between atoms: S_21  and  C_22
REMARK    8  A    between atoms: C_22  and  C_23
REMARK                            x       y       z     vdW  Elec       q    Type
REMARK                         _______ _______ _______ _____ _____    ______ ____
ROOT
ATOM      8  C   UNL     1      -1.426   2.260  24.959  0.00  0.00    +0.056 C 
ATOM      9  C   UNL     1      -1.606   1.832  24.334  0.00  0.00    +0.078 C 
ATOM     10  N   UNL     1      -1.072   1.626  24.929  0.00  0.00    -0.272 NA
ATOM     11  C   UNL     1      -1.058   2.413  25.621  0.00  0.00    +0.072 C 
ATOM     12  C   UNL     1      -0.834   2.681  26.173  0.00  0.00    +0.018 C 
ATOM     13  C   UNL     1      -0.901   2.050  25.539  0.00  0.00    +0.010 C 
ATOM     14  C   UNL     1      -0.402   1.336  25.650  0.00  0.00    +0.018 C 
ATOM     15  C   UNL     1      -0.551   0.886  25.052  0.00  0.00    +0.079 C 
ENDROOT
BRANCH   8   6
ATOM      1  C   UNL     1      -1.302   5.115  25.016  0.00  0.00    +0.074 C 
ATOM      2  C   UNL     1      -1.740   4.417  25.066  0.00  0.00    +0.139 A 
ATOM      3  N   UNL     1      -2.554   4.451  25.196  0.00  0.00    -0.230 NA
ATOM      4  C   UNL     1      -2.992   3.754  25.247  0.00  0.00    +0.090 A 
ATOM      5  C   UNL     1      -2.616   3.024  25.168  0.00  0.00    +0.034 A 
ATOM      6  C   UNL     1      -1.802   2.991  25.038  0.00  0.00    +0.063 A 
ATOM      7  N   UNL     1      -1.364   3.688  24.987  0.00  0.00    -0.235 NA
BRANCH   4  26
ATOM     26  C   UNL     1      -3.807   3.786  25.377  0.00  0.00    +0.047 A 
ATOM     27  C   UNL     1      -4.179   3.827  26.112  0.00  0.00    +0.009 A 
ATOM     28  C   UNL     1      -4.993   3.850  25.984  0.00  0.00    +0.008 A 
ATOM     29  C   UNL     1      -5.124   3.823  25.170  0.00  0.00    +0.035 A 
ATOM     30  S   UNL     1      -4.391   3.783  24.795  0.00  0.00    -0.085 S 
ENDBRANCH   4  26
ENDBRANCH   8   6
BRANCH  15  16
ATOM     16  C   UNL     1      -0.356   0.160  24.715  0.00  0.00    +0.131 C 
BRANCH  16  17
ATOM     17  N   UNL     1      -0.775  -0.519  24.926  0.00  0.00    -0.203 NA
ATOM     18  C   UNL     1      -0.682  -1.212  24.489  0.00  0.00    +0.252 C 
ATOM     19  O   UNL     1      -0.172  -1.227  23.841  0.00  0.00    -0.272 OA
BRANCH  18  20
ATOM     20  C   UNL     1      -1.101  -1.892  24.700  0.00  0.00    +0.145 C 
BRANCH  20  21
ATOM     21  S   UNL     1      -1.894  -1.971  24.485  0.00  0.00    -0.119 S 
BRANCH  21  22
ATOM     22  C   UNL     1      -2.308  -2.657  24.682  0.00  0.00    +0.172 C 
BRANCH  22  23
ATOM     23  C   UNL     1      -3.132  -2.658  24.677  0.00  0.00    +0.376 C 
ATOM     24  O   UNL     1      -3.550  -2.582  25.384  0.00  0.00    -0.245 OA
ATOM     25  O   UNL     1      -3.539  -2.734  23.963  0.00  0.00    -0.245 OA
ENDBRANCH  22  23
ENDBRANCH  21  22
ENDBRANCH  20  21
ENDBRANCH  18  20
ENDBRANCH  16  17
ENDBRANCH  15  16
TORSDOF 8
ENDMDL
MODEL 3
REMARK VINA RESULT:      -8.5      2.010      2.644
REMARK  Name = 
REMARK  8 active torsions:
REMARK  status: ('A' for Active; 'I' for Inactive)
REMARK    1  A    between atoms: C_4  and  C_26
REMARK    2  A    between atoms: C_6  and  C_8
REMARK    3  A    between atoms: C_15  and  C_16
REMARK    4  A    between atoms: C_16  and  N_17
REMARK    5  A    between atoms: C_18  and  C_20
REMARK    6  A    between atoms: C_20  and  S_21
REMARK    7  A    between atoms: S_21  and  C_22
REMARK    8  A    between atoms: C_22  and  C_23
REMARK                            x       y       z     vdW  Elec       q    Type
REMARK                         _______ _______ _______ _____ _____    ______ ____
ROOT
ATOM      8  C   UNL     1      -1.530   0.605  24.064  0.00  0.00    +0.056 C 
ATOM      9  C   UNL     1      -1.383   0.712  23.307  0.00  0.00    +0.078 C 
ATOM     10  N   UNL     1      -0.858   0.411  23.869  0.00  0.00    -0.272 NA
ATOM     11  C   UNL     1      -1.362   0.395  24.788  0.00  0.00    +0.072 C 
ATOM     12  C   UNL     1      -1.373   0.265  25.428  0.00  0.00    +0.018 C 
ATOM     13  C   UNL     1      -1.010   0.309  24.609  0.00  0.00    +0.010 C 
ATOM     14  C   UNL     1      -0.179   0.034  24.540  0.00  0.00    +0.018 C 
ATOM     15  C   UNL     1       0.006   0.123  23.804  0.00  0.00    +0.079 C 
ENDROOT
BRANCH   8   6
ATOM      1  C   UNL     1      -4.138  -0.159  24.950  0.00  0.00    +0.074 C 
ATOM      2  C   UNL     1      -3.586   0.429  24.777  0.00  0.00    +0.139 A 
ATOM      3  N   UNL     1      -3.786   1.223  24.876  0.00  0.00    -0.230 NA
ATOM      4  C   UNL     1      -3.234   1.812  24.704  0.00  0.00    +0.090 A 
ATOM      5  C   UNL     1      -2.483   1.606  24.433  0.00  0.00    +0.034 A 
ATOM      6  C   UNL     1      -2.283   0.811  24.335  0.00  0.00    +0.063 A 
ATOM      7  N   UNL     1      -2.834   0.223  24.507  0.00  0.00    -0.235 NA
BRANCH   4  26
ATOM     26  C   UNL     1      -3.434   2.607  24.802  0.00  0.00    +0.047 A 
ATOM     27  C   UNL     1      -3.295   3.061  25.476  0.00  0.00    +0.009 A 
ATOM     28  C   UNL     1      -3.582   3.821  25.334  0.00  0.00    +0.008 A 
ATOM     29  C   UNL     1      -3.899   3.836  24.572  0.00  0.00    +0.035 A 
ATOM     30  S   UNL     1      -3.807   3.085  24.244  0.00  0.00    -0.085 S 
ENDBRANCH   4  26
ENDBRANCH   8   6
BRANCH  15  16
ATOM     16  C   UNL     1       0.623   0.020  23.268  0.00  0.00    +0.131 C 
BRANCH  16  17
ATOM     17  N   UNL     1       1.321   0.453  23.352  0.00  0.00    -0.203 NA
ATOM     18  C   UNL     1       1.952   0.321  22.839  0.00  0.00    +0.252 C 
ATOM     19  O   UNL     1       1.888  -0.245  22.241  0.00  0.00    -0.272 OA
BRANCH  18  20
ATOM     20  C   UNL     1       2.649   0.754  22.923  0.00  0.00    +0.145 C 
BRANCH  20  21
ATOM     21  S   UNL     1       3.380   0.378  22.850  0.00  0.00    -0.119 S 
BRANCH  21  22
ATOM     22  C   UNL     1       4.074   0.824  22.839  0.00  0.00    +0.172 C 
BRANCH  22  23
ATOM     23  C   UNL     1       4.768   0.515  23.160  0.00  0.00    +0.376 C 
ATOM     24  O   UNL     1       5.214  -0.031  22.731  0.00  0.00    -0.245 OA
ATOM     25  O   UNL     1       5.017   0.753  23.909  0.00  0.00    -0.245 OA
ENDBRANCH  22  23
ENDBRANCH  21  22
ENDBRANCH  20  21
ENDBRANCH  18  20
ENDBRANCH  16  17
ENDBRANCH  15  16
TORSDOF 8
ENDMDL
MODEL 4
REMARK VINA RESULT:      -8.5      2.727      3.356
REMARK  Name = 
REMARK  8 active torsions:
REMARK  status: ('A' for Active; 'I' for Inactive)
REMARK    1  A    between atoms: C_4  and  C_26
REMARK    2  A    between atoms: C_6  and  C_8
REMARK    3  A    between atoms: C_15  and  C_16
REMARK    4  A    between atoms: C_16  and  N_17
REMARK    5  A    between atoms: C_18  and  C_20
REMARK    6  A    between atoms: C_20  and  S_21
REMARK    7  A    between atoms: S_21  and  C_22
REMARK    8  A    between atoms: C_22  and  C_23
REMARK                            x       y       z     vdW  Elec       q    Type
REMARK                         _______ _______ _______ _____ _____    ______ ____
ROOT
ATOM      8  C   UNL     1      -1.576   2.145  24.318  0.00  0.00    +0.056 C 
ATOM      9  C   UNL     1      -1.567   2.035  23.548  0.00  0.00    +0.078 C 
ATOM     10  N   UNL     1      -1.094   1.646  24.101  0.00  0.00    -0.272 NA
ATOM     11  C   UNL     1      -1.350   2.021  25.046  0.00  0.00    +0.072 C 
ATOM     12  C   UNL     1      -1.271   2.029  25.695  0.00  0.00    +0.018 C 
ATOM     13  C   UNL     1      -1.108   1.759  24.855  0.00  0.00    +0.010 C 
ATOM     14  C   UNL     1      -0.490   1.144  24.761  0.00  0.00    +0.018 C 
ATOM     15  C   UNL     1      -0.450   1.006  24.011  0.00  0.00    +0.079 C 
ENDROOT
BRANCH   8   6
ATOM      1  C   UNL     1      -2.110   4.765  25.327  0.00  0.00    +0.074 C 
ATOM      2  C   UNL     1      -2.374   4.012  25.118  0.00  0.00    +0.139 A 
ATOM      3  N   UNL     1      -3.171   3.817  25.205  0.00  0.00    -0.230 NA
ATOM      4  C   UNL     1      -3.437   3.064  24.997  0.00  0.00    +0.090 A 
ATOM      5  C   UNL     1      -2.905   2.507  24.701  0.00  0.00    +0.034 A 
ATOM      6  C   UNL     1      -2.108   2.703  24.614  0.00  0.00    +0.063 A 
ATOM      7  N   UNL     1      -1.843   3.455  24.823  0.00  0.00    -0.235 NA
BRANCH   4  26
ATOM     26  C   UNL     1      -4.233   2.868  25.084  0.00  0.00    +0.047 A 
ATOM     27  C   UNL     1      -4.685   2.429  24.551  0.00  0.00    +0.009 A 
ATOM     28  C   UNL     1      -5.449   2.366  24.856  0.00  0.00    +0.008 A 
ATOM     29  C   UNL     1      -5.469   2.767  25.577  0.00  0.00    +0.035 A 
ATOM     30  S   UNL     1      -4.718   3.077  25.717  0.00  0.00    -0.085 S 
ENDBRANCH   4  26
ENDBRANCH   8   6
BRANCH  15  16
ATOM     16  C   UNL     1      -0.056   0.548  23.450  0.00  0.00    +0.131 C 
BRANCH  16  17
ATOM     17  N   UNL     1       0.738   0.352  23.560  0.00  0.00    -0.203 NA
ATOM     18  C   UNL     1       1.160  -0.014  22.953  0.00  0.00    +0.252 C 
ATOM     19  O   UNL     1       0.789  -0.185  22.237  0.00  0.00    -0.272 OA
BRANCH  18  20
ATOM     20  C   UNL     1       1.954  -0.210  23.064  0.00  0.00    +0.145 C 
BRANCH  20  21
ATOM     21  S   UNL     1       2.545   0.249  22.714  0.00  0.00    -0.119 S 
BRANCH  21  22
ATOM     22  C   UNL     1       3.339   0.054  22.826  0.00  0.00    +0.172 C 
BRANCH  22  23
ATOM     23  C   UNL     1       3.925   0.617  22.689  0.00  0.00    +0.376 C 
ATOM     24  O   UNL     1       4.365   0.917  23.319  0.00  0.00    -0.245 OA
ATOM     25  O   UNL     1       4.072   0.881  21.921  0.00  0.00    -0.245 OA
ENDBRANCH  22  23
ENDBRANCH  21  22
ENDBRANCH  20  21
ENDBRANCH  18  20
ENDBRANCH  16  17
ENDBRANCH  15  16
TORSDOF 8
ENDMDL
MODEL 5
REMARK VINA RESULT:      -8.4      3.942      5.319
REMARK  Name = 
REMARK  8 active torsions:
REMARK  status: ('A' for Active; 'I' for Inactive)
REMARK    1  A    between atoms: C_4  and  C_26
REMARK    2  A    between atoms: C_6  and  C_8
REMARK    3  A    between atoms: C_15  and  C_16
REMARK    4  A    between atoms: C_16  and  N_17
REMARK    5  A    between atoms: C_18  and  C_20
REMARK    6  A    between atoms: C_20  and  S_21
REMARK    7  A    between atoms: S_21  and  C_22
REMARK    8  A    between atoms: C_22  and  C_23
REMARK                            x       y       z     vdW  Elec       q    Type
REMARK                         _______ _______ _______ _____ _____    ______ ____
ROOT
ATOM      8  C   UNL     1      -3.813   0.250  24.387  0.00  0.00    +0.056 C 
ATOM      9  C   UNL     1      -3.502   0.739  23.868  0.00  0.00    +0.078 C 
ATOM     10  N   UNL     1      -4.032   0.938  24.469  0.00  0.00    -0.272 NA
ATOM     11  C   UNL     1      -4.256   0.055  24.988  0.00  0.00    +0.072 C 
ATOM     12  C   UNL     1      -4.572  -0.259  25.466  0.00  0.00    +0.018 C 
ATOM     13  C   UNL     1      -4.332   0.452  24.974  0.00  0.00    +0.010 C 
ATOM     14  C   UNL     1      -4.690   1.219  25.204  0.00  0.00    +0.018 C 
ATOM     15  C   UNL     1      -4.408   1.732  24.714  0.00  0.00    +0.079 C 
ENDROOT
BRANCH   8   6
ATOM      1  C   UNL     1      -4.447  -2.454  23.711  0.00  0.00    +0.074 C 
ATOM      2  C   UNL     1      -3.911  -1.896  23.996  0.00  0.00    +0.139 A 
ATOM      3  N   UNL     1      -3.156  -2.132  24.230  0.00  0.00    -0.230 NA
ATOM      4  C   UNL     1      -2.619  -1.574  24.515  0.00  0.00    +0.090 A 
ATOM      5  C   UNL     1      -2.838  -0.781  24.567  0.00  0.00    +0.034 A 
ATOM      6  C   UNL     1      -3.594  -0.545  24.334  0.00  0.00    +0.063 A 
ATOM      7  N   UNL     1      -4.130  -1.102  24.049  0.00  0.00    -0.235 NA
BRANCH   4  26
ATOM     26  C   UNL     1      -1.863  -1.810  24.749  0.00  0.00    +0.047 A 
ATOM     27  C   UNL     1      -1.346  -1.377  25.223  0.00  0.00    +0.009 A 
ATOM     28  C   UNL     1      -0.656  -1.818  25.316  0.00  0.00    +0.008 A 
ATOM     29  C   UNL     1      -0.747  -2.525  24.899  0.00  0.00    +0.035 A 
ATOM     30  S   UNL     1      -1.493  -2.519  24.549  0.00  0.00    -0.085 S 
ENDBRANCH   4  26
ENDBRANCH   8   6
BRANCH  15  16
ATOM     16  C   UNL     1      -4.430   2.533  24.521  0.00  0.00    +0.131 C 
BRANCH  16  17
ATOM     17  N   UNL     1      -3.941   3.068  24.917  0.00  0.00    -0.203 NA
ATOM     18  C   UNL     1      -3.766   3.797  24.575  0.00  0.00    +0.252 C 
ATOM     19  O   UNL     1      -4.078   3.993  23.837  0.00  0.00    -0.272 OA
BRANCH  18  20
ATOM     20  C   UNL     1      -3.278   4.331  24.971  0.00  0.00    +0.145 C 
BRANCH  20  21
ATOM     21  S   UNL     1      -2.463   4.321  24.841  0.00  0.00    -0.119 S 
BRANCH  21  22
ATOM     22  C   UNL     1      -1.964   4.782  25.310  0.00  0.00    +0.172 C 
BRANCH  22  23
ATOM     23  C   UNL     1      -1.159   4.823  25.139  0.00  0.00    +0.376 C 
ATOM     24  O   UNL     1      -0.681   4.157  25.234  0.00  0.00    -0.245 OA
ATOM     25  O   UNL     1      -0.830   5.532  24.873  0.00  0.00    -0.245 OA
ENDBRANCH  22  23
ENDBRANCH  21  22
ENDBRANCH  20  21
ENDBRANCH  18  20
ENDBRANCH  16  17
ENDBRANCH  15  16
TORSDOF 8
ENDMDL
MODEL 6
REMARK VINA RESULT:      -8.1      3.863      6.030
REMARK  Name = 
REMARK  8 active torsions:
REMARK  status: ('A' for Active; 'I' for Inactive)
REMARK    1  A    between atoms: C_4  and  C_26
REMARK    2  A    between atoms: C_6  and  C_8
REMARK    3  A    between atoms: C_15  and  C_16
REMARK    4  A    between atoms: C_16  and  N_17
REMARK    5  A    between atoms: C_18  and  C_20
REMARK    6  A    between atoms: C_20  and  S_21
REMARK    7  A    between atoms: S_21  and  C_22
REMARK    8  A    between atoms: C_22  and  C_23
REMARK                            x       y       z     vdW  Elec       q    Type
REMARK                         _______ _______ _______ _____ _____    ______ ____
ROOT
ATOM      8  C   UNL     1      -1.187   1.512  24.309  0.00  0.00    +0.056 C 
ATOM      9  C   UNL     1      -1.827   1.640  23.885  0.00  0.00    +0.078 C 
ATOM     10  N   UNL     1      -1.533   2.127  24.483  0.00  0.00    -0.272 NA
ATOM     11  C   UNL     1      -0.663   1.674  24.852  0.00  0.00    +0.072 C 
ATOM     12  C   UNL     1      -0.154   1.670  25.262  0.00  0.00    +0.018 C 
ATOM     13  C   UNL     1      -0.905   1.995  24.895  0.00  0.00    +0.010 C 
ATOM     14  C   UNL     1      -1.197   2.755  25.221  0.00  0.00    +0.018 C 
ATOM     15  C   UNL     1      -1.831   2.918  24.828  0.00  0.00    +0.079 C 
ENDROOT
BRANCH   8   6
ATOM      1  C   UNL     1       1.043   0.218  23.075  0.00  0.00    +0.074 C 
ATOM      2  C   UNL     1       0.357   0.179  23.531  0.00  0.00    +0.139 A 
ATOM      3  N   UNL     1       0.099  -0.547  23.825  0.00  0.00    -0.230 NA
ATOM      4  C   UNL     1      -0.587  -0.587  24.281  0.00  0.00    +0.090 A 
ATOM      5  C   UNL     1      -1.016   0.099  24.442  0.00  0.00    +0.034 A 
ATOM      6  C   UNL     1      -0.758   0.825  24.147  0.00  0.00    +0.063 A 
ATOM      7  N   UNL     1      -0.072   0.865  23.692  0.00  0.00    -0.235 NA
BRANCH   4  26
ATOM     26  C   UNL     1      -0.846  -1.313  24.576  0.00  0.00    +0.047 A 
ATOM     27  C   UNL     1      -0.540  -1.705  25.234  0.00  0.00    +0.009 A 
ATOM     28  C   UNL     1      -0.960  -2.409  25.329  0.00  0.00    +0.008 A 
ATOM     29  C   UNL     1      -1.525  -2.451  24.730  0.00  0.00    +0.035 A 
ATOM     30  S   UNL     1      -1.454  -1.774  24.265  0.00  0.00    -0.085 S 
ENDBRANCH   4  26
ENDBRANCH   8   6
BRANCH  15  16
ATOM     16  C   UNL     1      -2.431   3.478  24.757  0.00  0.00    +0.131 C 
BRANCH  16  17
ATOM     17  N   UNL     1      -3.125   3.399  25.196  0.00  0.00    -0.203 NA
ATOM     18  C   UNL     1      -3.805   3.808  24.971  0.00  0.00    +0.252 C 
ATOM     19  O   UNL     1      -3.791   4.296  24.306  0.00  0.00    -0.272 OA
BRANCH  18  20
ATOM     20  C   UNL     1      -4.498   3.728  25.410  0.00  0.00    +0.145 C 
BRANCH  20  21
ATOM     21  S   UNL     1      -5.016   3.105  25.255  0.00  0.00    -0.119 S 
BRANCH  21  22
ATOM     22  C   UNL     1      -5.666   2.976  25.747  0.00  0.00    +0.172 C 
BRANCH  22  23
ATOM     23  C   UNL     1      -6.070   2.258  25.717  0.00  0.00    +0.376 C 
ATOM     24  O   UNL     1      -6.310   1.948  24.991  0.00  0.00    -0.245 OA
ATOM     25  O   UNL     1      -6.234   1.849  26.414  0.00  0.00    -0.245 OA
ENDBRANCH  22  23
ENDBRANCH  21  22
ENDBRANCH  20  21
ENDBRANCH  18  20
ENDBRANCH  16  17
ENDBRANCH  15  16
TORSDOF 8
ENDMDL
MODEL 7
REMARK VINA RESULT:      -7.6      3.625      5.587
REMARK  Name = 
REMARK  8 active torsions:
REMARK  status: ('A' for Active; 'I' for Inactive)
REMARK    1  A    between atoms: C_4  and  C_26
REMARK    2  A    between atoms: C_6  and  C_8
REMARK    3  A    between atoms: C_15  and  C_16
REMARK    4  A    between atoms: C_16  and  N_17
REMARK    5  A    between atoms: C_18  and  C_20
REMARK    6  A    between atoms: C_20  and  S_21
REMARK    7  A    between atoms: S_21  and  C_22
REMARK    8  A    between atoms: C_22  and  C_23
REMARK                            x       y       z     vdW  Elec       q    Type
REMARK                         _______ _______ _______ _____ _____    ______ ____
ROOT
ATOM      8  C   UNL     1      -3.836   1.612  24.877  0.00  0.00    +0.056 C 
ATOM      9  C   UNL     1      -3.731   1.104  25.457  0.00  0.00    +0.078 C 
ATOM     10  N   UNL     1      -3.871   0.918  24.665  0.00  0.00    -0.272 NA
ATOM     11  C   UNL     1      -3.968   1.824  24.146  0.00  0.00    +0.072 C 
ATOM     12  C   UNL     1      -4.068   2.153  23.591  0.00  0.00    +0.018 C 
ATOM     13  C   UNL     1      -3.973   1.422  24.102  0.00  0.00    +0.010 C 
ATOM     14  C   UNL     1      -4.043   0.651  23.689  0.00  0.00    +0.018 C 
ATOM     15  C   UNL     1      -3.944   0.120  24.229  0.00  0.00    +0.079 C 
ENDROOT
BRANCH   8   6
ATOM      1  C   UNL     1      -5.163   4.029  25.630  0.00  0.00    +0.074 C 
ATOM      2  C   UNL     1      -4.470   3.623  25.445  0.00  0.00    +0.139 A 
ATOM      3  N   UNL     1      -3.746   4.019  25.451  0.00  0.00    -0.230 NA
ATOM      4  C   UNL     1      -3.052   3.613  25.266  0.00  0.00    +0.090 A 
ATOM      5  C   UNL     1      -3.082   2.811  25.075  0.00  0.00    +0.034 A 
ATOM      6  C   UNL     1      -3.806   2.416  25.069  0.00  0.00    +0.063 A 
ATOM      7  N   UNL     1      -4.500   2.821  25.254  0.00  0.00    -0.235 NA
BRANCH   4  26
ATOM     26  C   UNL     1      -2.328   4.009  25.272  0.00  0.00    +0.047 A 
ATOM     27  C   UNL     1      -2.189   4.768  24.982  0.00  0.00    +0.009 A 
ATOM     28  C   UNL     1      -1.391   4.943  25.099  0.00  0.00    +0.008 A 
ATOM     29  C   UNL     1      -1.038   4.292  25.462  0.00  0.00    +0.035 A 
ATOM     30  S   UNL     1      -1.618   3.714  25.569  0.00  0.00    -0.085 S 
ENDBRANCH   4  26
ENDBRANCH   8   6
BRANCH  15  16
ATOM     16  C   UNL     1      -3.919  -0.696  24.347  0.00  0.00    +0.131 C 
BRANCH  16  17
ATOM     17  N   UNL     1      -3.210  -1.106  24.248  0.00  0.00    -0.203 NA
ATOM     18  C   UNL     1      -3.146  -1.886  24.507  0.00  0.00    +0.252 C 
ATOM     19  O   UNL     1      -3.790  -2.257  24.865  0.00  0.00    -0.272 OA
BRANCH  18  20
ATOM     20  C   UNL     1      -2.437  -2.296  24.407  0.00  0.00    +0.145 C 
BRANCH  20  21
ATOM     21  S   UNL     1      -1.781  -2.105  24.871  0.00  0.00    -0.119 S 
BRANCH  21  22
ATOM     22  C   UNL     1      -1.020  -2.200  24.567  0.00  0.00    +0.172 C 
BRANCH  22  23
ATOM     23  C   UNL     1      -0.387  -1.792  24.904  0.00  0.00    +0.376 C 
ATOM     24  O   UNL     1      -0.002  -1.202  24.475  0.00  0.00    -0.245 OA
ATOM     25  O   UNL     1      -0.140  -1.973  25.669  0.00  0.00    -0.245 OA
ENDBRANCH  22  23
ENDBRANCH  21  22
ENDBRANCH  20  21
ENDBRANCH  18  20
ENDBRANCH  16  17
ENDBRANCH  15  16
TORSDOF 8
ENDMDL
