MODEL 1
REMARK VINA RESULT:     -12.4      0.000      0.000
REMARK  Name = 
REMARK  9 active torsions:
REMARK  status: ('A' for Active; 'I' for Inactive)
REMARK    1  A    between atoms: C_2  and  C_4
REMARK    2  A    between atoms: C_4  and  C_5
REMARK    3  A    between atoms: C_5  and  N_6
REMARK    4  A    between atoms: C_5  and  C_32
REMARK    5  A    between atoms: C_7  and  C_9
REMARK    6  A    between atoms: C_16  and  N_18
REMARK    7  A    between atoms: N_18  and  S_19
REMARK    8  A    between atoms: S_19  and  C_22
REMARK    9  A    between atoms: C_24  and  C_28
REMARK                            x       y       z     vdW  Elec       q    Type
REMARK                         _______ _______ _______ _____ _____    ______ ____
ROOT
ATOM      9  C   UNL     1      -2.975   1.730  24.646  0.00  0.00    +0.200 C 
ATOM     10  O   UNL     1      -2.290   1.316  24.846  0.00  0.00    -0.216 OA
ATOM     11  C   UNL     1      -3.462   2.338  24.375  0.00  0.00    +0.075 C 
ATOM     12  C   UNL     1      -4.282   2.241  24.377  0.00  0.00    +0.187 C 
ATOM     13  O   UNL     1      -4.769   2.849  24.107  0.00  0.00    -0.220 OA
ATOM     14  C   UNL     1      -4.613   1.536  24.649  0.00  0.00    +0.200 C 
ATOM     15  O   UNL     1      -5.433   1.440  24.651  0.00  0.00    -0.219 OA
ATOM     16  C   UNL     1      -4.126   0.928  24.919  0.00  0.00    +0.133 C 
ATOM     17  C   UNL     1      -3.307   1.025  24.918  0.00  0.00    +0.062 C 
ENDROOT
BRANCH   9   7
ATOM      6  N   UNL     1      -1.983   2.683  25.034  0.00  0.00    -0.196 NA
ATOM      7  C   UNL     1      -2.405   2.290  24.443  0.00  0.00    +0.269 C 
ATOM      8  O   UNL     1      -2.257   2.460  23.650  0.00  0.00    -0.271 OA
BRANCH   6   5
ATOM      5  C   UNL     1      -1.414   3.243  24.832  0.00  0.00    +0.174 C 
BRANCH   5  32
ATOM     32  C   UNL     1      -0.613   3.043  24.851  0.00  0.00    +0.281 C 
ATOM     33  N   UNL     1      -0.265   2.804  25.559  0.00  0.00    -0.086 NA
ATOM     34  O   UNL     1      -0.161   3.084  24.162  0.00  0.00    -0.270 OA
ENDBRANCH   5  32
BRANCH   5   4
ATOM      4  C   UNL     1      -1.643   4.004  24.609  0.00  0.00    +0.031 C 
BRANCH   4   2
ATOM      1  C   UNL     1      -2.023   4.665  25.818  0.00  0.00    +0.000 C 
ATOM      2  C   UNL     1      -1.558   4.632  25.137  0.00  0.00    +0.002 C 
ATOM      3  C   UNL     1      -1.007   5.227  24.984  0.00  0.00    +0.000 C 
ENDBRANCH   4   2
ENDBRANCH   5   4
ENDBRANCH   6   5
ENDBRANCH   9   7
BRANCH  16  18
ATOM     18  N   UNL     1      -4.458   0.224  25.191  0.00  0.00    -0.076 NA
BRANCH  18  19
ATOM     19  S   UNL     1      -4.192  -0.499  24.895  0.00  0.00    +0.077 S 
ATOM     20  O   UNL     1      -3.848  -0.671  25.625  0.00  0.00    -0.152 OA
ATOM     21  O   UNL     1      -4.535  -0.326  24.166  0.00  0.00    -0.152 OA
BRANCH  19  22
ATOM     22  C   UNL     1      -3.926  -1.221  24.599  0.00  0.00    +0.124 A 
ATOM     23  C   UNL     1      -3.175  -1.497  24.798  0.00  0.00    +0.024 A 
ATOM     24  C   UNL     1      -2.908  -2.220  24.502  0.00  0.00    +0.073 A 
ATOM     25  C   UNL     1      -3.394  -2.667  24.007  0.00  0.00    +0.004 A 
ATOM     26  C   UNL     1      -4.146  -2.391  23.808  0.00  0.00    +0.001 A 
ATOM     27  C   UNL     1      -4.411  -1.668  24.104  0.00  0.00    +0.020 A 
BRANCH  24  28
ATOM     28  C   UNL     1      -2.157  -2.497  24.701  0.00  0.00    +0.419 C 
ATOM     29  F   UNL     1      -1.405  -2.773  24.899  0.00  0.00    -0.166 F 
ATOM     30  F   UNL     1      -2.486  -2.967  25.293  0.00  0.00    -0.166 F 
ATOM     31  F   UNL     1      -1.828  -2.026  24.108  0.00  0.00    -0.166 F 
ENDBRANCH  24  28
ENDBRANCH  19  22
ENDBRANCH  18  19
ENDBRANCH  16  18
TORSDOF 9
ENDMDL
MODEL 2
REMARK VINA RESULT:     -12.4      2.667      5.474
REMARK  Name = 
REMARK  9 active torsions:
REMARK  status: ('A' for Active; 'I' for Inactive)
REMARK    1  A    between atoms: C_2  and  C_4
REMARK    2  A    between atoms: C_4  and  C_5
REMARK    3  A    between atoms: C_5  and  N_6
REMARK    4  A    between atoms: C_5  and  C_32
REMARK    5  A    between atoms: C_7  and  C_9
REMARK    6  A    between atoms: C_16  and  N_18
REMARK    7  A    between atoms: N_18  and  S_19
REMARK    8  A    between atoms: S_19  and  C_22
REMARK    9  A    between atoms: C_24  and  C_28
REMARK                            x       y       z     vdW  Elec       q    Type
REMARK                         _______ _______ _______ _____ _____    ______ ____
ROOT
ATOM      9  C   UNL     1      -1.219   0.293  25.131  0.00  0.00    +0.200 C 
ATOM     10  O   UNL     1      -1.716   0.382  25.783  0.00  0.00    -0.216 OA
ATOM     11  C   UNL     1      -0.877  -0.034  24.456  0.00  0.00    +0.075 C 
ATOM     12  C   UNL     1      -0.260   0.359  24.074  0.00  0.00    +0.187 C 
ATOM     13  O   UNL     1       0.082   0.031  23.399  0.00  0.00    -0.220 OA
ATOM     14  C   UNL     1       0.014   1.080  24.367  0.00  0.00    +0.200 C 
ATOM     15  O   UNL     1       0.631   1.472  23.984  0.00  0.00    -0.219 OA
ATOM     16  C   UNL     1      -0.328   1.407  25.042  0.00  0.00    +0.133 C 
ATOM     17  C   UNL     1      -0.944   1.015  25.424  0.00  0.00    +0.062 C 
ENDROOT
BRANCH   9   7
ATOM      6  N   UNL     1      -2.490  -0.358  25.087  0.00  0.00    -0.196 NA
ATOM      7  C   UNL     1      -1.666  -0.396  25.064  0.00  0.00    +0.269 C 
ATOM      8  O   UNL     1      -1.289  -1.125  24.975  0.00  0.00    -0.271 OA
BRANCH   6   5
ATOM      5  C   UNL     1      -2.937  -1.048  25.021  0.00  0.00    +0.174 C 
BRANCH   5  32
ATOM     32  C   UNL     1      -3.192  -1.441  25.700  0.00  0.00    +0.281 C 
ATOM     33  N   UNL     1      -3.033  -2.244  25.797  0.00  0.00    -0.086 NA
ATOM     34  O   UNL     1      -3.608  -1.029  26.283  0.00  0.00    -0.270 OA
ENDBRANCH   5  32
BRANCH   5   4
ATOM      4  C   UNL     1      -3.129  -1.346  24.276  0.00  0.00    +0.031 C 
BRANCH   4   2
ATOM      1  C   UNL     1      -4.216  -0.510  23.875  0.00  0.00    +0.000 C 
ATOM      2  C   UNL     1      -3.894  -1.262  23.982  0.00  0.00    +0.002 C 
ATOM      3  C   UNL     1      -4.340  -1.931  23.795  0.00  0.00    +0.000 C 
ENDBRANCH   4   2
ENDBRANCH   5   4
ENDBRANCH   6   5
ENDBRANCH   9   7
BRANCH  16  18
ATOM     18  N   UNL     1      -0.054   2.128  25.335  0.00  0.00    -0.076 NA
BRANCH  18  19
ATOM     19  S   UNL     1      -0.553   2.784  25.349  0.00  0.00    +0.077 S 
ATOM     20  O   UNL     1      -0.606   2.726  26.170  0.00  0.00    -0.152 OA
ATOM     21  O   UNL     1      -0.500   2.843  24.528  0.00  0.00    -0.152 OA
BRANCH  19  22
ATOM     22  C   UNL     1      -1.052   3.441  25.363  0.00  0.00    +0.124 A 
ATOM     23  C   UNL     1      -1.825   3.366  25.642  0.00  0.00    +0.024 A 
ATOM     24  C   UNL     1      -2.325   4.023  25.656  0.00  0.00    +0.073 A 
ATOM     25  C   UNL     1      -2.051   4.754  25.391  0.00  0.00    +0.004 A 
ATOM     26  C   UNL     1      -1.278   4.830  25.113  0.00  0.00    +0.001 A 
ATOM     27  C   UNL     1      -0.779   4.173  25.099  0.00  0.00    +0.020 A 
BRANCH  24  28
ATOM     28  C   UNL     1      -3.097   3.948  25.934  0.00  0.00    +0.419 C 
ATOM     29  F   UNL     1      -3.871   3.873  26.212  0.00  0.00    -0.166 F 
ATOM     30  F   UNL     1      -2.865   4.255  26.663  0.00  0.00    -0.166 F 
ATOM     31  F   UNL     1      -3.330   3.640  25.204  0.00  0.00    -0.166 F 
ENDBRANCH  24  28
ENDBRANCH  19  22
ENDBRANCH  18  19
ENDBRANCH  16  18
TORSDOF 9
ENDMDL
MODEL 3
REMARK VINA RESULT:     -12.1      2.260      4.867
REMARK  Name = 
REMARK  9 active torsions:
REMARK  status: ('A' for Active; 'I' for Inactive)
REMARK    1  A    between atoms: C_2  and  C_4
REMARK    2  A    between atoms: C_4  and  C_5
REMARK    3  A    between atoms: C_5  and  N_6
REMARK    4  A    between atoms: C_5  and  C_32
REMARK    5  A    between atoms: C_7  and  C_9
REMARK    6  A    between atoms: C_16  and  N_18
REMARK    7  A    between atoms: N_18  and  S_19
REMARK    8  A    between atoms: S_19  and  C_22
REMARK    9  A    between atoms: C_24  and  C_28
REMARK                            x       y       z     vdW  Elec       q    Type
REMARK                         _______ _______ _______ _____ _____    ______ ____
ROOT
ATOM      9  C   UNL     1      -4.402   1.545  24.800  0.00  0.00    +0.200 C 
ATOM     10  O   UNL     1      -3.783   1.358  24.287  0.00  0.00    -0.216 OA
ATOM     11  C   UNL     1      -5.053   1.448  25.296  0.00  0.00    +0.075 C 
ATOM     12  C   UNL     1      -5.396   2.104  25.660  0.00  0.00    +0.187 C 
ATOM     13  O   UNL     1      -6.048   2.007  26.156  0.00  0.00    -0.220 OA
ATOM     14  C   UNL     1      -5.087   2.857  25.528  0.00  0.00    +0.200 C 
ATOM     15  O   UNL     1      -5.430   3.514  25.892  0.00  0.00    -0.219 OA
ATOM     16  C   UNL     1      -4.435   2.955  25.031  0.00  0.00    +0.133 C 
ATOM     17  C   UNL     1      -4.093   2.299  24.668  0.00  0.00    +0.062 C 
ENDROOT
BRANCH   9   7
ATOM      6  N   UNL     1      -3.833   0.236  24.724  0.00  0.00    -0.196 NA
ATOM      7  C   UNL     1      -4.495   0.727  24.754  0.00  0.00    +0.269 C 
ATOM      8  O   UNL     1      -5.252   0.399  24.738  0.00  0.00    -0.271 OA
BRANCH   6   5
ATOM      5  C   UNL     1      -3.926  -0.582  24.678  0.00  0.00    +0.174 C 
BRANCH   5  32
ATOM     32  C   UNL     1      -3.984  -0.949  23.942  0.00  0.00    +0.281 C 
ATOM     33  N   UNL     1      -4.581  -1.501  23.802  0.00  0.00    -0.086 NA
ATOM     34  O   UNL     1      -3.444  -0.766  23.345  0.00  0.00    -0.270 OA
ENDBRANCH   5  32
BRANCH   5   4
ATOM      4  C   UNL     1      -3.963  -1.033  25.368  0.00  0.00    +0.031 C 
BRANCH   4   2
ATOM      1  C   UNL     1      -3.269  -2.275  25.506  0.00  0.00    +0.000 C 
ATOM      2  C   UNL     1      -3.302  -1.458  25.619  0.00  0.00    +0.002 C 
ATOM      3  C   UNL     1      -2.674  -1.067  25.983  0.00  0.00    +0.000 C 
ENDBRANCH   4   2
ENDBRANCH   5   4
ENDBRANCH   6   5
ENDBRANCH   9   7
BRANCH  16  18
ATOM     18  N   UNL     1      -4.126   3.708  24.899  0.00  0.00    -0.076 NA
BRANCH  18  19
ATOM     19  S   UNL     1      -3.324   3.853  25.024  0.00  0.00    +0.077 S 
ATOM     20  O   UNL     1      -3.463   3.926  25.833  0.00  0.00    -0.152 OA
ATOM     21  O   UNL     1      -3.185   3.779  24.214  0.00  0.00    -0.152 OA
BRANCH  19  22
ATOM     22  C   UNL     1      -2.522   3.997  25.149  0.00  0.00    +0.124 A 
ATOM     23  C   UNL     1      -2.029   3.390  25.410  0.00  0.00    +0.024 A 
ATOM     24  C   UNL     1      -1.226   3.534  25.535  0.00  0.00    +0.073 A 
ATOM     25  C   UNL     1      -0.916   4.286  25.399  0.00  0.00    +0.004 A 
ATOM     26  C   UNL     1      -1.409   4.895  25.137  0.00  0.00    +0.001 A 
ATOM     27  C   UNL     1      -2.212   4.749  25.013  0.00  0.00    +0.020 A 
BRANCH  24  28
ATOM     28  C   UNL     1      -0.733   2.927  25.797  0.00  0.00    +0.419 C 
ATOM     29  F   UNL     1      -0.239   2.319  26.059  0.00  0.00    -0.166 F 
ATOM     30  F   UNL     1      -0.510   2.772  25.018  0.00  0.00    -0.166 F 
ATOM     31  F   UNL     1      -0.955   3.082  26.576  0.00  0.00    -0.166 F 
ENDBRANCH  24  28
ENDBRANCH  19  22
ENDBRANCH  18  19
ENDBRANCH  16  18
TORSDOF 9
ENDMDL
MODEL 4
REMARK VINA RESULT:     -11.8      1.701      2.634
REMARK  Name = 
REMARK  9 active torsions:
REMARK  status: ('A' for Active; 'I' for Inactive)
REMARK    1  A    between atoms: C_2  and  C_4
REMARK    2  A    between atoms: C_4  and  C_5
REMARK    3  A    between atoms: C_5  and  N_6
REMARK    4  A    between atoms: C_5  and  C_32
REMARK    5  A    between atoms: C_7  and  C_9
REMARK    6  A    between atoms: C_16  and  N_18
REMARK    7  A    between atoms: N_18  and  S_19
REMARK    8  A    between atoms: S_19  and  C_22
REMARK    9  A    between atoms: C_24  and  C_28
REMARK                            x       y       z     vdW  Elec       q    Type
REMARK                         _______ _______ _______ _____ _____    ______ ____
ROOT
ATOM      9  C   UNL     1      -1.907   1.424  24.646  0.00  0.00    +0.200 C 
ATOM     10  O   UNL     1      -2.652   1.379  24.997  0.00  0.00    -0.216 OA
ATOM     11  C   UNL     1      -1.265   1.727  24.227  0.00  0.00    +0.075 C 
ATOM     12  C   UNL     1      -0.585   1.269  24.126  0.00  0.00    +0.187 C 
ATOM     13  O   UNL     1       0.057   1.572  23.707  0.00  0.00    -0.220 OA
ATOM     14  C   UNL     1      -0.548   0.509  24.445  0.00  0.00    +0.200 C 
ATOM     15  O   UNL     1       0.132   0.052  24.344  0.00  0.00    -0.219 OA
ATOM     16  C   UNL     1      -1.191   0.206  24.864  0.00  0.00    +0.133 C 
ATOM     17  C   UNL     1      -1.870   0.663  24.965  0.00  0.00    +0.062 C 
ENDROOT
BRANCH   9   7
ATOM      6  N   UNL     1      -2.418   2.697  25.045  0.00  0.00    -0.196 NA
ATOM      7  C   UNL     1      -2.203   2.168  24.450  0.00  0.00    +0.269 C 
ATOM      8  O   UNL     1      -2.283   2.383  23.657  0.00  0.00    -0.271 OA
BRANCH   6   5
ATOM      5  C   UNL     1      -2.714   3.441  24.848  0.00  0.00    +0.174 C 
BRANCH   5  32
ATOM     32  C   UNL     1      -3.529   3.568  24.825  0.00  0.00    +0.281 C 
ATOM     33  N   UNL     1      -3.878   3.886  24.149  0.00  0.00    -0.086 NA
ATOM     34  O   UNL     1      -3.995   3.377  25.479  0.00  0.00    -0.270 OA
ENDBRANCH   5  32
BRANCH   5   4
ATOM      4  C   UNL     1      -2.195   4.059  24.674  0.00  0.00    +0.031 C 
BRANCH   4   2
ATOM      1  C   UNL     1      -2.313   4.581  26.000  0.00  0.00    +0.000 C 
ATOM      2  C   UNL     1      -1.913   4.544  25.279  0.00  0.00    +0.002 C 
ATOM      3  C   UNL     1      -1.231   4.992  25.163  0.00  0.00    +0.000 C 
ENDBRANCH   4   2
ENDBRANCH   5   4
ENDBRANCH   6   5
ENDBRANCH   9   7
BRANCH  16  18
ATOM     18  N   UNL     1      -1.154  -0.554  25.183  0.00  0.00    -0.076 NA
BRANCH  18  19
ATOM     19  S   UNL     1      -1.727  -1.113  24.984  0.00  0.00    +0.077 S 
ATOM     20  O   UNL     1      -2.086  -1.007  25.719  0.00  0.00    -0.152 OA
ATOM     21  O   UNL     1      -1.368  -1.219  24.249  0.00  0.00    -0.152 OA
BRANCH  19  22
ATOM     22  C   UNL     1      -2.300  -1.672  24.785  0.00  0.00    +0.124 A 
ATOM     23  C   UNL     1      -3.041  -1.426  24.518  0.00  0.00    +0.024 A 
ATOM     24  C   UNL     1      -3.614  -1.986  24.319  0.00  0.00    +0.073 A 
ATOM     25  C   UNL     1      -3.446  -2.790  24.387  0.00  0.00    +0.004 A 
ATOM     26  C   UNL     1      -2.705  -3.036  24.654  0.00  0.00    +0.001 A 
ATOM     27  C   UNL     1      -2.133  -2.476  24.853  0.00  0.00    +0.020 A 
BRANCH  24  28
ATOM     28  C   UNL     1      -4.355  -1.740  24.052  0.00  0.00    +0.419 C 
ATOM     29  F   UNL     1      -5.097  -1.494  23.785  0.00  0.00    -0.166 F 
ATOM     30  F   UNL     1      -4.200  -2.075  23.314  0.00  0.00    -0.166 F 
ATOM     31  F   UNL     1      -4.510  -1.406  24.790  0.00  0.00    -0.166 F 
ENDBRANCH  24  28
ENDBRANCH  19  22
ENDBRANCH  18  19
ENDBRANCH  16  18
TORSDOF 9
ENDMDL
MODEL 5
REMARK VINA RESULT:     -11.5      2.393      4.709
REMARK  Name = 
REMARK  9 active torsions:
REMARK  status: ('A' for Active; 'I' for Inactive)
REMARK    1  A    between atoms: C_2  and  C_4
REMARK    2  A    between atoms: C_4  and  C_5
REMARK    3  A    between atoms: C_5  and  N_6
REMARK    4  A    between atoms: C_5  and  C_32
REMARK    5  A    between atoms: C_7  and  C_9
REMARK    6  A    between atoms: C_16  and  N_18
REMARK    7  A    between atoms: N_18  and  S_19
REMARK    8  A    between atoms: S_19  and  C_22
REMARK    9  A    between atoms: C_24  and  C_28
REMARK                            x       y       z     vdW  Elec       q    Type
REMARK                         _______ _______ _______ _____ _____    ______ ____
ROOT
ATOM      9  C   UNL     1      -1.835   1.152  24.308  0.00  0.00    +0.200 C 
ATOM     10  O   UNL     1      -2.502   0.732  24.065  0.00  0.00    -0.216 OA
ATOM     11  C   UNL     1      -1.068   1.305  24.568  0.00  0.00    +0.075 C 
ATOM     12  C   UNL     1      -0.822   2.083  24.695  0.00  0.00    +0.187 C 
ATOM     13  O   UNL     1      -0.054   2.235  24.954  0.00  0.00    -0.220 OA
ATOM     14  C   UNL     1      -1.345   2.707  24.562  0.00  0.00    +0.200 C 
ATOM     15  O   UNL     1      -1.098   3.485  24.689  0.00  0.00    -0.219 OA
ATOM     16  C   UNL     1      -2.113   2.554  24.302  0.00  0.00    +0.133 C 
ATOM     17  C   UNL     1      -2.358   1.777  24.176  0.00  0.00    +0.062 C 
ENDROOT
BRANCH   9   7
ATOM      6  N   UNL     1      -1.884  -0.155  24.883  0.00  0.00    -0.196 NA
ATOM      7  C   UNL     1      -1.545   0.382  24.356  0.00  0.00    +0.269 C 
ATOM      8  O   UNL     1      -0.915   0.149  23.878  0.00  0.00    -0.271 OA
BRANCH   6   5
ATOM      5  C   UNL     1      -1.594  -0.925  24.931  0.00  0.00    +0.174 C 
BRANCH   5  32
ATOM     32  C   UNL     1      -1.065  -1.130  25.530  0.00  0.00    +0.281 C 
ATOM     33  N   UNL     1      -0.360  -1.516  25.345  0.00  0.00    -0.086 NA
ATOM     34  O   UNL     1      -1.241  -0.948  26.316  0.00  0.00    -0.270 OA
ENDBRANCH   5  32
BRANCH   5   4
ATOM      4  C   UNL     1      -1.831  -1.492  24.380  0.00  0.00    +0.031 C 
BRANCH   4   2
ATOM      1  C   UNL     1      -3.116  -1.857  24.889  0.00  0.00    +0.000 C 
ATOM      2  C   UNL     1      -2.376  -2.073  24.593  0.00  0.00    +0.002 C 
ATOM      3  C   UNL     1      -2.182  -2.870  24.512  0.00  0.00    +0.000 C 
ENDBRANCH   4   2
ENDBRANCH   5   4
ENDBRANCH   6   5
ENDBRANCH   9   7
BRANCH  16  18
ATOM     18  N   UNL     1      -2.635   3.179  24.170  0.00  0.00    -0.076 NA
BRANCH  18  19
ATOM     19  S   UNL     1      -3.381   3.174  24.521  0.00  0.00    +0.077 S 
ATOM     20  O   UNL     1      -3.036   3.320  25.256  0.00  0.00    -0.152 OA
ATOM     21  O   UNL     1      -3.726   3.027  23.787  0.00  0.00    -0.152 OA
BRANCH  19  22
ATOM     22  C   UNL     1      -4.127   3.169  24.872  0.00  0.00    +0.124 A 
ATOM     23  C   UNL     1      -4.618   2.512  24.790  0.00  0.00    +0.024 A 
ATOM     24  C   UNL     1      -5.365   2.506  25.141  0.00  0.00    +0.073 A 
ATOM     25  C   UNL     1      -5.621   3.159  25.575  0.00  0.00    +0.004 A 
ATOM     26  C   UNL     1      -5.130   3.818  25.659  0.00  0.00    +0.001 A 
ATOM     27  C   UNL     1      -4.383   3.822  25.307  0.00  0.00    +0.020 A 
BRANCH  24  28
ATOM     28  C   UNL     1      -5.856   1.849  25.058  0.00  0.00    +0.419 C 
ATOM     29  F   UNL     1      -6.347   1.190  24.976  0.00  0.00    -0.166 F 
ATOM     30  F   UNL     1      -6.302   2.253  24.494  0.00  0.00    -0.166 F 
ATOM     31  F   UNL     1      -5.410   1.445  25.623  0.00  0.00    -0.166 F 
ENDBRANCH  24  28
ENDBRANCH  19  22
ENDBRANCH  18  19
ENDBRANCH  16  18
TORSDOF 9
ENDMDL
