MODEL 1
REMARK VINA RESULT:      -7.7      0.000      0.000
REMARK  Name = 
REMARK  5 active torsions:
REMARK  status: ('A' for Active; 'I' for Inactive)
REMARK    1  A    between atoms: O_2  and  C_3
REMARK    2  A    between atoms: C_3  and  C_4
REMARK    3  A    between atoms: C_4  and  O_5
REMARK    4  A    between atoms: O_5  and  C_6
REMARK    5  A    between atoms: N_11  and  C_13
REMARK                            x       y       z     vdW  Elec       q    Type
REMARK                         _______ _______ _______ _____ _____    ______ ____
ROOT
ATOM      6  C   UNL     1      -3.754   2.163  24.636  0.00  0.00    +0.161 C 
ATOM      7  C   UNL     1      -4.405   2.655  24.757  0.00  0.00    +0.173 C 
ATOM      8  O   UNL     1      -5.182   2.444  24.937  0.00  0.00    -0.350 OA
ATOM      9  C   UNL     1      -5.500   1.690  25.040  0.00  0.00    +0.160 C 
ATOM     10  C   UNL     1      -5.120   0.961  24.990  0.00  0.00    +0.105 C 
ATOM     11  N   UNL     1      -4.327   0.804  24.823  0.00  0.00    -0.270 NA
ATOM     12  C   UNL     1      -3.720   1.339  24.666  0.00  0.00    +0.105 C 
ENDROOT
BRANCH  11  13
ATOM     13  C   UNL     1      -4.114   0.007  24.813  0.00  0.00    +0.060 C 
ATOM     14  C   UNL     1      -4.183  -0.429  24.115  0.00  0.00    +0.033 C 
ATOM     15  C   UNL     1      -3.970  -1.225  24.105  0.00  0.00    +0.074 C 
ATOM     16  N   UNL     1      -3.687  -1.587  24.791  0.00  0.00    -0.271 NA
ATOM     17  C   UNL     1      -3.474  -2.384  24.779  0.00  0.00    +0.090 C 
ATOM     18  C   UNL     1      -3.618  -1.151  25.487  0.00  0.00    +0.074 C 
ATOM     19  C   UNL     1      -3.832  -0.354  25.498  0.00  0.00    +0.033 C 
ENDBRANCH  11  13
BRANCH   6   5
ATOM      5  O   UNL     1      -3.044   2.546  24.463  0.00  0.00    -0.350 OA
BRANCH   5   4
ATOM      4  C   UNL     1      -2.764   3.141  24.960  0.00  0.00    +0.174 C 
BRANCH   4   3
ATOM      3  C   UNL     1      -2.019   3.470  24.831  0.00  0.00    +0.174 C 
BRANCH   3   2
ATOM      1  C   UNL     1      -1.075   4.513  25.081  0.00  0.00    +0.174 C 
ATOM      2  O   UNL     1      -1.769   4.116  25.279  0.00  0.00    -0.348 OA
ENDBRANCH   3   2
ENDBRANCH   4   3
ENDBRANCH   5   4
ENDBRANCH   6   5
TORSDOF 5
ENDMDL
MODEL 2
REMARK VINA RESULT:      -7.4      1.722      4.228
REMARK  Name = 
REMARK  5 active torsions:
REMARK  status: ('A' for Active; 'I' for Inactive)
REMARK    1  A    between atoms: O_2  and  C_3
REMARK    2  A    between atoms: C_3  and  C_4
REMARK    3  A    between atoms: C_4  and  O_5
REMARK    4  A    between atoms: O_5  and  C_6
REMARK    5  A    between atoms: N_11  and  C_13
REMARK                            x       y       z     vdW  Elec       q    Type
REMARK                         _______ _______ _______ _____ _____    ______ ____
ROOT
ATOM      6  C   UNL     1      -4.650   1.536  24.926  0.00  0.00    +0.161 C 
ATOM      7  C   UNL     1      -5.452   1.552  25.122  0.00  0.00    +0.173 C 
ATOM      8  O   UNL     1      -5.895   2.179  25.423  0.00  0.00    -0.350 OA
ATOM      9  C   UNL     1      -5.646   2.945  25.604  0.00  0.00    +0.160 C 
ATOM     10  C   UNL     1      -4.893   3.272  25.528  0.00  0.00    +0.105 C 
ATOM     11  N   UNL     1      -4.202   2.915  25.252  0.00  0.00    -0.270 NA
ATOM     12  C   UNL     1      -4.095   2.143  24.985  0.00  0.00    +0.105 C 
ENDROOT
BRANCH  11  13
ATOM     13  C   UNL     1      -3.531   3.394  25.243  0.00  0.00    +0.060 C 
ATOM     14  C   UNL     1      -3.154   3.588  25.950  0.00  0.00    +0.033 C 
ATOM     15  C   UNL     1      -2.482   4.067  25.941  0.00  0.00    +0.074 C 
ATOM     16  N   UNL     1      -2.187   4.351  25.224  0.00  0.00    -0.271 NA
ATOM     17  C   UNL     1      -1.515   4.830  25.216  0.00  0.00    +0.090 C 
ATOM     18  C   UNL     1      -2.564   4.156  24.518  0.00  0.00    +0.074 C 
ATOM     19  C   UNL     1      -3.236   3.677  24.527  0.00  0.00    +0.033 C 
ENDBRANCH  11  13
BRANCH   6   5
ATOM      5  O   UNL     1      -4.369   0.817  24.634  0.00  0.00    -0.350 OA
BRANCH   5   4
ATOM      4  C   UNL     1      -4.300   0.166  25.135  0.00  0.00    +0.174 C 
BRANCH   4   3
ATOM      3  C   UNL     1      -3.944  -0.527  24.865  0.00  0.00    +0.174 C 
BRANCH   3   2
ATOM      1  C   UNL     1      -3.479  -1.855  25.110  0.00  0.00    +0.174 C 
ATOM      2  O   UNL     1      -3.855  -1.171  25.373  0.00  0.00    -0.348 OA
ENDBRANCH   3   2
ENDBRANCH   4   3
ENDBRANCH   5   4
ENDBRANCH   6   5
TORSDOF 5
ENDMDL
MODEL 3
REMARK VINA RESULT:      -6.9      2.330      3.662
REMARK  Name = 
REMARK  5 active torsions:
REMARK  status: ('A' for Active; 'I' for Inactive)
REMARK    1  A    between atoms: O_2  and  C_3
REMARK    2  A    between atoms: C_3  and  C_4
REMARK    3  A    between atoms: C_4  and  O_5
REMARK    4  A    between atoms: O_5  and  C_6
REMARK    5  A    between atoms: N_11  and  C_13
REMARK                            x       y       z     vdW  Elec       q    Type
REMARK                         _______ _______ _______ _____ _____    ______ ____
ROOT
ATOM      6  C   UNL     1      -1.978   1.348  24.214  0.00  0.00    +0.161 C 
ATOM      7  C   UNL     1      -1.667   1.496  23.464  0.00  0.00    +0.173 C 
ATOM      8  O   UNL     1      -2.015   1.898  22.833  0.00  0.00    -0.350 OA
ATOM      9  C   UNL     1      -2.760   2.251  22.796  0.00  0.00    +0.160 C 
ATOM     10  C   UNL     1      -3.340   2.290  23.381  0.00  0.00    +0.105 C 
ATOM     11  N   UNL     1      -3.320   1.985  24.147  0.00  0.00    -0.270 NA
ATOM     12  C   UNL     1      -2.714   1.566  24.517  0.00  0.00    +0.105 C 
ENDROOT
BRANCH  11  13
ATOM     13  C   UNL     1      -3.995   2.116  24.603  0.00  0.00    +0.060 C 
ATOM     14  C   UNL     1      -4.072   2.816  25.031  0.00  0.00    +0.033 C 
ATOM     15  C   UNL     1      -4.747   2.948  25.487  0.00  0.00    +0.074 C 
ATOM     16  N   UNL     1      -5.345   2.378  25.515  0.00  0.00    -0.271 NA
ATOM     17  C   UNL     1      -6.019   2.511  25.971  0.00  0.00    +0.090 C 
ATOM     18  C   UNL     1      -5.266   1.678  25.086  0.00  0.00    +0.074 C 
ATOM     19  C   UNL     1      -4.591   1.547  24.630  0.00  0.00    +0.033 C 
ENDBRANCH  11  13
BRANCH   6   5
ATOM      5  O   UNL     1      -1.488   0.927  24.728  0.00  0.00    -0.350 OA
BRANCH   5   4
ATOM      4  C   UNL     1      -1.226   0.173  24.523  0.00  0.00    +0.174 C 
BRANCH   4   3
ATOM      3  C   UNL     1      -0.869  -0.308  25.089  0.00  0.00    +0.174 C 
BRANCH   3   2
ATOM      1  C   UNL     1      -0.502  -1.665  25.342  0.00  0.00    +0.174 C 
ATOM      2  O   UNL     1      -0.478  -0.997  24.859  0.00  0.00    -0.348 OA
ENDBRANCH   3   2
ENDBRANCH   4   3
ENDBRANCH   5   4
ENDBRANCH   6   5
TORSDOF 5
ENDMDL
MODEL 4
REMARK VINA RESULT:      -6.8      2.207      3.311
REMARK  Name = 
REMARK  5 active torsions:
REMARK  status: ('A' for Active; 'I' for Inactive)
REMARK    1  A    between atoms: O_2  and  C_3
REMARK    2  A    between atoms: C_3  and  C_4
REMARK    3  A    between atoms: C_4  and  O_5
REMARK    4  A    between atoms: O_5  and  C_6
REMARK    5  A    between atoms: N_11  and  C_13
REMARK                            x       y       z     vdW  Elec       q    Type
REMARK                         _______ _______ _______ _____ _____    ______ ____
ROOT
ATOM      6  C   UNL     1      -1.886   2.698  25.130  0.00  0.00    +0.161 C 
ATOM      7  C   UNL     1      -1.441   3.320  25.440  0.00  0.00    +0.173 C 
ATOM      8  O   UNL     1      -0.690   3.296  25.780  0.00  0.00    -0.350 OA
ATOM      9  C   UNL     1      -0.198   2.644  25.895  0.00  0.00    +0.160 C 
ATOM     10  C   UNL     1      -0.335   1.855  25.698  0.00  0.00    +0.105 C 
ATOM     11  N   UNL     1      -0.999   1.523  25.337  0.00  0.00    -0.270 NA
ATOM     12  C   UNL     1      -1.688   1.898  25.085  0.00  0.00    +0.105 C 
ENDROOT
BRANCH  11  13
ATOM     13  C   UNL     1      -0.969   0.708  25.213  0.00  0.00    +0.060 C 
ATOM     14  C   UNL     1      -1.301   0.194  25.766  0.00  0.00    +0.033 C 
ATOM     15  C   UNL     1      -1.271  -0.621  25.642  0.00  0.00    +0.074 C 
ATOM     16  N   UNL     1      -0.908  -0.922  24.964  0.00  0.00    -0.271 NA
ATOM     17  C   UNL     1      -0.879  -1.737  24.840  0.00  0.00    +0.090 C 
ATOM     18  C   UNL     1      -0.576  -0.408  24.411  0.00  0.00    +0.074 C 
ATOM     19  C   UNL     1      -0.607   0.407  24.536  0.00  0.00    +0.033 C 
ENDBRANCH  11  13
BRANCH   6   5
ATOM      5  O   UNL     1      -2.625   2.903  24.827  0.00  0.00    -0.350 OA
BRANCH   5   4
ATOM      4  C   UNL     1      -3.205   3.213  25.325  0.00  0.00    +0.174 C 
BRANCH   4   3
ATOM      3  C   UNL     1      -3.985   3.269  25.064  0.00  0.00    +0.174 C 
BRANCH   3   2
ATOM      1  C   UNL     1      -5.325   3.379  25.547  0.00  0.00    +0.174 C 
ATOM      2  O   UNL     1      -4.548   3.654  25.528  0.00  0.00    -0.348 OA
ENDBRANCH   3   2
ENDBRANCH   4   3
ENDBRANCH   5   4
ENDBRANCH   6   5
TORSDOF 5
ENDMDL
MODEL 5
REMARK VINA RESULT:      -6.7      2.597      4.504
REMARK  Name = 
REMARK  5 active torsions:
REMARK  status: ('A' for Active; 'I' for Inactive)
REMARK    1  A    between atoms: O_2  and  C_3
REMARK    2  A    between atoms: C_3  and  C_4
REMARK    3  A    between atoms: C_4  and  O_5
REMARK    4  A    between atoms: O_5  and  C_6
REMARK    5  A    between atoms: N_11  and  C_13
REMARK                            x       y       z     vdW  Elec       q    Type
REMARK                         _______ _______ _______ _____ _____    ______ ____
ROOT
ATOM      6  C   UNL     1      -0.904   1.467  25.153  0.00  0.00    +0.161 C 
ATOM      7  C   UNL     1      -0.175   1.698  24.842  0.00  0.00    +0.173 C 
ATOM      8  O   UNL     1       0.028   2.412  24.483  0.00  0.00    -0.350 OA
ATOM      9  C   UNL     1      -0.448   3.073  24.347  0.00  0.00    +0.160 C 
ATOM     10  C   UNL     1      -1.243   3.182  24.535  0.00  0.00    +0.105 C 
ATOM     11  N   UNL     1      -1.760   2.657  24.906  0.00  0.00    -0.270 NA
ATOM     12  C   UNL     1      -1.609   1.895  25.181  0.00  0.00    +0.105 C 
ENDROOT
BRANCH  11  13
ATOM     13  C   UNL     1      -2.530   2.932  25.018  0.00  0.00    +0.060 C 
ATOM     14  C   UNL     1      -2.701   3.434  25.650  0.00  0.00    +0.033 C 
ATOM     15  C   UNL     1      -3.471   3.708  25.761  0.00  0.00    +0.074 C 
ATOM     16  N   UNL     1      -4.070   3.482  25.240  0.00  0.00    -0.271 NA
ATOM     17  C   UNL     1      -4.840   3.757  25.353  0.00  0.00    +0.090 C 
ATOM     18  C   UNL     1      -3.898   2.980  24.609  0.00  0.00    +0.074 C 
ATOM     19  C   UNL     1      -3.128   2.705  24.497  0.00  0.00    +0.033 C 
ENDBRANCH  11  13
BRANCH   6   5
ATOM      5  O   UNL     1      -0.931   0.709  25.478  0.00  0.00    -0.350 OA
BRANCH   5   4
ATOM      4  C   UNL     1      -0.831   0.049  24.994  0.00  0.00    +0.174 C 
BRANCH   4   3
ATOM      3  C   UNL     1      -1.017  -0.702  25.279  0.00  0.00    +0.174 C 
BRANCH   3   2
ATOM      1  C   UNL     1      -1.389  -2.008  24.832  0.00  0.00    +0.174 C 
ATOM      2  O   UNL     1      -0.869  -1.368  24.815  0.00  0.00    -0.348 OA
ENDBRANCH   3   2
ENDBRANCH   4   3
ENDBRANCH   5   4
ENDBRANCH   6   5
TORSDOF 5
ENDMDL
