MODEL 1
REMARK VINA RESULT:      -9.8      0.000      0.000
REMARK  Name = 
REMARK  10 active torsions:
REMARK  status: ('A' for Active; 'I' for Inactive)
REMARK    1  A    between atoms: O_2  and  C_3
REMARK    2  A    between atoms: C_6  and  C_9
REMARK    3  A    between atoms: C_12  and  C_13
REMARK    4  A    between atoms: C_13  and  C_14
REMARK    5  A    between atoms: C_16  and  C_17
REMARK    6  A    between atoms: C_20  and  C_21
REMARK    7  A    between atoms: C_21  and  N_22
REMARK    8  A    between atoms: N_22  and  C_24
REMARK    9  A    between atoms: C_24  and  C_25
REMARK   10  A    between atoms: C_25  and  C_26
REMARK                            x       y       z     vdW  Elec       q    Type
REMARK                         _______ _______ _______ _____ _____    ______ ____
ROOT
ATOM     14  C   UNL     1      -3.887   2.898  24.431  0.00  0.00    +0.027 C 
ATOM     15  C   UNL     1      -3.950   3.219  25.188  0.00  0.00    +0.005 C 
ATOM     16  C   UNL     1      -3.339   3.681  25.492  0.00  0.00    +0.006 C 
ATOM     20  C   UNL     1      -2.665   3.825  25.038  0.00  0.00    +0.037 C 
ATOM     28  C   UNL     1      -2.602   3.504  24.281  0.00  0.00    -0.034 C 
ATOM     29  C   UNL     1      -3.214   3.041  23.976  0.00  0.00    -0.048 C 
ATOM     30  C   UNL     1      -3.151   2.720  23.220  0.00  0.00    +0.026 C 
ENDROOT
BRANCH  16  17
ATOM     17  C   UNL     1      -3.402   4.002  26.250  0.00  0.00    +0.000 C 
ATOM     18  C   UNL     1      -3.172   3.557  26.906  0.00  0.00    +0.000 C 
ATOM     19  C   UNL     1      -3.694   4.766  26.352  0.00  0.00    +0.000 C 
ENDBRANCH  16  17
BRANCH  14  13
ATOM     13  C   UNL     1      -4.498   2.435  24.126  0.00  0.00    +0.091 C 
BRANCH  13  12
ATOM      9  C   UNL     1      -4.513   0.389  24.740  0.00  0.00    +0.250 A 
ATOM     10  N   UNL     1      -5.204   0.667  25.094  0.00  0.00    -0.107 NA
ATOM     11  N   UNL     1      -5.282   1.467  24.907  0.00  0.00    -0.111 NA
ATOM     12  C   UNL     1      -4.640   1.683  24.438  0.00  0.00    +0.227 A 
ATOM     31  O   UNL     1      -4.164   1.017  24.334  0.00  0.00    -0.420 OA
BRANCH   9   6
ATOM      3  C   UNL     1      -3.637  -1.922  24.867  0.00  0.00    +0.139 A 
ATOM      4  C   UNL     1      -4.068  -1.680  24.207  0.00  0.00    +0.037 A 
ATOM      5  C   UNL     1      -4.361  -0.910  24.165  0.00  0.00    +0.008 A 
ATOM      6  C   UNL     1      -4.220  -0.381  24.783  0.00  0.00    +0.055 A 
ATOM      7  C   UNL     1      -3.789  -0.623  25.442  0.00  0.00    +0.008 A 
ATOM      8  C   UNL     1      -3.497  -1.393  25.485  0.00  0.00    +0.037 A 
BRANCH   3   2
ATOM      1  C   UNL     1      -2.629  -2.882  24.545  0.00  0.00    +0.252 C 
ATOM      2  O   UNL     1      -3.344  -2.693  24.909  0.00  0.00    -0.471 OA
ENDBRANCH   3   2
ENDBRANCH   9   6
ENDBRANCH  13  12
ENDBRANCH  14  13
BRANCH  20  21
ATOM     21  C   UNL     1      -2.053   4.288  25.342  0.00  0.00    +0.076 C 
BRANCH  21  22
ATOM     22  N   UNL     1      -1.286   4.201  25.052  0.00  0.00    -0.270 NA
ATOM     23  C   UNL     1      -0.955   4.789  24.579  0.00  0.00    +0.090 C 
BRANCH  22  24
ATOM     24  C   UNL     1      -0.850   3.525  25.235  0.00  0.00    +0.088 C 
BRANCH  24  25
ATOM     25  C   UNL     1      -0.071   3.594  25.496  0.00  0.00    +0.123 C 
BRANCH  25  26
ATOM     26  C   UNL     1       0.274   2.987  25.934  0.00  0.00    +0.075 C 
ATOM     27  N   UNL     1       0.619   2.378  26.373  0.00  0.00    -0.196 NA
ENDBRANCH  25  26
ENDBRANCH  24  25
ENDBRANCH  22  24
ENDBRANCH  21  22
ENDBRANCH  20  21
TORSDOF 10
ENDMDL
MODEL 2
REMARK VINA RESULT:      -9.4      1.377      2.503
REMARK  Name = 
REMARK  10 active torsions:
REMARK  status: ('A' for Active; 'I' for Inactive)
REMARK    1  A    between atoms: O_2  and  C_3
REMARK    2  A    between atoms: C_6  and  C_9
REMARK    3  A    between atoms: C_12  and  C_13
REMARK    4  A    between atoms: C_13  and  C_14
REMARK    5  A    between atoms: C_16  and  C_17
REMARK    6  A    between atoms: C_20  and  C_21
REMARK    7  A    between atoms: C_21  and  N_22
REMARK    8  A    between atoms: N_22  and  C_24
REMARK    9  A    between atoms: C_24  and  C_25
REMARK   10  A    between atoms: C_25  and  C_26
REMARK                            x       y       z     vdW  Elec       q    Type
REMARK                         _______ _______ _______ _____ _____    ______ ____
ROOT
ATOM     14  C   UNL     1      -4.545   1.295  24.602  0.00  0.00    +0.027 C 
ATOM     15  C   UNL     1      -4.093   1.450  23.929  0.00  0.00    +0.005 C 
ATOM     16  C   UNL     1      -3.734   2.186  23.835  0.00  0.00    +0.006 C 
ATOM     20  C   UNL     1      -3.826   2.768  24.412  0.00  0.00    +0.037 C 
ATOM     28  C   UNL     1      -4.277   2.613  25.085  0.00  0.00    -0.034 C 
ATOM     29  C   UNL     1      -4.637   1.876  25.180  0.00  0.00    -0.048 C 
ATOM     30  C   UNL     1      -5.088   1.722  25.852  0.00  0.00    +0.026 C 
ENDROOT
BRANCH  16  17
ATOM     17  C   UNL     1      -3.282   2.340  23.161  0.00  0.00    +0.000 C 
ATOM     18  C   UNL     1      -2.505   2.068  23.115  0.00  0.00    +0.000 C 
ATOM     19  C   UNL     1      -3.608   2.767  22.535  0.00  0.00    +0.000 C 
ENDBRANCH  16  17
BRANCH  14  13
ATOM     13  C   UNL     1      -4.905   0.559  24.698  0.00  0.00    +0.091 C 
BRANCH  13  12
ATOM      9  C   UNL     1      -3.510  -1.053  24.560  0.00  0.00    +0.250 A 
ATOM     10  N   UNL     1      -4.126  -1.333  24.087  0.00  0.00    -0.107 NA
ATOM     11  N   UNL     1      -4.723  -0.763  24.081  0.00  0.00    -0.111 NA
ATOM     12  C   UNL     1      -4.477  -0.131  24.550  0.00  0.00    +0.227 A 
ATOM     31  O   UNL     1      -3.727  -0.310  24.847  0.00  0.00    -0.420 OA
BRANCH   9   6
ATOM      3  C   UNL     1      -1.388  -2.232  25.036  0.00  0.00    +0.139 A 
ATOM      4  C   UNL     1      -1.939  -2.567  24.524  0.00  0.00    +0.037 A 
ATOM      5  C   UNL     1      -2.648  -2.175  24.365  0.00  0.00    +0.008 A 
ATOM      6  C   UNL     1      -2.803  -1.445  24.719  0.00  0.00    +0.055 A 
ATOM      7  C   UNL     1      -2.250  -1.110  25.231  0.00  0.00    +0.008 A 
ATOM      8  C   UNL     1      -1.543  -1.503  25.391  0.00  0.00    +0.037 A 
BRANCH   3   2
ATOM      1  C   UNL     1       0.017  -2.195  25.298  0.00  0.00    +0.252 C 
ATOM      2  O   UNL     1      -0.680  -2.625  25.195  0.00  0.00    -0.471 OA
ENDBRANCH   3   2
ENDBRANCH   9   6
ENDBRANCH  13  12
ENDBRANCH  14  13
BRANCH  20  21
ATOM     21  C   UNL     1      -3.466   3.505  24.318  0.00  0.00    +0.076 C 
BRANCH  21  22
ATOM     22  N   UNL     1      -3.302   3.972  24.977  0.00  0.00    -0.270 NA
ATOM     23  C   UNL     1      -3.917   4.345  25.381  0.00  0.00    +0.090 C 
BRANCH  22  24
ATOM     24  C   UNL     1      -2.524   4.065  25.233  0.00  0.00    +0.088 C 
BRANCH  24  25
ATOM     25  C   UNL     1      -2.213   4.821  25.342  0.00  0.00    +0.123 C 
BRANCH  25  26
ATOM     26  C   UNL     1      -1.421   4.971  25.169  0.00  0.00    +0.075 C 
ATOM     27  N   UNL     1      -0.627   5.121  24.996  0.00  0.00    -0.196 NA
ENDBRANCH  25  26
ENDBRANCH  24  25
ENDBRANCH  22  24
ENDBRANCH  21  22
ENDBRANCH  20  21
TORSDOF 10
ENDMDL
MODEL 3
REMARK VINA RESULT:      -9.4      2.860      4.349
REMARK  Name = 
REMARK  10 active torsions:
REMARK  status: ('A' for Active; 'I' for Inactive)
REMARK    1  A    between atoms: O_2  and  C_3
REMARK    2  A    between atoms: C_6  and  C_9
REMARK    3  A    between atoms: C_12  and  C_13
REMARK    4  A    between atoms: C_13  and  C_14
REMARK    5  A    between atoms: C_16  and  C_17
REMARK    6  A    between atoms: C_20  and  C_21
REMARK    7  A    between atoms: C_21  and  N_22
REMARK    8  A    between atoms: N_22  and  C_24
REMARK    9  A    between atoms: C_24  and  C_25
REMARK   10  A    between atoms: C_25  and  C_26
REMARK                            x       y       z     vdW  Elec       q    Type
REMARK                         _______ _______ _______ _____ _____    ______ ____
ROOT
ATOM     14  C   UNL     1      -1.258  -0.232  24.688  0.00  0.00    +0.027 C 
ATOM     15  C   UNL     1      -1.122   0.582  24.674  0.00  0.00    +0.005 C 
ATOM     16  C   UNL     1      -0.460   0.882  24.285  0.00  0.00    +0.006 C 
ATOM     20  C   UNL     1       0.067   0.369  23.910  0.00  0.00    +0.037 C 
ATOM     28  C   UNL     1      -0.070  -0.445  23.924  0.00  0.00    -0.034 C 
ATOM     29  C   UNL     1      -0.733  -0.745  24.314  0.00  0.00    -0.048 C 
ATOM     30  C   UNL     1      -0.869  -1.558  24.328  0.00  0.00    +0.026 C 
ENDROOT
BRANCH  16  17
ATOM     17  C   UNL     1      -0.323   1.696  24.270  0.00  0.00    +0.000 C 
ATOM     18  C   UNL     1      -0.630   2.155  23.657  0.00  0.00    +0.000 C 
ATOM     19  C   UNL     1       0.119   2.050  24.869  0.00  0.00    +0.000 C 
ENDBRANCH  16  17
BRANCH  14  13
ATOM     13  C   UNL     1      -1.921  -0.533  25.077  0.00  0.00    +0.091 C 
BRANCH  13  12
ATOM      9  C   UNL     1      -3.778   0.484  24.795  0.00  0.00    +0.250 A 
ATOM     10  N   UNL     1      -3.891  -0.189  24.331  0.00  0.00    -0.107 NA
ATOM     11  N   UNL     1      -3.210  -0.651  24.380  0.00  0.00    -0.111 NA
ATOM     12  C   UNL     1      -2.675  -0.265  24.875  0.00  0.00    +0.227 A 
ATOM     31  O   UNL     1      -3.026   0.437  25.132  0.00  0.00    -0.420 OA
BRANCH   9   6
ATOM      3  C   UNL     1      -5.405   2.318  25.126  0.00  0.00    +0.139 A 
ATOM      4  C   UNL     1      -5.514   1.597  25.509  0.00  0.00    +0.037 A 
ATOM      5  C   UNL     1      -4.972   0.984  25.399  0.00  0.00    +0.008 A 
ATOM      6  C   UNL     1      -4.320   1.095  24.905  0.00  0.00    +0.055 A 
ATOM      7  C   UNL     1      -4.211   1.818  24.522  0.00  0.00    +0.008 A 
ATOM      8  C   UNL     1      -4.753   2.429  24.632  0.00  0.00    +0.037 A 
BRANCH   3   2
ATOM      1  C   UNL     1      -5.704   3.642  25.575  0.00  0.00    +0.252 C 
ATOM      2  O   UNL     1      -5.948   2.930  25.236  0.00  0.00    -0.471 OA
ENDBRANCH   3   2
ENDBRANCH   9   6
ENDBRANCH  13  12
ENDBRANCH  14  13
BRANCH  20  21
ATOM     21  C   UNL     1       0.729   0.669  23.520  0.00  0.00    +0.076 C 
BRANCH  21  22
ATOM     22  N   UNL     1       1.183   0.176  23.039  0.00  0.00    -0.270 NA
ATOM     23  C   UNL     1       0.826  -0.247  22.428  0.00  0.00    +0.090 C 
BRANCH  22  24
ATOM     24  C   UNL     1       1.995   0.107  23.169  0.00  0.00    +0.088 C 
BRANCH  24  25
ATOM     25  C   UNL     1       2.523   0.209  22.543  0.00  0.00    +0.123 C 
BRANCH  25  26
ATOM     26  C   UNL     1       3.312   0.396  22.695  0.00  0.00    +0.075 C 
ATOM     27  N   UNL     1       4.101   0.584  22.847  0.00  0.00    -0.196 NA
ENDBRANCH  25  26
ENDBRANCH  24  25
ENDBRANCH  22  24
ENDBRANCH  21  22
ENDBRANCH  20  21
TORSDOF 10
ENDMDL
MODEL 4
REMARK VINA RESULT:      -9.4      1.779      3.425
REMARK  Name = 
REMARK  10 active torsions:
REMARK  status: ('A' for Active; 'I' for Inactive)
REMARK    1  A    between atoms: O_2  and  C_3
REMARK    2  A    between atoms: C_6  and  C_9
REMARK    3  A    between atoms: C_12  and  C_13
REMARK    4  A    between atoms: C_13  and  C_14
REMARK    5  A    between atoms: C_16  and  C_17
REMARK    6  A    between atoms: C_20  and  C_21
REMARK    7  A    between atoms: C_21  and  N_22
REMARK    8  A    between atoms: N_22  and  C_24
REMARK    9  A    between atoms: C_24  and  C_25
REMARK   10  A    between atoms: C_25  and  C_26
REMARK                            x       y       z     vdW  Elec       q    Type
REMARK                         _______ _______ _______ _____ _____    ______ ____
ROOT
ATOM     14  C   UNL     1      -1.040   1.645  24.616  0.00  0.00    +0.027 C 
ATOM     15  C   UNL     1      -1.485   1.619  23.921  0.00  0.00    +0.005 C 
ATOM     16  C   UNL     1      -2.099   2.157  23.805  0.00  0.00    +0.006 C 
ATOM     20  C   UNL     1      -2.269   2.721  24.382  0.00  0.00    +0.037 C 
ATOM     28  C   UNL     1      -1.824   2.747  25.077  0.00  0.00    -0.034 C 
ATOM     29  C   UNL     1      -1.210   2.208  25.194  0.00  0.00    -0.048 C 
ATOM     30  C   UNL     1      -0.766   2.233  25.888  0.00  0.00    +0.026 C 
ENDROOT
BRANCH  16  17
ATOM     17  C   UNL     1      -2.544   2.132  23.109  0.00  0.00    +0.000 C 
ATOM     18  C   UNL     1      -2.304   2.567  22.450  0.00  0.00    +0.000 C 
ATOM     19  C   UNL     1      -3.227   1.672  23.074  0.00  0.00    +0.000 C 
ENDBRANCH  16  17
BRANCH  14  13
ATOM     13  C   UNL     1      -0.426   1.107  24.733  0.00  0.00    +0.091 C 
BRANCH  13  12
ATOM      9  C   UNL     1      -1.187  -0.888  24.651  0.00  0.00    +0.250 A 
ATOM     10  N   UNL     1      -0.393  -1.012  24.466  0.00  0.00    -0.107 NA
ATOM     11  N   UNL     1      -0.012  -0.280  24.474  0.00  0.00    -0.111 NA
ATOM     12  C   UNL     1      -0.570   0.296  24.664  0.00  0.00    +0.227 A 
ATOM     31  O   UNL     1      -1.297  -0.079  24.774  0.00  0.00    -0.420 OA
BRANCH   9   6
ATOM      3  C   UNL     1      -2.935  -2.631  24.811  0.00  0.00    +0.139 A 
ATOM      4  C   UNL     1      -2.280  -2.749  24.326  0.00  0.00    +0.037 A 
ATOM      5  C   UNL     1      -1.696  -2.167  24.272  0.00  0.00    +0.008 A 
ATOM      6  C   UNL     1      -1.770  -1.468  24.705  0.00  0.00    +0.055 A 
ATOM      7  C   UNL     1      -2.426  -1.352  25.191  0.00  0.00    +0.008 A 
ATOM      8  C   UNL     1      -3.009  -1.933  25.244  0.00  0.00    +0.037 A 
BRANCH   3   2
ATOM      1  C   UNL     1      -4.090  -3.279  24.273  0.00  0.00    +0.252 C 
ATOM      2  O   UNL     1      -3.518  -3.213  24.864  0.00  0.00    -0.471 OA
ENDBRANCH   3   2
ENDBRANCH   9   6
ENDBRANCH  13  12
ENDBRANCH  14  13
BRANCH  20  21
ATOM     21  C   UNL     1      -2.883   3.260  24.266  0.00  0.00    +0.076 C 
BRANCH  21  22
ATOM     22  N   UNL     1      -3.181   3.690  24.904  0.00  0.00    -0.270 NA
ATOM     23  C   UNL     1      -2.816   4.392  25.135  0.00  0.00    +0.090 C 
BRANCH  22  24
ATOM     24  C   UNL     1      -3.845   3.418  25.310  0.00  0.00    +0.088 C 
BRANCH  24  25
ATOM     25  C   UNL     1      -4.509   3.901  25.388  0.00  0.00    +0.123 C 
BRANCH  25  26
ATOM     26  C   UNL     1      -5.221   3.585  25.658  0.00  0.00    +0.075 C 
ATOM     27  N   UNL     1      -5.934   3.268  25.928  0.00  0.00    -0.196 NA
ENDBRANCH  25  26
ENDBRANCH  24  25
ENDBRANCH  22  24
ENDBRANCH  21  22
ENDBRANCH  20  21
TORSDOF 10
ENDMDL
MODEL 5
REMARK VINA RESULT:      -9.3      1.724      3.111
REMARK  Name = 
REMARK  10 active torsions:
REMARK  status: ('A' for Active; 'I' for Inactive)
REMARK    1  A    between atoms: O_2  and  C_3
REMARK    2  A    between atoms: C_6  and  C_9
REMARK    3  A    between atoms: C_12  and  C_13
REMARK    4  A    between atoms: C_13  and  C_14
REMARK    5  A    between atoms: C_16  and  C_17
REMARK    6  A    between atoms: C_20  and  C_21
REMARK    7  A    between atoms: C_21  and  N_22
REMARK    8  A    between atoms: N_22  and  C_24
REMARK    9  A    between atoms: C_24  and  C_25
REMARK   10  A    between atoms: C_25  and  C_26
REMARK                            x       y       z     vdW  Elec       q    Type
REMARK                         _______ _______ _______ _____ _____    ______ ____
ROOT
ATOM     14  C   UNL     1      -1.483   2.150  23.822  0.00  0.00    +0.027 C 
ATOM     15  C   UNL     1      -1.240   2.551  24.501  0.00  0.00    +0.005 C 
ATOM     16  C   UNL     1      -1.728   3.124  24.837  0.00  0.00    +0.006 C 
ATOM     20  C   UNL     1      -2.458   3.298  24.495  0.00  0.00    +0.037 C 
ATOM     28  C   UNL     1      -2.701   2.897  23.816  0.00  0.00    -0.034 C 
ATOM     29  C   UNL     1      -2.213   2.322  23.479  0.00  0.00    -0.048 C 
ATOM     30  C   UNL     1      -2.455   1.922  22.801  0.00  0.00    +0.026 C 
ENDROOT
BRANCH  16  17
ATOM     17  C   UNL     1      -1.485   3.526  25.517  0.00  0.00    +0.000 C 
ATOM     18  C   UNL     1      -1.579   3.175  26.258  0.00  0.00    +0.000 C 
ATOM     19  C   UNL     1      -1.149   4.276  25.454  0.00  0.00    +0.000 C 
ENDBRANCH  16  17
BRANCH  14  13
ATOM     13  C   UNL     1      -0.996   1.575  23.486  0.00  0.00    +0.091 C 
BRANCH  13  12
ATOM      9  C   UNL     1      -1.216  -0.376  24.324  0.00  0.00    +0.250 A 
ATOM     10  N   UNL     1      -0.414  -0.234  24.459  0.00  0.00    -0.107 NA
ATOM     11  N   UNL     1      -0.235   0.514  24.161  0.00  0.00    -0.111 NA
ATOM     12  C   UNL     1      -0.924   0.834  23.843  0.00  0.00    +0.227 A 
ATOM     31  O   UNL     1      -1.532   0.284  23.943  0.00  0.00    -0.420 OA
BRANCH   9   6
ATOM      3  C   UNL     1      -2.460  -2.421  24.953  0.00  0.00    +0.139 A 
ATOM      4  C   UNL     1      -2.744  -1.680  25.178  0.00  0.00    +0.037 A 
ATOM      5  C   UNL     1      -2.329  -0.998  24.969  0.00  0.00    +0.008 A 
ATOM      6  C   UNL     1      -1.630  -1.058  24.534  0.00  0.00    +0.055 A 
ATOM      7  C   UNL     1      -1.347  -1.799  24.309  0.00  0.00    +0.008 A 
ATOM      8  C   UNL     1      -1.762  -2.481  24.518  0.00  0.00    +0.037 A 
BRANCH   3   2
ATOM      1  C   UNL     1      -3.608  -3.262  24.817  0.00  0.00    +0.252 C 
ATOM      2  O   UNL     1      -2.876  -3.102  25.163  0.00  0.00    -0.471 OA
ENDBRANCH   3   2
ENDBRANCH   9   6
ENDBRANCH  13  12
ENDBRANCH  14  13
BRANCH  20  21
ATOM     21  C   UNL     1      -2.947   3.872  24.831  0.00  0.00    +0.076 C 
BRANCH  21  22
ATOM     22  N   UNL     1      -3.759   3.858  24.688  0.00  0.00    -0.270 NA
ATOM     23  C   UNL     1      -4.075   4.293  24.062  0.00  0.00    +0.090 C 
BRANCH  22  24
ATOM     24  C   UNL     1      -4.255   3.411  25.171  0.00  0.00    +0.088 C 
BRANCH  24  25
ATOM     25  C   UNL     1      -5.021   3.671  25.331  0.00  0.00    +0.123 C 
BRANCH  25  26
ATOM     26  C   UNL     1      -5.525   3.212  25.794  0.00  0.00    +0.075 C 
ATOM     27  N   UNL     1      -6.030   2.752  26.258  0.00  0.00    -0.196 NA
ENDBRANCH  25  26
ENDBRANCH  24  25
ENDBRANCH  22  24
ENDBRANCH  21  22
ENDBRANCH  20  21
TORSDOF 10
ENDMDL
MODEL 6
REMARK VINA RESULT:      -9.3      1.907      3.785
REMARK  Name = 
REMARK  10 active torsions:
REMARK  status: ('A' for Active; 'I' for Inactive)
REMARK    1  A    between atoms: O_2  and  C_3
REMARK    2  A    between atoms: C_6  and  C_9
REMARK    3  A    between atoms: C_12  and  C_13
REMARK    4  A    between atoms: C_13  and  C_14
REMARK    5  A    between atoms: C_16  and  C_17
REMARK    6  A    between atoms: C_20  and  C_21
REMARK    7  A    between atoms: C_21  and  N_22
REMARK    8  A    between atoms: N_22  and  C_24
REMARK    9  A    between atoms: C_24  and  C_25
REMARK   10  A    between atoms: C_25  and  C_26
REMARK                            x       y       z     vdW  Elec       q    Type
REMARK                         _______ _______ _______ _____ _____    ______ ____
ROOT
ATOM     14  C   UNL     1      -1.877   3.156  24.844  0.00  0.00    +0.027 C 
ATOM     15  C   UNL     1      -2.246   2.892  24.155  0.00  0.00    +0.005 C 
ATOM     16  C   UNL     1      -3.063   2.966  24.071  0.00  0.00    +0.006 C 
ATOM     20  C   UNL     1      -3.512   3.304  24.676  0.00  0.00    +0.037 C 
ATOM     28  C   UNL     1      -3.142   3.568  25.365  0.00  0.00    -0.034 C 
ATOM     29  C   UNL     1      -2.324   3.494  25.449  0.00  0.00    -0.048 C 
ATOM     30  C   UNL     1      -1.955   3.757  26.137  0.00  0.00    +0.026 C 
ENDROOT
BRANCH  16  17
ATOM     17  C   UNL     1      -3.433   2.702  23.382  0.00  0.00    +0.000 C 
ATOM     18  C   UNL     1      -3.641   1.908  23.304  0.00  0.00    +0.000 C 
ATOM     19  C   UNL     1      -3.593   3.232  22.771  0.00  0.00    +0.000 C 
ENDBRANCH  16  17
BRANCH  14  13
ATOM     13  C   UNL     1      -1.060   3.082  24.929  0.00  0.00    +0.091 C 
BRANCH  13  12
ATOM      9  C   UNL     1      -0.480   1.032  24.772  0.00  0.00    +0.250 A 
ATOM     10  N   UNL     1       0.197   1.412  24.492  0.00  0.00    -0.107 NA
ATOM     11  N   UNL     1       0.062   2.226  24.516  0.00  0.00    -0.111 NA
ATOM     12  C   UNL     1      -0.698   2.349  24.812  0.00  0.00    +0.227 A 
ATOM     31  O   UNL     1      -1.033   1.612  24.971  0.00  0.00    -0.420 OA
BRANCH   9   6
ATOM      3  C   UNL     1      -0.797  -1.413  24.982  0.00  0.00    +0.139 A 
ATOM      4  C   UNL     1      -0.472  -1.097  24.294  0.00  0.00    +0.037 A 
ATOM      5  C   UNL     1      -0.365  -0.281  24.224  0.00  0.00    +0.008 A 
ATOM      6  C   UNL     1      -0.586   0.218  24.843  0.00  0.00    +0.055 A 
ATOM      7  C   UNL     1      -0.912  -0.099  25.531  0.00  0.00    +0.008 A 
ATOM      8  C   UNL     1      -1.018  -0.913  25.602  0.00  0.00    +0.037 A 
BRANCH   3   2
ATOM      1  C   UNL     1      -1.574  -2.586  24.730  0.00  0.00    +0.252 C 
ATOM      2  O   UNL     1      -0.903  -2.228  25.052  0.00  0.00    -0.471 OA
ENDBRANCH   3   2
ENDBRANCH   9   6
ENDBRANCH  13  12
ENDBRANCH  14  13
BRANCH  20  21
ATOM     21  C   UNL     1      -4.329   3.379  24.592  0.00  0.00    +0.076 C 
BRANCH  21  22
ATOM     22  N   UNL     1      -4.802   3.511  25.255  0.00  0.00    -0.270 NA
ATOM     23  C   UNL     1      -4.965   4.283  25.497  0.00  0.00    +0.090 C 
BRANCH  22  24
ATOM     24  C   UNL     1      -5.111   2.873  25.675  0.00  0.00    +0.088 C 
BRANCH  24  25
ATOM     25  C   UNL     1      -5.917   2.846  25.850  0.00  0.00    +0.123 C 
BRANCH  25  26
ATOM     26  C   UNL     1      -6.239   2.177  26.209  0.00  0.00    +0.075 C 
ATOM     27  N   UNL     1      -6.561   1.508  26.570  0.00  0.00    -0.196 NA
ENDBRANCH  25  26
ENDBRANCH  24  25
ENDBRANCH  22  24
ENDBRANCH  21  22
ENDBRANCH  20  21
TORSDOF 10
ENDMDL
MODEL 7
REMARK VINA RESULT:      -8.9      2.301      3.849
REMARK  Name = 
REMARK  10 active torsions:
REMARK  status: ('A' for Active; 'I' for Inactive)
REMARK    1  A    between atoms: O_2  and  C_3
REMARK    2  A    between atoms: C_6  and  C_9
REMARK    3  A    between atoms: C_12  and  C_13
REMARK    4  A    between atoms: C_13  and  C_14
REMARK    5  A    between atoms: C_16  and  C_17
REMARK    6  A    between atoms: C_20  and  C_21
REMARK    7  A    between atoms: C_21  and  N_22
REMARK    8  A    between atoms: N_22  and  C_24
REMARK    9  A    between atoms: C_24  and  C_25
REMARK   10  A    between atoms: C_25  and  C_26
REMARK                            x       y       z     vdW  Elec       q    Type
REMARK                         _______ _______ _______ _____ _____    ______ ____
ROOT
ATOM     14  C   UNL     1      -2.002   2.512  23.673  0.00  0.00    +0.027 C 
ATOM     15  C   UNL     1      -1.559   2.683  24.347  0.00  0.00    +0.005 C 
ATOM     16  C   UNL     1      -0.974   2.160  24.600  0.00  0.00    +0.006 C 
ATOM     20  C   UNL     1      -0.832   1.465  24.179  0.00  0.00    +0.037 C 
ATOM     28  C   UNL     1      -1.275   1.293  23.505  0.00  0.00    -0.034 C 
ATOM     29  C   UNL     1      -1.861   1.817  23.251  0.00  0.00    -0.048 C 
ATOM     30  C   UNL     1      -2.304   1.646  22.578  0.00  0.00    +0.026 C 
ENDROOT
BRANCH  16  17
ATOM     17  C   UNL     1      -0.530   2.332  25.275  0.00  0.00    +0.000 C 
ATOM     18  C   UNL     1      -0.802   2.097  26.018  0.00  0.00    +0.000 C 
ATOM     19  C   UNL     1       0.184   2.737  25.206  0.00  0.00    +0.000 C 
ENDBRANCH  16  17
BRANCH  14  13
ATOM     13  C   UNL     1      -2.588   3.035  23.420  0.00  0.00    +0.091 C 
BRANCH  13  12
ATOM      9  C   UNL     1      -4.315   3.063  24.676  0.00  0.00    +0.250 A 
ATOM     10  N   UNL     1      -4.120   3.865  24.654  0.00  0.00    -0.107 NA
ATOM     11  N   UNL     1      -3.449   3.951  24.181  0.00  0.00    -0.111 NA
ATOM     12  C   UNL     1      -3.230   3.204  23.910  0.00  0.00    +0.227 A 
ATOM     31  O   UNL     1      -3.764   2.654  24.216  0.00  0.00    -0.420 OA
BRANCH   9   6
ATOM      3  C   UNL     1      -6.213   2.059  25.905  0.00  0.00    +0.139 A 
ATOM      4  C   UNL     1      -5.789   2.682  26.239  0.00  0.00    +0.037 A 
ATOM      5  C   UNL     1      -5.156   3.017  25.830  0.00  0.00    +0.008 A 
ATOM      6  C   UNL     1      -4.947   2.728  25.085  0.00  0.00    +0.055 A 
ATOM      7  C   UNL     1      -5.372   2.105  24.751  0.00  0.00    +0.008 A 
ATOM      8  C   UNL     1      -6.005   1.770  25.160  0.00  0.00    +0.037 A 
BRANCH   3   2
ATOM      1  C   UNL     1      -6.745   1.470  27.094  0.00  0.00    +0.252 C 
ATOM      2  O   UNL     1      -6.846   1.724  26.315  0.00  0.00    -0.471 OA
ENDBRANCH   3   2
ENDBRANCH   9   6
ENDBRANCH  13  12
ENDBRANCH  14  13
BRANCH  20  21
ATOM     21  C   UNL     1      -0.247   0.941  24.431  0.00  0.00    +0.076 C 
BRANCH  21  22
ATOM     22  N   UNL     1      -0.204   0.183  24.109  0.00  0.00    -0.270 NA
ATOM     23  C   UNL     1       0.303   0.033  23.475  0.00  0.00    +0.090 C 
BRANCH  22  24
ATOM     24  C   UNL     1      -0.667  -0.424  24.419  0.00  0.00    +0.088 C 
BRANCH  24  25
ATOM     25  C   UNL     1      -0.347  -1.179  24.518  0.00  0.00    +0.123 C 
BRANCH  25  26
ATOM     26  C   UNL     1      -0.825  -1.800  24.771  0.00  0.00    +0.075 C 
ATOM     27  N   UNL     1      -1.304  -2.423  25.025  0.00  0.00    -0.196 NA
ENDBRANCH  25  26
ENDBRANCH  24  25
ENDBRANCH  22  24
ENDBRANCH  21  22
ENDBRANCH  20  21
TORSDOF 10
ENDMDL
MODEL 8
REMARK VINA RESULT:      -8.7      2.333      5.281
REMARK  Name = 
REMARK  10 active torsions:
REMARK  status: ('A' for Active; 'I' for Inactive)
REMARK    1  A    between atoms: O_2  and  C_3
REMARK    2  A    between atoms: C_6  and  C_9
REMARK    3  A    between atoms: C_12  and  C_13
REMARK    4  A    between atoms: C_13  and  C_14
REMARK    5  A    between atoms: C_16  and  C_17
REMARK    6  A    between atoms: C_20  and  C_21
REMARK    7  A    between atoms: C_21  and  N_22
REMARK    8  A    between atoms: N_22  and  C_24
REMARK    9  A    between atoms: C_24  and  C_25
REMARK   10  A    between atoms: C_25  and  C_26
REMARK                            x       y       z     vdW  Elec       q    Type
REMARK                         _______ _______ _______ _____ _____    ______ ____
ROOT
ATOM     14  C   UNL     1      -0.398   1.539  25.337  0.00  0.00    +0.027 C 
ATOM     15  C   UNL     1      -0.255   1.429  24.532  0.00  0.00    +0.005 C 
ATOM     16  C   UNL     1      -0.316   0.676  24.202  0.00  0.00    +0.006 C 
ATOM     20  C   UNL     1      -0.519   0.032  24.677  0.00  0.00    +0.037 C 
ATOM     28  C   UNL     1      -0.661   0.142  25.482  0.00  0.00    -0.034 C 
ATOM     29  C   UNL     1      -0.601   0.896  25.812  0.00  0.00    -0.048 C 
ATOM     30  C   UNL     1      -0.743   1.007  26.616  0.00  0.00    +0.026 C 
ENDROOT
BRANCH  16  17
ATOM     17  C   UNL     1      -0.173   0.565  23.396  0.00  0.00    +0.000 C 
ATOM     18  C   UNL     1      -0.773   0.708  22.848  0.00  0.00    +0.000 C 
ATOM     19  C   UNL     1       0.568   0.312  23.140  0.00  0.00    +0.000 C 
ENDBRANCH  16  17
BRANCH  14  13
ATOM     13  C   UNL     1      -0.337   2.292  25.668  0.00  0.00    +0.091 C 
BRANCH  13  12
ATOM      9  C   UNL     1      -2.088   3.474  25.352  0.00  0.00    +0.250 A 
ATOM     10  N   UNL     1      -1.496   4.006  25.137  0.00  0.00    -0.107 NA
ATOM     11  N   UNL     1      -0.768   3.628  25.229  0.00  0.00    -0.111 NA
ATOM     12  C   UNL     1      -0.910   2.863  25.501  0.00  0.00    +0.227 A 
ATOM     31  O   UNL     1      -1.727   2.767  25.577  0.00  0.00    -0.420 OA
BRANCH   9   6
ATOM      3  C   UNL     1      -4.523   3.916  25.330  0.00  0.00    +0.139 A 
ATOM      4  C   UNL     1      -4.095   4.000  26.029  0.00  0.00    +0.037 A 
ATOM      5  C   UNL     1      -3.283   3.853  26.037  0.00  0.00    +0.008 A 
ATOM      6  C   UNL     1      -2.900   3.621  25.344  0.00  0.00    +0.055 A 
ATOM      7  C   UNL     1      -3.328   3.537  24.644  0.00  0.00    +0.008 A 
ATOM      8  C   UNL     1      -4.139   3.685  24.636  0.00  0.00    +0.037 A 
BRANCH   3   2
ATOM      1  C   UNL     1      -5.860   3.494  25.607  0.00  0.00    +0.252 C 
ATOM      2  O   UNL     1      -5.335   4.064  25.323  0.00  0.00    -0.471 OA
ENDBRANCH   3   2
ENDBRANCH   9   6
ENDBRANCH  13  12
ENDBRANCH  14  13
BRANCH  20  21
ATOM     21  C   UNL     1      -0.579  -0.722  24.347  0.00  0.00    +0.076 C 
BRANCH  21  22
ATOM     22  N   UNL     1      -0.902  -1.340  24.787  0.00  0.00    -0.270 NA
ATOM     23  C   UNL     1      -0.430  -1.759  25.318  0.00  0.00    +0.090 C 
BRANCH  22  24
ATOM     24  C   UNL     1      -1.697  -1.540  24.696  0.00  0.00    +0.088 C 
BRANCH  24  25
ATOM     25  C   UNL     1      -1.918  -2.331  24.619  0.00  0.00    +0.123 C 
BRANCH  25  26
ATOM     26  C   UNL     1      -2.714  -2.531  24.536  0.00  0.00    +0.075 C 
ATOM     27  N   UNL     1      -3.510  -2.732  24.453  0.00  0.00    -0.196 NA
ENDBRANCH  25  26
ENDBRANCH  24  25
ENDBRANCH  22  24
ENDBRANCH  21  22
ENDBRANCH  20  21
TORSDOF 10
ENDMDL
MODEL 9
REMARK VINA RESULT:      -8.7      2.833      4.646
REMARK  Name = 
REMARK  10 active torsions:
REMARK  status: ('A' for Active; 'I' for Inactive)
REMARK    1  A    between atoms: O_2  and  C_3
REMARK    2  A    between atoms: C_6  and  C_9
REMARK    3  A    between atoms: C_12  and  C_13
REMARK    4  A    between atoms: C_13  and  C_14
REMARK    5  A    between atoms: C_16  and  C_17
REMARK    6  A    between atoms: C_20  and  C_21
REMARK    7  A    between atoms: C_21  and  N_22
REMARK    8  A    between atoms: N_22  and  C_24
REMARK    9  A    between atoms: C_24  and  C_25
REMARK   10  A    between atoms: C_25  and  C_26
REMARK                            x       y       z     vdW  Elec       q    Type
REMARK                         _______ _______ _______ _____ _____    ______ ____
ROOT
ATOM     14  C   UNL     1      -3.054   0.149  24.572  0.00  0.00    +0.027 C 
ATOM     15  C   UNL     1      -2.851   0.799  24.106  0.00  0.00    +0.005 C 
ATOM     16  C   UNL     1      -3.366   1.440  24.046  0.00  0.00    +0.006 C 
ATOM     20  C   UNL     1      -4.085   1.431  24.451  0.00  0.00    +0.037 C 
ATOM     28  C   UNL     1      -4.288   0.781  24.916  0.00  0.00    -0.034 C 
ATOM     29  C   UNL     1      -3.772   0.139  24.977  0.00  0.00    -0.048 C 
ATOM     30  C   UNL     1      -3.975  -0.510  25.442  0.00  0.00    +0.026 C 
ENDROOT
BRANCH  16  17
ATOM     17  C   UNL     1      -3.163   2.091  23.580  0.00  0.00    +0.000 C 
ATOM     18  C   UNL     1      -2.769   2.732  23.918  0.00  0.00    +0.000 C 
ATOM     19  C   UNL     1      -3.354   2.099  22.778  0.00  0.00    +0.000 C 
ENDBRANCH  16  17
BRANCH  14  13
ATOM     13  C   UNL     1      -2.539  -0.492  24.633  0.00  0.00    +0.091 C 
BRANCH  13  12
ATOM      9  C   UNL     1      -0.461  -0.159  24.266  0.00  0.00    +0.250 A 
ATOM     10  N   UNL     1      -0.476  -0.182  25.090  0.00  0.00    -0.107 NA
ATOM     11  N   UNL     1      -1.256  -0.309  25.328  0.00  0.00    -0.111 NA
ATOM     12  C   UNL     1      -1.723  -0.365  24.650  0.00  0.00    +0.227 A 
ATOM     31  O   UNL     1      -1.232  -0.272  23.993  0.00  0.00    -0.420 OA
BRANCH   9   6
ATOM      3  C   UNL     1       1.540   0.187  22.852  0.00  0.00    +0.139 A 
ATOM      4  C   UNL     1       1.132  -0.528  22.820  0.00  0.00    +0.037 A 
ATOM      5  C   UNL     1       0.464  -0.644  23.292  0.00  0.00    +0.008 A 
ATOM      6  C   UNL     1       0.206  -0.043  23.795  0.00  0.00    +0.055 A 
ATOM      7  C   UNL     1       0.615   0.672  23.826  0.00  0.00    +0.008 A 
ATOM      8  C   UNL     1       1.282   0.788  23.355  0.00  0.00    +0.037 A 
BRANCH   3   2
ATOM      1  C   UNL     1       2.951   0.384  22.731  0.00  0.00    +0.252 C 
ATOM      2  O   UNL     1       2.208   0.302  22.380  0.00  0.00    -0.471 OA
ENDBRANCH   3   2
ENDBRANCH   9   6
ENDBRANCH  13  12
ENDBRANCH  14  13
BRANCH  20  21
ATOM     21  C   UNL     1      -4.602   2.072  24.391  0.00  0.00    +0.076 C 
BRANCH  21  22
ATOM     22  N   UNL     1      -5.244   2.134  24.904  0.00  0.00    -0.270 NA
ATOM     23  C   UNL     1      -5.879   1.612  24.835  0.00  0.00    +0.090 C 
BRANCH  22  24
ATOM     24  C   UNL     1      -5.252   2.718  25.486  0.00  0.00    +0.088 C 
BRANCH  24  25
ATOM     25  C   UNL     1      -5.933   3.168  25.610  0.00  0.00    +0.123 C 
BRANCH  25  26
ATOM     26  C   UNL     1      -5.873   3.979  25.743  0.00  0.00    +0.075 C 
ATOM     27  N   UNL     1      -5.813   4.792  25.877  0.00  0.00    -0.196 NA
ENDBRANCH  25  26
ENDBRANCH  24  25
ENDBRANCH  22  24
ENDBRANCH  21  22
ENDBRANCH  20  21
TORSDOF 10
ENDMDL
MODEL 10
REMARK VINA RESULT:      -8.4      2.600      4.333
REMARK  Name = 
REMARK  10 active torsions:
REMARK  status: ('A' for Active; 'I' for Inactive)
REMARK    1  A    between atoms: O_2  and  C_3
REMARK    2  A    between atoms: C_6  and  C_9
REMARK    3  A    between atoms: C_12  and  C_13
REMARK    4  A    between atoms: C_13  and  C_14
REMARK    5  A    between atoms: C_16  and  C_17
REMARK    6  A    between atoms: C_20  and  C_21
REMARK    7  A    between atoms: C_21  and  N_22
REMARK    8  A    between atoms: N_22  and  C_24
REMARK    9  A    between atoms: C_24  and  C_25
REMARK   10  A    between atoms: C_25  and  C_26
REMARK                            x       y       z     vdW  Elec       q    Type
REMARK                         _______ _______ _______ _____ _____    ______ ____
ROOT
ATOM     14  C   UNL     1      -0.821   2.189  25.161  0.00  0.00    +0.027 C 
ATOM     15  C   UNL     1      -1.137   1.452  25.355  0.00  0.00    +0.005 C 
ATOM     16  C   UNL     1      -0.850   0.771  24.989  0.00  0.00    +0.006 C 
ATOM     20  C   UNL     1      -0.245   0.826  24.430  0.00  0.00    +0.037 C 
ATOM     28  C   UNL     1       0.071   1.563  24.236  0.00  0.00    -0.034 C 
ATOM     29  C   UNL     1      -0.217   2.245  24.602  0.00  0.00    -0.048 C 
ATOM     30  C   UNL     1       0.099   2.981  24.409  0.00  0.00    +0.026 C 
ENDROOT
BRANCH  16  17
ATOM     17  C   UNL     1      -1.166   0.033  25.183  0.00  0.00    +0.000 C 
ATOM     18  C   UNL     1      -1.786  -0.279  24.737  0.00  0.00    +0.000 C 
ATOM     19  C   UNL     1      -0.863  -0.391  25.822  0.00  0.00    +0.000 C 
ENDBRANCH  16  17
BRANCH  14  13
ATOM     13  C   UNL     1      -1.108   2.870  25.526  0.00  0.00    +0.091 C 
BRANCH  13  12
ATOM      9  C   UNL     1      -3.194   3.199  25.204  0.00  0.00    +0.250 A 
ATOM     10  N   UNL     1      -2.879   3.922  24.961  0.00  0.00    -0.107 NA
ATOM     11  N   UNL     1      -2.060   3.886  25.052  0.00  0.00    -0.111 NA
ATOM     12  C   UNL     1      -1.868   3.142  25.352  0.00  0.00    +0.227 A 
ATOM     31  O   UNL     1      -2.569   2.717  25.446  0.00  0.00    -0.420 OA
BRANCH   9   6
ATOM      3  C   UNL     1      -5.591   2.583  25.212  0.00  0.00    +0.139 A 
ATOM      4  C   UNL     1      -5.294   3.092  25.788  0.00  0.00    +0.037 A 
ATOM      5  C   UNL     1      -4.495   3.298  25.786  0.00  0.00    +0.008 A 
ATOM      6  C   UNL     1      -3.993   2.994  25.206  0.00  0.00    +0.055 A 
ATOM      7  C   UNL     1      -4.290   2.484  24.630  0.00  0.00    +0.008 A 
ATOM      8  C   UNL     1      -5.089   2.278  24.632  0.00  0.00    +0.037 A 
BRANCH   3   2
ATOM      1  C   UNL     1      -6.620   1.613  25.009  0.00  0.00    +0.252 C 
ATOM      2  O   UNL     1      -6.390   2.378  25.215  0.00  0.00    -0.471 OA
ENDBRANCH   3   2
ENDBRANCH   9   6
ENDBRANCH  13  12
ENDBRANCH  14  13
BRANCH  20  21
ATOM     21  C   UNL     1       0.043   0.145  24.064  0.00  0.00    +0.076 C 
BRANCH  21  22
ATOM     22  N   UNL     1       0.463   0.202  23.357  0.00  0.00    -0.270 NA
ATOM     23  C   UNL     1       0.058   0.267  22.641  0.00  0.00    +0.090 C 
BRANCH  22  24
ATOM     24  C   UNL     1       1.287   0.195  23.365  0.00  0.00    +0.088 C 
BRANCH  24  25
ATOM     25  C   UNL     1       1.705  -0.071  22.705  0.00  0.00    +0.123 C 
BRANCH  25  26
ATOM     26  C   UNL     1       2.511   0.087  22.635  0.00  0.00    +0.075 C 
ATOM     27  N   UNL     1       3.318   0.245  22.564  0.00  0.00    -0.196 NA
ENDBRANCH  25  26
ENDBRANCH  24  25
ENDBRANCH  22  24
ENDBRANCH  21  22
ENDBRANCH  20  21
TORSDOF 10
ENDMDL
