MODEL 1
REMARK VINA RESULT:      -8.3      0.000      0.000
REMARK  Name = 
REMARK  4 active torsions:
REMARK  status: ('A' for Active; 'I' for Inactive)
REMARK    1  A    between atoms: C_2  and  N_4
REMARK    2  A    between atoms: N_4  and  C_5
REMARK    3  A    between atoms: C_8  and  C_9
REMARK    4  A    between atoms: C_9  and  N_10
REMARK                            x       y       z     vdW  Elec       q    Type
REMARK                         _______ _______ _______ _____ _____    ______ ____
ROOT
ATOM      5  C   UNL     1      -3.561  -0.956  24.550  0.00  0.00    +0.135 C 
ATOM      6  C   UNL     1      -3.743  -0.992  25.354  0.00  0.00    +0.162 C 
ATOM      7  O   UNL     1      -4.082  -0.272  25.572  0.00  0.00    -0.350 OA
ATOM      8  C   UNL     1      -4.110   0.209  24.902  0.00  0.00    +0.169 C 
ATOM     19  C   UNL     1      -3.788  -0.214  24.271  0.00  0.00    +0.199 C 
ATOM     20  O   UNL     1      -3.707   0.058  23.496  0.00  0.00    -0.219 OA
ENDROOT
BRANCH   5   4
ATOM      4  N   UNL     1      -3.214  -1.557  24.104  0.00  0.00    -0.216 NA
BRANCH   4   2
ATOM      1  C   UNL     1      -2.239  -2.376  24.752  0.00  0.00    +0.019 C 
ATOM      2  C   UNL     1      -3.005  -2.269  24.464  0.00  0.00    +0.073 C 
ATOM      3  C   UNL     1      -3.560  -2.874  24.537  0.00  0.00    +0.019 C 
ENDBRANCH   4   2
ENDBRANCH   5   4
BRANCH   8   9
ATOM      9  C   UNL     1      -4.407   0.978  24.869  0.00  0.00    +0.149 C 
BRANCH   9  10
ATOM     10  N   UNL     1      -5.216   1.113  24.968  0.00  0.00    -0.186 NA
ATOM     11  C   UNL     1      -5.489   1.871  25.140  0.00  0.00    +0.323 C 
ATOM     12  O   UNL     1      -6.297   2.006  25.239  0.00  0.00    -0.251 OA
ATOM     13  N   UNL     1      -4.955   2.496  25.213  0.00  0.00    -0.258 N 
ATOM     14  C   UNL     1      -4.146   2.361  25.114  0.00  0.00    +0.127 C 
ATOM     15  C   UNL     1      -3.612   2.986  25.186  0.00  0.00    +0.164 C 
ATOM     16  O   UNL     1      -3.886   3.745  25.358  0.00  0.00    -0.350 OA
ATOM     17  C   UNL     1      -4.693   3.879  25.458  0.00  0.00    +0.164 C 
ATOM     18  C   UNL     1      -5.228   3.255  25.385  0.00  0.00    +0.127 C 
ENDBRANCH   9  10
ENDBRANCH   8   9
TORSDOF 4
ENDMDL
MODEL 2
REMARK VINA RESULT:      -8.1      1.469      1.906
REMARK  Name = 
REMARK  4 active torsions:
REMARK  status: ('A' for Active; 'I' for Inactive)
REMARK    1  A    between atoms: C_2  and  N_4
REMARK    2  A    between atoms: N_4  and  C_5
REMARK    3  A    between atoms: C_8  and  C_9
REMARK    4  A    between atoms: C_9  and  N_10
REMARK                            x       y       z     vdW  Elec       q    Type
REMARK                         _______ _______ _______ _____ _____    ______ ____
ROOT
ATOM      5  C   UNL     1      -3.282  -0.339  24.533  0.00  0.00    +0.135 C 
ATOM      6  C   UNL     1      -3.956  -0.129  24.960  0.00  0.00    +0.162 C 
ATOM      7  O   UNL     1      -3.949   0.690  25.060  0.00  0.00    -0.350 OA
ATOM      8  C   UNL     1      -3.270   0.986  24.695  0.00  0.00    +0.169 C 
ATOM     19  C   UNL     1      -2.858   0.349  24.370  0.00  0.00    +0.199 C 
ATOM     20  O   UNL     1      -2.147   0.393  23.953  0.00  0.00    -0.219 OA
ENDROOT
BRANCH   5   4
ATOM      4  N   UNL     1      -3.069  -1.105  24.309  0.00  0.00    -0.216 NA
BRANCH   4   2
ATOM      1  C   UNL     1      -3.529  -2.156  25.160  0.00  0.00    +0.019 C 
ATOM      2  C   UNL     1      -3.583  -1.734  24.453  0.00  0.00    +0.073 C 
ATOM      3  C   UNL     1      -4.150  -1.941  23.892  0.00  0.00    +0.019 C 
ENDBRANCH   4   2
ENDBRANCH   5   4
BRANCH   8   9
ATOM      9  C   UNL     1      -3.043   1.778  24.662  0.00  0.00    +0.149 C 
BRANCH   9  10
ATOM     10  N   UNL     1      -3.548   2.339  24.326  0.00  0.00    -0.186 NA
ATOM     11  C   UNL     1      -3.391   3.142  24.421  0.00  0.00    +0.323 C 
ATOM     12  O   UNL     1      -3.896   3.703  24.085  0.00  0.00    -0.251 OA
ATOM     13  N   UNL     1      -2.730   3.387  24.849  0.00  0.00    -0.258 N 
ATOM     14  C   UNL     1      -2.226   2.827  25.185  0.00  0.00    +0.127 C 
ATOM     15  C   UNL     1      -1.565   3.072  25.614  0.00  0.00    +0.164 C 
ATOM     16  O   UNL     1      -1.409   3.876  25.707  0.00  0.00    -0.350 OA
ATOM     17  C   UNL     1      -1.913   4.436  25.372  0.00  0.00    +0.164 C 
ATOM     18  C   UNL     1      -2.574   4.192  24.943  0.00  0.00    +0.127 C 
ENDBRANCH   9  10
ENDBRANCH   8   9
TORSDOF 4
ENDMDL
MODEL 3
REMARK VINA RESULT:      -8.0      1.151      4.398
REMARK  Name = 
REMARK  4 active torsions:
REMARK  status: ('A' for Active; 'I' for Inactive)
REMARK    1  A    between atoms: C_2  and  N_4
REMARK    2  A    between atoms: N_4  and  C_5
REMARK    3  A    between atoms: C_8  and  C_9
REMARK    4  A    between atoms: C_9  and  N_10
REMARK                            x       y       z     vdW  Elec       q    Type
REMARK                         _______ _______ _______ _____ _____    ______ ____
ROOT
ATOM      5  C   UNL     1      -4.484   1.899  24.757  0.00  0.00    +0.135 C 
ATOM      6  C   UNL     1      -4.888   1.490  25.349  0.00  0.00    +0.162 C 
ATOM      7  O   UNL     1      -4.676   0.694  25.299  0.00  0.00    -0.350 OA
ATOM      8  C   UNL     1      -4.140   0.612  24.677  0.00  0.00    +0.169 C 
ATOM     19  C   UNL     1      -4.022   1.357  24.342  0.00  0.00    +0.199 C 
ATOM     20  O   UNL     1      -3.528   1.529  23.703  0.00  0.00    -0.219 OA
ENDROOT
BRANCH   5   4
ATOM      4  N   UNL     1      -4.534   2.709  24.606  0.00  0.00    -0.216 NA
BRANCH   4   2
ATOM      1  C   UNL     1      -5.493   3.376  25.429  0.00  0.00    +0.019 C 
ATOM      2  C   UNL     1      -4.708   3.232  25.221  0.00  0.00    +0.073 C 
ATOM      3  C   UNL     1      -4.098   3.610  25.627  0.00  0.00    +0.019 C 
ENDBRANCH   4   2
ENDBRANCH   5   4
BRANCH   8   9
ATOM      9  C   UNL     1      -3.785  -0.091  24.432  0.00  0.00    +0.149 C 
BRANCH   9  10
ATOM     10  N   UNL     1      -4.251  -0.718  24.163  0.00  0.00    -0.186 NA
ATOM     11  C   UNL     1      -3.937  -1.479  24.129  0.00  0.00    +0.323 C 
ATOM     12  O   UNL     1      -4.403  -2.105  23.859  0.00  0.00    -0.251 OA
ATOM     13  N   UNL     1      -3.158  -1.616  24.363  0.00  0.00    -0.258 N 
ATOM     14  C   UNL     1      -2.692  -0.990  24.633  0.00  0.00    +0.127 C 
ATOM     15  C   UNL     1      -1.913  -1.127  24.867  0.00  0.00    +0.164 C 
ATOM     16  O   UNL     1      -1.600  -1.889  24.833  0.00  0.00    -0.350 OA
ATOM     17  C   UNL     1      -2.065  -2.515  24.563  0.00  0.00    +0.164 C 
ATOM     18  C   UNL     1      -2.845  -2.378  24.329  0.00  0.00    +0.127 C 
ENDBRANCH   9  10
ENDBRANCH   8   9
TORSDOF 4
ENDMDL
MODEL 4
REMARK VINA RESULT:      -7.6      2.514      5.160
REMARK  Name = 
REMARK  4 active torsions:
REMARK  status: ('A' for Active; 'I' for Inactive)
REMARK    1  A    between atoms: C_2  and  N_4
REMARK    2  A    between atoms: N_4  and  C_5
REMARK    3  A    between atoms: C_8  and  C_9
REMARK    4  A    between atoms: C_9  and  N_10
REMARK                            x       y       z     vdW  Elec       q    Type
REMARK                         _______ _______ _______ _____ _____    ______ ____
ROOT
ATOM      5  C   UNL     1      -1.657   2.741  24.890  0.00  0.00    +0.135 C 
ATOM      6  C   UNL     1      -1.259   2.545  25.586  0.00  0.00    +0.162 C 
ATOM      7  O   UNL     1      -1.145   1.728  25.593  0.00  0.00    -0.350 OA
ATOM      8  C   UNL     1      -1.471   1.419  24.901  0.00  0.00    +0.169 C 
ATOM     19  C   UNL     1      -1.788   2.046  24.467  0.00  0.00    +0.199 C 
ATOM     20  O   UNL     1      -2.168   1.987  23.737  0.00  0.00    -0.219 OA
ENDROOT
BRANCH   5   4
ATOM      4  N   UNL     1      -1.884   3.500  24.659  0.00  0.00    -0.216 NA
BRANCH   4   2
ATOM      1  C   UNL     1      -2.296   4.342  25.737  0.00  0.00    +0.019 C 
ATOM      2  C   UNL     1      -1.743   4.142  25.158  0.00  0.00    +0.073 C 
ATOM      3  C   UNL     1      -1.052   4.584  25.078  0.00  0.00    +0.019 C 
ENDBRANCH   4   2
ENDBRANCH   5   4
BRANCH   8   9
ATOM      9  C   UNL     1      -1.480   0.624  24.681  0.00  0.00    +0.149 C 
BRANCH   9  10
ATOM     10  N   UNL     1      -0.770   0.226  24.543  0.00  0.00    -0.186 NA
ATOM     11  C   UNL     1      -0.760  -0.597  24.507  0.00  0.00    +0.323 C 
ATOM     12  O   UNL     1      -0.051  -0.996  24.369  0.00  0.00    -0.251 OA
ATOM     13  N   UNL     1      -1.459  -1.024  24.610  0.00  0.00    -0.258 N 
ATOM     14  C   UNL     1      -2.169  -0.626  24.748  0.00  0.00    +0.127 C 
ATOM     15  C   UNL     1      -2.867  -1.052  24.850  0.00  0.00    +0.164 C 
ATOM     16  O   UNL     1      -2.856  -1.876  24.815  0.00  0.00    -0.350 OA
ATOM     17  C   UNL     1      -2.148  -2.274  24.676  0.00  0.00    +0.164 C 
ATOM     18  C   UNL     1      -1.448  -1.848  24.574  0.00  0.00    +0.127 C 
ENDBRANCH   9  10
ENDBRANCH   8   9
TORSDOF 4
ENDMDL
