MODEL 1
REMARK VINA RESULT:      -8.4      0.000      0.000
REMARK  Name = 
REMARK  8 active torsions:
REMARK  status: ('A' for Active; 'I' for Inactive)
REMARK    1  A    between atoms: O_2  and  C_3
REMARK    2  A    between atoms: C_3  and  C_4
REMARK    3  A    between atoms: C_4  and  N_5
REMARK    4  A    between atoms: N_5  and  C_6
REMARK    5  A    between atoms: C_9  and  C_12
REMARK    6  A    between atoms: C_15  and  C_17
REMARK    7  A    between atoms: N_21  and  C_22
REMARK    8  A    between atoms: C_22  and  C_23
REMARK                            x       y       z     vdW  Elec       q    Type
REMARK                         _______ _______ _______ _____ _____    ______ ____
ROOT
ATOM     12  C   UNL     1      -3.836   1.971  24.412  0.00  0.00    +0.205 A 
ATOM     13  N   UNL     1      -4.046   2.564  23.879  0.00  0.00    -0.056 NA
ATOM     14  O   UNL     1      -3.822   3.289  24.203  0.00  0.00    -0.336 OA
ATOM     15  C   UNL     1      -3.473   3.144  24.937  0.00  0.00    +0.251 A 
ATOM     16  N   UNL     1      -3.482   2.329  25.066  0.00  0.00    -0.190 NA
ENDROOT
BRANCH  12   9
ATOM      6  C   UNL     1      -4.203  -0.457  24.103  0.00  0.00    +0.148 A 
ATOM      7  C   UNL     1      -4.653  -0.038  24.654  0.00  0.00    +0.036 A 
ATOM      8  C   UNL     1      -4.530   0.771  24.756  0.00  0.00    +0.008 A 
ATOM      9  C   UNL     1      -3.959   1.161  24.309  0.00  0.00    +0.058 A 
ATOM     10  C   UNL     1      -3.509   0.744  23.758  0.00  0.00    +0.103 A 
ATOM     11  N   UNL     1      -3.632  -0.066  23.655  0.00  0.00    -0.228 NA
BRANCH   6   5
ATOM      5  N   UNL     1      -4.326  -1.266  24.000  0.00  0.00    -0.218 NA
BRANCH   5   4
ATOM      4  C   UNL     1      -3.811  -1.809  24.350  0.00  0.00    +0.146 C 
BRANCH   4   3
ATOM      3  C   UNL     1      -3.880  -2.612  24.176  0.00  0.00    +0.166 C 
BRANCH   3   2
ATOM      1  C   UNL     1      -2.690  -3.311  24.549  0.00  0.00    +0.174 C 
ATOM      2  O   UNL     1      -3.498  -3.169  24.649  0.00  0.00    -0.349 OA
ENDBRANCH   3   2
ENDBRANCH   4   3
ENDBRANCH   5   4
ENDBRANCH   6   5
ENDBRANCH  12   9
BRANCH  15  17
ATOM     17  C   UNL     1      -3.169   3.712  25.451  0.00  0.00    +0.138 C 
ATOM     18  C   UNL     1      -3.576   4.069  26.075  0.00  0.00    +0.027 C 
ATOM     19  C   UNL     1      -3.063   4.601  26.442  0.00  0.00    +0.019 C 
ATOM     20  C   UNL     1      -2.340   4.574  26.045  0.00  0.00    +0.073 C 
ATOM     21  N   UNL     1      -2.406   4.025  25.433  0.00  0.00    -0.266 NA
BRANCH  21  22
ATOM     22  C   UNL     1      -1.813   3.823  24.897  0.00  0.00    +0.072 C 
BRANCH  22  23
ATOM     23  C   UNL     1      -1.043   4.097  25.011  0.00  0.00    +0.016 C 
ATOM     24  C   UNL     1      -0.478   3.609  25.361  0.00  0.00    +0.001 C 
ATOM     25  C   UNL     1      -0.838   4.861  24.775  0.00  0.00    +0.001 C 
ENDBRANCH  22  23
ENDBRANCH  21  22
ENDBRANCH  15  17
TORSDOF 8
ENDMDL
MODEL 2
REMARK VINA RESULT:      -8.2      3.488      4.752
REMARK  Name = 
REMARK  8 active torsions:
REMARK  status: ('A' for Active; 'I' for Inactive)
REMARK    1  A    between atoms: O_2  and  C_3
REMARK    2  A    between atoms: C_3  and  C_4
REMARK    3  A    between atoms: C_4  and  N_5
REMARK    4  A    between atoms: N_5  and  C_6
REMARK    5  A    between atoms: C_9  and  C_12
REMARK    6  A    between atoms: C_15  and  C_17
REMARK    7  A    between atoms: N_21  and  C_22
REMARK    8  A    between atoms: C_22  and  C_23
REMARK                            x       y       z     vdW  Elec       q    Type
REMARK                         _______ _______ _______ _____ _____    ______ ____
ROOT
ATOM     12  C   UNL     1      -1.278   0.341  24.589  0.00  0.00    +0.205 A 
ATOM     13  N   UNL     1      -1.318   0.413  25.409  0.00  0.00    -0.056 NA
ATOM     14  O   UNL     1      -2.112   0.501  25.618  0.00  0.00    -0.336 OA
ATOM     15  C   UNL     1      -2.561   0.484  24.926  0.00  0.00    +0.251 A 
ATOM     16  N   UNL     1      -2.046   0.385  24.290  0.00  0.00    -0.190 NA
ENDROOT
BRANCH  12   9
ATOM      6  C   UNL     1       0.787   0.046  23.256  0.00  0.00    +0.148 A 
ATOM      7  C   UNL     1       0.400  -0.613  23.569  0.00  0.00    +0.036 A 
ATOM      8  C   UNL     1      -0.288  -0.514  24.013  0.00  0.00    +0.008 A 
ATOM      9  C   UNL     1      -0.589   0.242  24.144  0.00  0.00    +0.058 A 
ATOM     10  C   UNL     1      -0.203   0.901  23.832  0.00  0.00    +0.103 A 
ATOM     11  N   UNL     1       0.486   0.802  23.387  0.00  0.00    -0.228 NA
BRANCH   6   5
ATOM      5  N   UNL     1       1.475  -0.053  22.812  0.00  0.00    -0.218 NA
BRANCH   5   4
ATOM      4  C   UNL     1       2.154   0.378  23.002  0.00  0.00    +0.146 C 
BRANCH   4   3
ATOM      3  C   UNL     1       2.864   0.219  22.614  0.00  0.00    +0.166 C 
BRANCH   3   2
ATOM      1  C   UNL     1       4.261   0.509  22.689  0.00  0.00    +0.174 C 
ATOM      2  O   UNL     1       3.479   0.768  22.640  0.00  0.00    -0.349 OA
ENDBRANCH   3   2
ENDBRANCH   4   3
ENDBRANCH   5   4
ENDBRANCH   6   5
ENDBRANCH  12   9
BRANCH  15  17
ATOM     17  C   UNL     1      -3.382   0.553  24.878  0.00  0.00    +0.138 C 
ATOM     18  C   UNL     1      -3.922  -0.072  24.878  0.00  0.00    +0.027 C 
ATOM     19  C   UNL     1      -4.681   0.248  24.822  0.00  0.00    +0.019 C 
ATOM     20  C   UNL     1      -4.609   1.069  24.788  0.00  0.00    +0.073 C 
ATOM     21  N   UNL     1      -3.807   1.258  24.823  0.00  0.00    -0.266 NA
BRANCH  21  22
ATOM     22  C   UNL     1      -3.486   2.017  24.805  0.00  0.00    +0.072 C 
BRANCH  22  23
ATOM     23  C   UNL     1      -3.977   2.670  24.687  0.00  0.00    +0.016 C 
ATOM     24  C   UNL     1      -4.107   2.956  23.925  0.00  0.00    +0.001 C 
ATOM     25  C   UNL     1      -4.337   3.036  25.333  0.00  0.00    +0.001 C 
ENDBRANCH  22  23
ENDBRANCH  21  22
ENDBRANCH  15  17
TORSDOF 8
ENDMDL
MODEL 3
REMARK VINA RESULT:      -8.2      2.074      2.769
REMARK  Name = 
REMARK  8 active torsions:
REMARK  status: ('A' for Active; 'I' for Inactive)
REMARK    1  A    between atoms: O_2  and  C_3
REMARK    2  A    between atoms: C_3  and  C_4
REMARK    3  A    between atoms: C_4  and  N_5
REMARK    4  A    between atoms: N_5  and  C_6
REMARK    5  A    between atoms: C_9  and  C_12
REMARK    6  A    between atoms: C_15  and  C_17
REMARK    7  A    between atoms: N_21  and  C_22
REMARK    8  A    between atoms: C_22  and  C_23
REMARK                            x       y       z     vdW  Elec       q    Type
REMARK                         _______ _______ _______ _____ _____    ______ ____
ROOT
ATOM     12  C   UNL     1      -0.703   1.598  25.435  0.00  0.00    +0.205 A 
ATOM     13  N   UNL     1      -0.145   1.880  25.973  0.00  0.00    -0.056 NA
ATOM     14  O   UNL     1      -0.197   2.703  25.986  0.00  0.00    -0.336 OA
ATOM     15  C   UNL     1      -0.788   2.930  25.456  0.00  0.00    +0.251 A 
ATOM     16  N   UNL     1      -1.100   2.247  25.115  0.00  0.00    -0.190 NA
ENDROOT
BRANCH  12   9
ATOM      6  C   UNL     1      -1.112  -0.778  24.876  0.00  0.00    +0.148 A 
ATOM      7  C   UNL     1      -1.294  -0.494  25.630  0.00  0.00    +0.036 A 
ATOM      8  C   UNL     1      -1.157   0.298  25.815  0.00  0.00    +0.008 A 
ATOM      9  C   UNL     1      -0.839   0.805  25.249  0.00  0.00    +0.058 A 
ATOM     10  C   UNL     1      -0.658   0.522  24.496  0.00  0.00    +0.103 A 
ATOM     11  N   UNL     1      -0.795  -0.271  24.310  0.00  0.00    -0.228 NA
BRANCH   6   5
ATOM      5  N   UNL     1      -1.249  -1.570  24.691  0.00  0.00    -0.218 NA
BRANCH   5   4
ATOM      4  C   UNL     1      -2.014  -1.879  24.738  0.00  0.00    +0.146 C 
BRANCH   4   3
ATOM      3  C   UNL     1      -2.196  -2.587  24.357  0.00  0.00    +0.166 C 
BRANCH   3   2
ATOM      1  C   UNL     1      -3.583  -2.894  24.205  0.00  0.00    +0.174 C 
ATOM      2  O   UNL     1      -2.862  -3.017  24.586  0.00  0.00    -0.349 OA
ENDBRANCH   3   2
ENDBRANCH   4   3
ENDBRANCH   5   4
ENDBRANCH   6   5
ENDBRANCH  12   9
BRANCH  15  17
ATOM     17  C   UNL     1      -1.024   3.704  25.294  0.00  0.00    +0.138 C 
ATOM     18  C   UNL     1      -0.565   4.284  24.927  0.00  0.00    +0.027 C 
ATOM     19  C   UNL     1      -1.018   4.972  24.877  0.00  0.00    +0.019 C 
ATOM     20  C   UNL     1      -1.756   4.817  25.213  0.00  0.00    +0.073 C 
ATOM     21  N   UNL     1      -1.759   4.033  25.470  0.00  0.00    -0.266 NA
BRANCH  21  22
ATOM     22  C   UNL     1      -2.387   3.646  25.839  0.00  0.00    +0.072 C 
BRANCH  22  23
ATOM     23  C   UNL     1      -3.111   4.032  25.933  0.00  0.00    +0.016 C 
ATOM     24  C   UNL     1      -3.689   3.973  25.348  0.00  0.00    +0.001 C 
ATOM     25  C   UNL     1      -3.256   4.476  26.613  0.00  0.00    +0.001 C 
ENDBRANCH  22  23
ENDBRANCH  21  22
ENDBRANCH  15  17
TORSDOF 8
ENDMDL
MODEL 4
REMARK VINA RESULT:      -8.2      3.688      5.622
REMARK  Name = 
REMARK  8 active torsions:
REMARK  status: ('A' for Active; 'I' for Inactive)
REMARK    1  A    between atoms: O_2  and  C_3
REMARK    2  A    between atoms: C_3  and  C_4
REMARK    3  A    between atoms: C_4  and  N_5
REMARK    4  A    between atoms: N_5  and  C_6
REMARK    5  A    between atoms: C_9  and  C_12
REMARK    6  A    between atoms: C_15  and  C_17
REMARK    7  A    between atoms: N_21  and  C_22
REMARK    8  A    between atoms: C_22  and  C_23
REMARK                            x       y       z     vdW  Elec       q    Type
REMARK                         _______ _______ _______ _____ _____    ______ ____
ROOT
ATOM     12  C   UNL     1      -0.896   0.171  24.462  0.00  0.00    +0.205 A 
ATOM     13  N   UNL     1      -0.940   0.185  25.286  0.00  0.00    -0.056 NA
ATOM     14  O   UNL     1      -1.735   0.135  25.499  0.00  0.00    -0.336 OA
ATOM     15  C   UNL     1      -2.183   0.090  24.808  0.00  0.00    +0.251 A 
ATOM     16  N   UNL     1      -1.665   0.113  24.166  0.00  0.00    -0.190 NA
ENDROOT
BRANCH  12   9
ATOM      6  C   UNL     1       1.177   0.288  23.115  0.00  0.00    +0.148 A 
ATOM      7  C   UNL     1       0.783  -0.432  23.205  0.00  0.00    +0.036 A 
ATOM      8  C   UNL     1       0.092  -0.470  23.654  0.00  0.00    +0.008 A 
ATOM      9  C   UNL     1      -0.205   0.210  24.013  0.00  0.00    +0.058 A 
ATOM     10  C   UNL     1       0.189   0.929  23.923  0.00  0.00    +0.103 A 
ATOM     11  N   UNL     1       0.880   0.968  23.474  0.00  0.00    -0.228 NA
BRANCH   6   5
ATOM      5  N   UNL     1       1.868   0.326  22.666  0.00  0.00    -0.218 NA
BRANCH   5   4
ATOM      4  C   UNL     1       2.591   0.474  23.034  0.00  0.00    +0.146 C 
BRANCH   4   3
ATOM      3  C   UNL     1       3.291   0.431  22.600  0.00  0.00    +0.166 C 
BRANCH   3   2
ATOM      1  C   UNL     1       4.670   0.501  22.969  0.00  0.00    +0.174 C 
ATOM      2  O   UNL     1       3.947   0.875  22.831  0.00  0.00    -0.349 OA
ENDBRANCH   3   2
ENDBRANCH   4   3
ENDBRANCH   5   4
ENDBRANCH   6   5
ENDBRANCH  12   9
BRANCH  15  17
ATOM     17  C   UNL     1      -3.005   0.033  24.764  0.00  0.00    +0.138 C 
ATOM     18  C   UNL     1      -3.539   0.659  24.838  0.00  0.00    +0.027 C 
ATOM     19  C   UNL     1      -4.301   0.354  24.759  0.00  0.00    +0.019 C 
ATOM     20  C   UNL     1      -4.238  -0.460  24.636  0.00  0.00    +0.073 C 
ATOM     21  N   UNL     1      -3.437  -0.657  24.639  0.00  0.00    -0.266 NA
BRANCH  21  22
ATOM     22  C   UNL     1      -3.124  -1.413  24.535  0.00  0.00    +0.072 C 
BRANCH  22  23
ATOM     23  C   UNL     1      -3.626  -2.068  24.509  0.00  0.00    +0.016 C 
ATOM     24  C   UNL     1      -3.639  -2.602  25.137  0.00  0.00    +0.001 C 
ATOM     25  C   UNL     1      -4.113  -2.188  23.855  0.00  0.00    +0.001 C 
ENDBRANCH  22  23
ENDBRANCH  21  22
ENDBRANCH  15  17
TORSDOF 8
ENDMDL
MODEL 5
REMARK VINA RESULT:      -7.9      2.792      3.929
REMARK  Name = 
REMARK  8 active torsions:
REMARK  status: ('A' for Active; 'I' for Inactive)
REMARK    1  A    between atoms: O_2  and  C_3
REMARK    2  A    between atoms: C_3  and  C_4
REMARK    3  A    between atoms: C_4  and  N_5
REMARK    4  A    between atoms: N_5  and  C_6
REMARK    5  A    between atoms: C_9  and  C_12
REMARK    6  A    between atoms: C_15  and  C_17
REMARK    7  A    between atoms: N_21  and  C_22
REMARK    8  A    between atoms: C_22  and  C_23
REMARK                            x       y       z     vdW  Elec       q    Type
REMARK                         _______ _______ _______ _____ _____    ______ ____
ROOT
ATOM     12  C   UNL     1      -2.577   2.067  23.894  0.00  0.00    +0.205 A 
ATOM     13  N   UNL     1      -3.024   2.279  23.234  0.00  0.00    -0.056 NA
ATOM     14  O   UNL     1      -3.684   2.698  23.498  0.00  0.00    -0.336 OA
ATOM     15  C   UNL     1      -3.645   2.745  24.321  0.00  0.00    +0.251 A 
ATOM     16  N   UNL     1      -2.961   2.355  24.566  0.00  0.00    -0.190 NA
ENDROOT
BRANCH  12   9
ATOM      6  C   UNL     1      -0.456   0.791  23.865  0.00  0.00    +0.148 A 
ATOM      7  C   UNL     1      -1.178   0.392  23.907  0.00  0.00    +0.036 A 
ATOM      8  C   UNL     1      -1.884   0.818  23.917  0.00  0.00    +0.008 A 
ATOM      9  C   UNL     1      -1.870   1.641  23.884  0.00  0.00    +0.058 A 
ATOM     10  C   UNL     1      -1.150   2.041  23.842  0.00  0.00    +0.103 A 
ATOM     11  N   UNL     1      -0.442   1.615  23.832  0.00  0.00    -0.228 NA
BRANCH   6   5
ATOM      5  N   UNL     1       0.250   0.366  23.855  0.00  0.00    -0.218 NA
BRANCH   5   4
ATOM      4  C   UNL     1       0.661   0.265  23.145  0.00  0.00    +0.146 C 
BRANCH   4   3
ATOM      3  C   UNL     1       1.435  -0.019  23.155  0.00  0.00    +0.166 C 
BRANCH   3   2
ATOM      1  C   UNL     1       2.686   0.063  22.469  0.00  0.00    +0.174 C 
ATOM      2  O   UNL     1       1.869  -0.054  22.454  0.00  0.00    -0.349 OA
ENDBRANCH   3   2
ENDBRANCH   4   3
ENDBRANCH   5   4
ENDBRANCH   6   5
ENDBRANCH  12   9
BRANCH  15  17
ATOM     17  C   UNL     1      -4.193   3.117  24.813  0.00  0.00    +0.138 C 
ATOM     18  C   UNL     1      -4.127   3.879  25.122  0.00  0.00    +0.027 C 
ATOM     19  C   UNL     1      -4.797   4.026  25.583  0.00  0.00    +0.019 C 
ATOM     20  C   UNL     1      -5.275   3.354  25.557  0.00  0.00    +0.073 C 
ATOM     21  N   UNL     1      -4.902   2.792  25.082  0.00  0.00    -0.266 NA
BRANCH  21  22
ATOM     22  C   UNL     1      -5.187   2.039  24.906  0.00  0.00    +0.072 C 
BRANCH  22  23
ATOM     23  C   UNL     1      -5.907   1.787  25.221  0.00  0.00    +0.016 C 
ATOM     24  C   UNL     1      -5.938   1.483  25.987  0.00  0.00    +0.001 C 
ATOM     25  C   UNL     1      -6.595   1.838  24.769  0.00  0.00    +0.001 C 
ENDBRANCH  22  23
ENDBRANCH  21  22
ENDBRANCH  15  17
TORSDOF 8
ENDMDL
MODEL 6
REMARK VINA RESULT:      -7.8      1.341      5.470
REMARK  Name = 
REMARK  8 active torsions:
REMARK  status: ('A' for Active; 'I' for Inactive)
REMARK    1  A    between atoms: O_2  and  C_3
REMARK    2  A    between atoms: C_3  and  C_4
REMARK    3  A    between atoms: C_4  and  N_5
REMARK    4  A    between atoms: N_5  and  C_6
REMARK    5  A    between atoms: C_9  and  C_12
REMARK    6  A    between atoms: C_15  and  C_17
REMARK    7  A    between atoms: N_21  and  C_22
REMARK    8  A    between atoms: C_22  and  C_23
REMARK                            x       y       z     vdW  Elec       q    Type
REMARK                         _______ _______ _______ _____ _____    ______ ____
ROOT
ATOM     12  C   UNL     1      -3.915   0.715  24.917  0.00  0.00    +0.205 A 
ATOM     13  N   UNL     1      -4.384   0.389  25.512  0.00  0.00    -0.056 NA
ATOM     14  O   UNL     1      -4.455  -0.420  25.365  0.00  0.00    -0.336 OA
ATOM     15  C   UNL     1      -4.031  -0.593  24.679  0.00  0.00    +0.251 A 
ATOM     16  N   UNL     1      -3.697   0.108  24.401  0.00  0.00    -0.190 NA
ENDROOT
BRANCH  12   9
ATOM      6  C   UNL     1      -3.276   3.098  24.712  0.00  0.00    +0.148 A 
ATOM      7  C   UNL     1      -4.071   2.878  24.667  0.00  0.00    +0.036 A 
ATOM      8  C   UNL     1      -4.283   2.084  24.736  0.00  0.00    +0.008 A 
ATOM      9  C   UNL     1      -3.703   1.510  24.849  0.00  0.00    +0.058 A 
ATOM     10  C   UNL     1      -2.909   1.729  24.893  0.00  0.00    +0.103 A 
ATOM     11  N   UNL     1      -2.696   2.524  24.825  0.00  0.00    -0.228 NA
BRANCH   6   5
ATOM      5  N   UNL     1      -3.064   3.892  24.644  0.00  0.00    -0.218 NA
BRANCH   5   4
ATOM      4  C   UNL     1      -2.399   4.176  25.043  0.00  0.00    +0.146 C 
BRANCH   4   3
ATOM      3  C   UNL     1      -2.148   4.953  24.923  0.00  0.00    +0.166 C 
BRANCH   3   2
ATOM      1  C   UNL     1      -0.799   5.419  24.853  0.00  0.00    +0.174 C 
ATOM      2  O   UNL     1      -1.468   5.228  25.299  0.00  0.00    -0.349 OA
ENDBRANCH   3   2
ENDBRANCH   4   3
ENDBRANCH   5   4
ENDBRANCH   6   5
ENDBRANCH  12   9
BRANCH  15  17
ATOM     17  C   UNL     1      -3.953  -1.337  24.330  0.00  0.00    +0.138 C 
ATOM     18  C   UNL     1      -4.509  -1.703  23.841  0.00  0.00    +0.027 C 
ATOM     19  C   UNL     1      -4.206  -2.438  23.617  0.00  0.00    +0.019 C 
ATOM     20  C   UNL     1      -3.465  -2.525  23.969  0.00  0.00    +0.073 C 
ATOM     21  N   UNL     1      -3.309  -1.845  24.409  0.00  0.00    -0.266 NA
BRANCH  21  22
ATOM     22  C   UNL     1      -2.628  -1.699  24.851  0.00  0.00    +0.072 C 
BRANCH  22  23
ATOM     23  C   UNL     1      -1.972  -2.194  24.774  0.00  0.00    +0.016 C 
ATOM     24  C   UNL     1      -1.326  -1.956  24.321  0.00  0.00    +0.001 C 
ATOM     25  C   UNL     1      -1.963  -2.927  25.152  0.00  0.00    +0.001 C 
ENDBRANCH  22  23
ENDBRANCH  21  22
ENDBRANCH  15  17
TORSDOF 8
ENDMDL
MODEL 7
REMARK VINA RESULT:      -7.5      2.156      6.066
REMARK  Name = 
REMARK  8 active torsions:
REMARK  status: ('A' for Active; 'I' for Inactive)
REMARK    1  A    between atoms: O_2  and  C_3
REMARK    2  A    between atoms: C_3  and  C_4
REMARK    3  A    between atoms: C_4  and  N_5
REMARK    4  A    between atoms: N_5  and  C_6
REMARK    5  A    between atoms: C_9  and  C_12
REMARK    6  A    between atoms: C_15  and  C_17
REMARK    7  A    between atoms: N_21  and  C_22
REMARK    8  A    between atoms: C_22  and  C_23
REMARK                            x       y       z     vdW  Elec       q    Type
REMARK                         _______ _______ _______ _____ _____    ______ ____
ROOT
ATOM     12  C   UNL     1      -1.132   0.365  25.346  0.00  0.00    +0.205 A 
ATOM     13  N   UNL     1      -1.208  -0.001  26.081  0.00  0.00    -0.056 NA
ATOM     14  O   UNL     1      -1.368  -0.800  25.952  0.00  0.00    -0.336 OA
ATOM     15  C   UNL     1      -1.391  -0.928  25.137  0.00  0.00    +0.251 A 
ATOM     16  N   UNL     1      -1.245  -0.208  24.762  0.00  0.00    -0.190 NA
ENDROOT
BRANCH  12   9
ATOM      6  C   UNL     1      -0.649   2.761  24.957  0.00  0.00    +0.148 A 
ATOM      7  C   UNL     1      -0.388   2.394  25.650  0.00  0.00    +0.036 A 
ATOM      8  C   UNL     1      -0.550   1.596  25.778  0.00  0.00    +0.008 A 
ATOM      9  C   UNL     1      -0.971   1.164  25.217  0.00  0.00    +0.058 A 
ATOM     10  C   UNL     1      -1.231   1.530  24.525  0.00  0.00    +0.103 A 
ATOM     11  N   UNL     1      -1.070   2.329  24.396  0.00  0.00    -0.228 NA
BRANCH   6   5
ATOM      5  N   UNL     1      -0.488   3.560  24.829  0.00  0.00    -0.218 NA
BRANCH   5   4
ATOM      4  C   UNL     1      -1.009   4.136  25.108  0.00  0.00    +0.146 C 
BRANCH   4   3
ATOM      3  C   UNL     1      -0.914   4.923  24.880  0.00  0.00    +0.166 C 
BRANCH   3   2
ATOM      1  C   UNL     1      -1.888   5.968  24.882  0.00  0.00    +0.174 C 
ATOM      2  O   UNL     1      -1.321   5.519  25.280  0.00  0.00    -0.349 OA
ENDBRANCH   3   2
ENDBRANCH   4   3
ENDBRANCH   5   4
ENDBRANCH   6   5
ENDBRANCH  12   9
BRANCH  15  17
ATOM     17  C   UNL     1      -1.535  -1.649  24.762  0.00  0.00    +0.138 C 
ATOM     18  C   UNL     1      -0.961  -2.182  24.502  0.00  0.00    +0.027 C 
ATOM     19  C   UNL     1      -1.349  -2.826  24.160  0.00  0.00    +0.019 C 
ATOM     20  C   UNL     1      -2.161  -2.690  24.210  0.00  0.00    +0.073 C 
ATOM     21  N   UNL     1      -2.276  -1.962  24.582  0.00  0.00    -0.266 NA
BRANCH  21  22
ATOM     22  C   UNL     1      -3.004  -1.611  24.744  0.00  0.00    +0.072 C 
BRANCH  22  23
ATOM     23  C   UNL     1      -3.699  -1.948  24.454  0.00  0.00    +0.016 C 
ATOM     24  C   UNL     1      -4.173  -1.526  23.928  0.00  0.00    +0.001 C 
ATOM     25  C   UNL     1      -3.920  -2.706  24.692  0.00  0.00    +0.001 C 
ENDBRANCH  22  23
ENDBRANCH  21  22
ENDBRANCH  15  17
TORSDOF 8
ENDMDL
