MODEL 1
REMARK VINA RESULT:     -10.0      0.000      0.000
REMARK  Name = 
REMARK  8 active torsions:
REMARK  status: ('A' for Active; 'I' for Inactive)
REMARK    1  A    between atoms: O_2  and  C_3
REMARK    2  A    between atoms: C_6  and  C_7
REMARK    3  A    between atoms: C_7  and  N_8
REMARK    4  A    between atoms: C_9  and  C_11
REMARK    5  A    between atoms: C_11  and  C_12
REMARK    6  A    between atoms: C_14  and  C_15
REMARK    7  A    between atoms: C_15  and  N_16
REMARK    8  A    between atoms: N_19  and  C_20
REMARK                            x       y       z     vdW  Elec       q    Type
REMARK                         _______ _______ _______ _____ _____    ______ ____
ROOT
ATOM     12  C   UNL     1      -4.424   3.191  25.315  0.00  0.00    +0.157 C 
ATOM     13  O   UNL     1      -4.176   2.407  25.250  0.00  0.00    -0.351 OA
ATOM     14  C   UNL     1      -4.842   1.923  25.300  0.00  0.00    +0.170 C 
ATOM     23  C   UNL     1      -5.502   2.408  25.397  0.00  0.00    +0.213 C 
ATOM     24  O   UNL     1      -6.283   2.156  25.471  0.00  0.00    -0.218 OA
ATOM     25  C   UNL     1      -5.243   3.192  25.406  0.00  0.00    +0.212 C 
ATOM     26  O   UNL     1      -5.721   3.860  25.492  0.00  0.00    -0.218 OA
ENDROOT
BRANCH  12  11
ATOM     11  C   UNL     1      -3.937   3.857  25.294  0.00  0.00    +0.119 C 
BRANCH  11   9
ATOM      8  N   UNL     1      -2.521   3.660  25.312  0.00  0.00    -0.200 NA
ATOM      9  C   UNL     1      -3.220   3.857  25.704  0.00  0.00    +0.244 C 
ATOM     10  O   UNL     1      -3.203   4.052  26.505  0.00  0.00    -0.273 OA
BRANCH   8   7
ATOM      7  C   UNL     1      -1.805   3.660  25.723  0.00  0.00    +0.141 C 
BRANCH   7   6
ATOM      3  C   UNL     1       0.146   2.447  24.802  0.00  0.00    +0.139 A 
ATOM      4  C   UNL     1      -0.192   3.067  24.377  0.00  0.00    +0.037 A 
ATOM      5  C   UNL     1      -0.843   3.472  24.683  0.00  0.00    +0.001 A 
ATOM      6  C   UNL     1      -1.155   3.256  25.416  0.00  0.00    -0.000 A 
ATOM     27  C   UNL     1      -0.816   2.635  25.842  0.00  0.00    +0.001 A 
ATOM     28  C   UNL     1      -0.167   2.231  25.535  0.00  0.00    +0.037 A 
BRANCH   3   2
ATOM      1  C   UNL     1       0.684   1.365  24.039  0.00  0.00    +0.252 C 
ATOM      2  O   UNL     1       0.796   2.042  24.496  0.00  0.00    -0.471 OA
ENDBRANCH   3   2
ENDBRANCH   7   6
ENDBRANCH   8   7
ENDBRANCH  11   9
ENDBRANCH  12  11
BRANCH  14  15
ATOM     15  C   UNL     1      -4.848   1.099  25.260  0.00  0.00    +0.149 C 
BRANCH  15  16
ATOM     16  N   UNL     1      -4.444   0.713  24.652  0.00  0.00    -0.185 NA
ATOM     17  C   UNL     1      -4.260  -0.088  24.724  0.00  0.00    +0.339 C 
ATOM     18  O   UNL     1      -4.477  -0.502  25.403  0.00  0.00    -0.249 OA
ATOM     19  N   UNL     1      -3.857  -0.473  24.116  0.00  0.00    -0.189 NA
BRANCH  19  20
ATOM     20  C   UNL     1      -3.671  -1.275  24.188  0.00  0.00    +0.097 C 
ATOM     21  C   UNL     1      -4.194  -1.845  23.902  0.00  0.00    +0.023 C 
ATOM     22  C   UNL     1      -2.964  -1.504  24.546  0.00  0.00    +0.023 C 
ENDBRANCH  19  20
ENDBRANCH  15  16
ENDBRANCH  14  15
TORSDOF 8
ENDMDL
MODEL 2
REMARK VINA RESULT:      -9.9      1.347      4.365
REMARK  Name = 
REMARK  8 active torsions:
REMARK  status: ('A' for Active; 'I' for Inactive)
REMARK    1  A    between atoms: O_2  and  C_3
REMARK    2  A    between atoms: C_6  and  C_7
REMARK    3  A    between atoms: C_7  and  N_8
REMARK    4  A    between atoms: C_9  and  C_11
REMARK    5  A    between atoms: C_11  and  C_12
REMARK    6  A    between atoms: C_14  and  C_15
REMARK    7  A    between atoms: C_15  and  N_16
REMARK    8  A    between atoms: N_19  and  C_20
REMARK                            x       y       z     vdW  Elec       q    Type
REMARK                         _______ _______ _______ _____ _____    ______ ____
ROOT
ATOM     12  C   UNL     1      -5.027   1.941  25.004  0.00  0.00    +0.157 C 
ATOM     13  O   UNL     1      -4.286   2.288  25.111  0.00  0.00    -0.351 OA
ATOM     14  C   UNL     1      -4.400   3.079  25.311  0.00  0.00    +0.170 C 
ATOM     23  C   UNL     1      -5.213   3.223  25.329  0.00  0.00    +0.213 C 
ATOM     24  O   UNL     1      -5.575   3.942  25.505  0.00  0.00    -0.218 OA
ATOM     25  C   UNL     1      -5.599   2.518  25.139  0.00  0.00    +0.212 C 
ATOM     26  O   UNL     1      -6.417   2.412  25.093  0.00  0.00    -0.218 OA
ENDROOT
BRANCH  12  11
ATOM     11  C   UNL     1      -5.169   1.154  24.799  0.00  0.00    +0.119 C 
BRANCH  11   9
ATOM      8  N   UNL     1      -4.345  -0.001  24.964  0.00  0.00    -0.200 NA
ATOM      9  C   UNL     1      -4.879   0.545  25.275  0.00  0.00    +0.244 C 
ATOM     10  O   UNL     1      -5.123   0.484  26.060  0.00  0.00    -0.273 OA
BRANCH   8   7
ATOM      7  C   UNL     1      -4.055  -0.610  25.440  0.00  0.00    +0.141 C 
BRANCH   7   6
ATOM      3  C   UNL     1      -2.390  -2.201  24.534  0.00  0.00    +0.139 A 
ATOM      4  C   UNL     1      -2.140  -1.544  24.964  0.00  0.00    +0.037 A 
ATOM      5  C   UNL     1      -2.695  -1.013  25.267  0.00  0.00    +0.001 A 
ATOM      6  C   UNL     1      -3.501  -1.140  25.139  0.00  0.00    -0.000 A 
ATOM     27  C   UNL     1      -3.750  -1.799  24.708  0.00  0.00    +0.001 A 
ATOM     28  C   UNL     1      -3.196  -2.329  24.407  0.00  0.00    +0.037 A 
BRANCH   3   2
ATOM      1  C   UNL     1      -1.037  -2.530  24.214  0.00  0.00    +0.252 C 
ATOM      2  O   UNL     1      -1.836  -2.732  24.232  0.00  0.00    -0.471 OA
ENDBRANCH   3   2
ENDBRANCH   7   6
ENDBRANCH   8   7
ENDBRANCH  11   9
ENDBRANCH  12  11
BRANCH  14  15
ATOM     15  C   UNL     1      -3.808   3.632  25.467  0.00  0.00    +0.149 C 
BRANCH  15  16
ATOM     16  N   UNL     1      -3.145   3.675  24.976  0.00  0.00    -0.185 NA
ATOM     17  C   UNL     1      -2.457   4.042  25.245  0.00  0.00    +0.339 C 
ATOM     18  O   UNL     1      -2.430   4.365  26.003  0.00  0.00    -0.249 OA
ATOM     19  N   UNL     1      -1.795   4.084  24.754  0.00  0.00    -0.189 NA
BRANCH  19  20
ATOM     20  C   UNL     1      -1.106   4.452  25.022  0.00  0.00    +0.097 C 
ATOM     21  C   UNL     1      -1.020   5.269  24.950  0.00  0.00    +0.023 C 
ATOM     22  C   UNL     1      -0.504   4.002  25.363  0.00  0.00    +0.023 C 
ENDBRANCH  19  20
ENDBRANCH  15  16
ENDBRANCH  14  15
TORSDOF 8
ENDMDL
MODEL 3
REMARK VINA RESULT:      -9.9      1.481      4.803
REMARK  Name = 
REMARK  8 active torsions:
REMARK  status: ('A' for Active; 'I' for Inactive)
REMARK    1  A    between atoms: O_2  and  C_3
REMARK    2  A    between atoms: C_6  and  C_7
REMARK    3  A    between atoms: C_7  and  N_8
REMARK    4  A    between atoms: C_9  and  C_11
REMARK    5  A    between atoms: C_11  and  C_12
REMARK    6  A    between atoms: C_14  and  C_15
REMARK    7  A    between atoms: C_15  and  N_16
REMARK    8  A    between atoms: N_19  and  C_20
REMARK                            x       y       z     vdW  Elec       q    Type
REMARK                         _______ _______ _______ _____ _____    ______ ____
ROOT
ATOM     12  C   UNL     1      -0.873   1.880  24.804  0.00  0.00    +0.157 C 
ATOM     13  O   UNL     1      -1.640   2.074  25.038  0.00  0.00    -0.351 OA
ATOM     14  C   UNL     1      -1.717   2.894  25.008  0.00  0.00    +0.170 C 
ATOM     23  C   UNL     1      -0.997   3.209  24.755  0.00  0.00    +0.213 C 
ATOM     24  O   UNL     1      -0.828   4.008  24.647  0.00  0.00    -0.218 OA
ATOM     25  C   UNL     1      -0.476   2.581  24.629  0.00  0.00    +0.212 C 
ATOM     26  O   UNL     1       0.306   2.645  24.372  0.00  0.00    -0.218 OA
ENDROOT
BRANCH  12  11
ATOM     11  C   UNL     1      -0.559   1.119  24.754  0.00  0.00    +0.119 C 
BRANCH  11   9
ATOM      8  N   UNL     1      -1.285  -0.093  24.965  0.00  0.00    -0.200 NA
ATOM      9  C   UNL     1      -0.829   0.527  25.262  0.00  0.00    +0.244 C 
ATOM     10  O   UNL     1      -0.644   0.556  26.065  0.00  0.00    -0.273 OA
BRANCH   8   7
ATOM      7  C   UNL     1      -1.556  -0.685  25.473  0.00  0.00    +0.141 C 
BRANCH   7   6
ATOM      3  C   UNL     1      -3.187  -2.360  24.662  0.00  0.00    +0.139 A 
ATOM      4  C   UNL     1      -3.440  -1.737  25.140  0.00  0.00    +0.037 A 
ATOM      5  C   UNL     1      -2.896  -1.178  25.410  0.00  0.00    +0.001 A 
ATOM      6  C   UNL     1      -2.099  -1.243  25.203  0.00  0.00    -0.000 A 
ATOM     27  C   UNL     1      -1.847  -1.867  24.725  0.00  0.00    +0.001 A 
ATOM     28  C   UNL     1      -2.391  -2.425  24.455  0.00  0.00    +0.037 A 
BRANCH   3   2
ATOM      1  C   UNL     1      -4.299  -2.706  23.833  0.00  0.00    +0.252 C 
ATOM      2  O   UNL     1      -3.730  -2.919  24.391  0.00  0.00    -0.471 OA
ENDBRANCH   3   2
ENDBRANCH   7   6
ENDBRANCH   8   7
ENDBRANCH  11   9
ENDBRANCH  12  11
BRANCH  14  15
ATOM     15  C   UNL     1      -2.394   3.326  25.198  0.00  0.00    +0.149 C 
BRANCH  15  16
ATOM     16  N   UNL     1      -3.134   3.065  24.942  0.00  0.00    -0.185 NA
ATOM     17  C   UNL     1      -3.814   3.289  25.352  0.00  0.00    +0.339 C 
ATOM     18  O   UNL     1      -3.754   3.775  26.016  0.00  0.00    -0.249 OA
ATOM     19  N   UNL     1      -4.553   3.028  25.096  0.00  0.00    -0.189 NA
BRANCH  19  20
ATOM     20  C   UNL     1      -5.234   3.253  25.506  0.00  0.00    +0.097 C 
ATOM     21  C   UNL     1      -5.526   4.021  25.430  0.00  0.00    +0.023 C 
ATOM     22  C   UNL     1      -5.623   2.709  25.990  0.00  0.00    +0.023 C 
ENDBRANCH  19  20
ENDBRANCH  15  16
ENDBRANCH  14  15
TORSDOF 8
ENDMDL
MODEL 4
REMARK VINA RESULT:      -9.8      1.520      4.235
REMARK  Name = 
REMARK  8 active torsions:
REMARK  status: ('A' for Active; 'I' for Inactive)
REMARK    1  A    between atoms: O_2  and  C_3
REMARK    2  A    between atoms: C_6  and  C_7
REMARK    3  A    between atoms: C_7  and  N_8
REMARK    4  A    between atoms: C_9  and  C_11
REMARK    5  A    between atoms: C_11  and  C_12
REMARK    6  A    between atoms: C_14  and  C_15
REMARK    7  A    between atoms: C_15  and  N_16
REMARK    8  A    between atoms: N_19  and  C_20
REMARK                            x       y       z     vdW  Elec       q    Type
REMARK                         _______ _______ _______ _____ _____    ______ ____
ROOT
ATOM     12  C   UNL     1      -0.788   1.444  24.401  0.00  0.00    +0.157 C 
ATOM     13  O   UNL     1      -1.317   0.822  24.517  0.00  0.00    -0.351 OA
ATOM     14  C   UNL     1      -0.922   0.116  24.357  0.00  0.00    +0.170 C 
ATOM     23  C   UNL     1      -0.147   0.302  24.142  0.00  0.00    +0.213 C 
ATOM     24  O   UNL     1       0.442  -0.237  23.936  0.00  0.00    -0.218 OA
ATOM     25  C   UNL     1      -0.065   1.123  24.170  0.00  0.00    +0.212 C 
ATOM     26  O   UNL     1       0.621   1.547  23.996  0.00  0.00    -0.218 OA
ENDROOT
BRANCH  12  11
ATOM     11  C   UNL     1      -0.954   2.246  24.500  0.00  0.00    +0.119 C 
BRANCH  11   9
ATOM      8  N   UNL     1      -2.283   2.751  24.640  0.00  0.00    -0.200 NA
ATOM      9  C   UNL     1      -1.634   2.571  24.164  0.00  0.00    +0.244 C 
ATOM     10  O   UNL     1      -1.665   2.715  23.352  0.00  0.00    -0.273 OA
BRANCH   8   7
ATOM      7  C   UNL     1      -2.963   3.076  24.303  0.00  0.00    +0.141 C 
BRANCH   7   6
ATOM      3  C   UNL     1      -5.091   3.070  25.566  0.00  0.00    +0.139 A 
ATOM      4  C   UNL     1      -4.990   2.558  24.928  0.00  0.00    +0.037 A 
ATOM      5  C   UNL     1      -4.280   2.560  24.506  0.00  0.00    +0.001 A 
ATOM      6  C   UNL     1      -3.672   3.074  24.724  0.00  0.00    -0.000 A 
ATOM     27  C   UNL     1      -3.775   3.586  25.363  0.00  0.00    +0.001 A 
ATOM     28  C   UNL     1      -4.483   3.584  25.784  0.00  0.00    +0.037 A 
BRANCH   3   2
ATOM      1  C   UNL     1      -6.161   2.354  26.188  0.00  0.00    +0.252 C 
ATOM      2  O   UNL     1      -5.800   3.068  25.988  0.00  0.00    -0.471 OA
ENDBRANCH   3   2
ENDBRANCH   7   6
ENDBRANCH   8   7
ENDBRANCH  11   9
ENDBRANCH  12  11
BRANCH  14  15
ATOM     15  C   UNL     1      -1.243  -0.642  24.403  0.00  0.00    +0.149 C 
BRANCH  15  16
ATOM     16  N   UNL     1      -2.044  -0.741  24.579  0.00  0.00    -0.185 NA
ATOM     17  C   UNL     1      -2.389  -1.487  24.519  0.00  0.00    +0.339 C 
ATOM     18  O   UNL     1      -1.936  -2.135  24.283  0.00  0.00    -0.249 OA
ATOM     19  N   UNL     1      -3.189  -1.585  24.695  0.00  0.00    -0.189 NA
BRANCH  19  20
ATOM     20  C   UNL     1      -3.536  -2.332  24.635  0.00  0.00    +0.097 C 
ATOM     21  C   UNL     1      -4.005  -2.517  23.983  0.00  0.00    +0.023 C 
ATOM     22  C   UNL     1      -3.413  -2.893  25.228  0.00  0.00    +0.023 C 
ENDBRANCH  19  20
ENDBRANCH  15  16
ENDBRANCH  14  15
TORSDOF 8
ENDMDL
MODEL 5
REMARK VINA RESULT:      -9.6      1.645      5.211
REMARK  Name = 
REMARK  8 active torsions:
REMARK  status: ('A' for Active; 'I' for Inactive)
REMARK    1  A    between atoms: O_2  and  C_3
REMARK    2  A    between atoms: C_6  and  C_7
REMARK    3  A    between atoms: C_7  and  N_8
REMARK    4  A    between atoms: C_9  and  C_11
REMARK    5  A    between atoms: C_11  and  C_12
REMARK    6  A    between atoms: C_14  and  C_15
REMARK    7  A    between atoms: C_15  and  N_16
REMARK    8  A    between atoms: N_19  and  C_20
REMARK                            x       y       z     vdW  Elec       q    Type
REMARK                         _______ _______ _______ _____ _____    ______ ____
ROOT
ATOM     12  C   UNL     1      -2.645  -1.280  24.958  0.00  0.00    +0.157 C 
ATOM     13  O   UNL     1      -2.288  -0.544  25.066  0.00  0.00    -0.351 OA
ATOM     14  C   UNL     1      -1.471  -0.654  25.071  0.00  0.00    +0.170 C 
ATOM     23  C   UNL     1      -1.322  -1.459  24.967  0.00  0.00    +0.213 C 
ATOM     24  O   UNL     1      -0.579  -1.816  24.937  0.00  0.00    -0.218 OA
ATOM     25  C   UNL     1      -2.049  -1.845  24.897  0.00  0.00    +0.212 C 
ATOM     26  O   UNL     1      -2.158  -2.656  24.786  0.00  0.00    -0.218 OA
ENDROOT
BRANCH  12  11
ATOM     11  C   UNL     1      -3.457  -1.423  24.919  0.00  0.00    +0.119 C 
BRANCH  11   9
ATOM      8  N   UNL     1      -4.250  -0.236  24.865  0.00  0.00    -0.200 NA
ATOM      9  C   UNL     1      -3.946  -0.909  24.498  0.00  0.00    +0.244 C 
ATOM     10  O   UNL     1      -4.131  -1.069  23.710  0.00  0.00    -0.273 OA
BRANCH   8   7
ATOM      7  C   UNL     1      -4.740   0.278  24.443  0.00  0.00    +0.141 C 
BRANCH   7   6
ATOM      3  C   UNL     1      -5.164   2.561  25.299  0.00  0.00    +0.139 A 
ATOM      4  C   UNL     1      -4.592   2.438  24.718  0.00  0.00    +0.037 A 
ATOM      5  C   UNL     1      -4.450   1.677  24.432  0.00  0.00    +0.001 A 
ATOM      6  C   UNL     1      -4.881   1.038  24.728  0.00  0.00    -0.000 A 
ATOM     27  C   UNL     1      -5.453   1.161  25.311  0.00  0.00    +0.001 A 
ATOM     28  C   UNL     1      -5.595   1.922  25.596  0.00  0.00    +0.037 A 
BRANCH   3   2
ATOM      1  C   UNL     1      -4.679   3.843  25.701  0.00  0.00    +0.252 C 
ATOM      2  O   UNL     1      -5.306   3.321  25.585  0.00  0.00    -0.471 OA
ENDBRANCH   3   2
ENDBRANCH   7   6
ENDBRANCH   8   7
ENDBRANCH  11   9
ENDBRANCH  12  11
BRANCH  14  15
ATOM     15  C   UNL     1      -0.901  -0.065  25.164  0.00  0.00    +0.149 C 
BRANCH  15  16
ATOM     16  N   UNL     1      -1.077   0.613  25.602  0.00  0.00    -0.185 NA
ATOM     17  C   UNL     1      -0.647   1.306  25.478  0.00  0.00    +0.339 C 
ATOM     18  O   UNL     1      -0.042   1.322  24.917  0.00  0.00    -0.249 OA
ATOM     19  N   UNL     1      -0.824   1.983  25.915  0.00  0.00    -0.189 NA
BRANCH  19  20
ATOM     20  C   UNL     1      -0.394   2.677  25.791  0.00  0.00    +0.097 C 
ATOM     21  C   UNL     1       0.314   2.801  26.196  0.00  0.00    +0.023 C 
ATOM     22  C   UNL     1      -0.673   3.246  25.263  0.00  0.00    +0.023 C 
ENDBRANCH  19  20
ENDBRANCH  15  16
ENDBRANCH  14  15
TORSDOF 8
ENDMDL
MODEL 6
REMARK VINA RESULT:      -9.4      1.451      4.131
REMARK  Name = 
REMARK  8 active torsions:
REMARK  status: ('A' for Active; 'I' for Inactive)
REMARK    1  A    between atoms: O_2  and  C_3
REMARK    2  A    between atoms: C_6  and  C_7
REMARK    3  A    between atoms: C_7  and  N_8
REMARK    4  A    between atoms: C_9  and  C_11
REMARK    5  A    between atoms: C_11  and  C_12
REMARK    6  A    between atoms: C_14  and  C_15
REMARK    7  A    between atoms: C_15  and  N_16
REMARK    8  A    between atoms: N_19  and  C_20
REMARK                            x       y       z     vdW  Elec       q    Type
REMARK                         _______ _______ _______ _____ _____    ______ ____
ROOT
ATOM     12  C   UNL     1      -2.992   2.983  25.129  0.00  0.00    +0.157 C 
ATOM     13  O   UNL     1      -2.440   2.459  24.810  0.00  0.00    -0.351 OA
ATOM     14  C   UNL     1      -1.708   2.838  24.790  0.00  0.00    +0.170 C 
ATOM     23  C   UNL     1      -1.807   3.598  25.097  0.00  0.00    +0.213 C 
ATOM     24  O   UNL     1      -1.218   4.168  25.180  0.00  0.00    -0.218 OA
ATOM     25  C   UNL     1      -2.601   3.687  25.307  0.00  0.00    +0.212 C 
ATOM     26  O   UNL     1      -2.942   4.362  25.637  0.00  0.00    -0.218 OA
ENDROOT
BRANCH  12  11
ATOM     11  C   UNL     1      -3.793   2.829  25.250  0.00  0.00    +0.119 C 
BRANCH  11   9
ATOM      8  N   UNL     1      -4.123   1.448  25.097  0.00  0.00    -0.200 NA
ATOM      9  C   UNL     1      -4.165   2.226  24.827  0.00  0.00    +0.244 C 
ATOM     10  O   UNL     1      -4.578   2.401  24.135  0.00  0.00    -0.273 OA
BRANCH   8   7
ATOM      7  C   UNL     1      -4.495   0.844  24.673  0.00  0.00    +0.141 C 
BRANCH   7   6
ATOM      3  C   UNL     1      -3.658  -1.479  24.838  0.00  0.00    +0.139 A 
ATOM      4  C   UNL     1      -3.796  -1.142  24.098  0.00  0.00    +0.037 A 
ATOM      5  C   UNL     1      -4.076  -0.367  24.043  0.00  0.00    +0.001 A 
ATOM      6  C   UNL     1      -4.216   0.071  24.728  0.00  0.00    -0.000 A 
ATOM     27  C   UNL     1      -4.077  -0.267  25.469  0.00  0.00    +0.001 A 
ATOM     28  C   UNL     1      -3.798  -1.041  25.523  0.00  0.00    +0.037 A 
BRANCH   3   2
ATOM      1  C   UNL     1      -3.664  -2.833  24.382  0.00  0.00    +0.252 C 
ATOM      2  O   UNL     1      -3.379  -2.252  24.893  0.00  0.00    -0.471 OA
ENDBRANCH   3   2
ENDBRANCH   7   6
ENDBRANCH   8   7
ENDBRANCH  11   9
ENDBRANCH  12  11
BRANCH  14  15
ATOM     15  C   UNL     1      -1.002   2.517  24.512  0.00  0.00    +0.149 C 
BRANCH  15  16
ATOM     16  N   UNL     1      -1.017   1.874  23.993  0.00  0.00    -0.185 NA
ATOM     17  C   UNL     1      -0.449   1.280  24.058  0.00  0.00    +0.339 C 
ATOM     18  O   UNL     1       0.134   1.327  24.639  0.00  0.00    -0.249 OA
ATOM     19  N   UNL     1      -0.465   0.638  23.540  0.00  0.00    -0.189 NA
BRANCH  19  20
ATOM     20  C   UNL     1       0.104   0.042  23.604  0.00  0.00    +0.097 C 
ATOM     21  C   UNL     1      -0.033  -0.606  24.094  0.00  0.00    +0.023 C 
ATOM     22  C   UNL     1       0.808   0.097  23.177  0.00  0.00    +0.023 C 
ENDBRANCH  19  20
ENDBRANCH  15  16
ENDBRANCH  14  15
TORSDOF 8
ENDMDL
MODEL 7
REMARK VINA RESULT:      -9.3      1.620      3.866
REMARK  Name = 
REMARK  8 active torsions:
REMARK  status: ('A' for Active; 'I' for Inactive)
REMARK    1  A    between atoms: O_2  and  C_3
REMARK    2  A    between atoms: C_6  and  C_7
REMARK    3  A    between atoms: C_7  and  N_8
REMARK    4  A    between atoms: C_9  and  C_11
REMARK    5  A    between atoms: C_11  and  C_12
REMARK    6  A    between atoms: C_14  and  C_15
REMARK    7  A    between atoms: C_15  and  N_16
REMARK    8  A    between atoms: N_19  and  C_20
REMARK                            x       y       z     vdW  Elec       q    Type
REMARK                         _______ _______ _______ _____ _____    ______ ____
ROOT
ATOM     12  C   UNL     1      -1.709  -1.118  24.955  0.00  0.00    +0.157 C 
ATOM     13  O   UNL     1      -2.315  -0.557  24.967  0.00  0.00    -0.351 OA
ATOM     14  C   UNL     1      -3.030  -0.951  24.854  0.00  0.00    +0.170 C 
ATOM     23  C   UNL     1      -2.868  -1.756  24.771  0.00  0.00    +0.213 C 
ATOM     24  O   UNL     1      -3.423  -2.352  24.648  0.00  0.00    -0.218 OA
ATOM     25  C   UNL     1      -2.051  -1.858  24.834  0.00  0.00    +0.212 C 
ATOM     26  O   UNL     1      -1.648  -2.577  24.784  0.00  0.00    -0.218 OA
ENDROOT
BRANCH  12  11
ATOM     11  C   UNL     1      -0.904  -0.964  25.047  0.00  0.00    +0.119 C 
BRANCH  11   9
ATOM      8  N   UNL     1      -0.544   0.417  24.976  0.00  0.00    -0.200 NA
ATOM      9  C   UNL     1      -0.555  -0.337  24.640  0.00  0.00    +0.244 C 
ATOM     10  O   UNL     1      -0.218  -0.463  23.898  0.00  0.00    -0.273 OA
BRANCH   8   7
ATOM      7  C   UNL     1      -0.195   1.044  24.568  0.00  0.00    +0.141 C 
BRANCH   7   6
ATOM      3  C   UNL     1      -0.746   3.377  25.185  0.00  0.00    +0.139 A 
ATOM      4  C   UNL     1      -0.980   3.078  24.453  0.00  0.00    +0.037 A 
ATOM      5  C   UNL     1      -0.796   2.300  24.247  0.00  0.00    +0.001 A 
ATOM      6  C   UNL     1      -0.378   1.821  24.773  0.00  0.00    -0.000 A 
ATOM     27  C   UNL     1      -0.144   2.121  25.506  0.00  0.00    +0.001 A 
ATOM     28  C   UNL     1      -0.328   2.898  25.711  0.00  0.00    +0.037 A 
BRANCH   3   2
ATOM      1  C   UNL     1      -1.714   4.406  25.398  0.00  0.00    +0.252 C 
ATOM      2  O   UNL     1      -0.929   4.154  25.391  0.00  0.00    -0.471 OA
ENDBRANCH   3   2
ENDBRANCH   7   6
ENDBRANCH   8   7
ENDBRANCH  11   9
ENDBRANCH  12  11
BRANCH  14  15
ATOM     15  C   UNL     1      -3.778  -0.602  24.828  0.00  0.00    +0.149 C 
BRANCH  15  16
ATOM     16  N   UNL     1      -3.914   0.110  25.222  0.00  0.00    -0.185 NA
ATOM     17  C   UNL     1      -4.482   0.636  24.937  0.00  0.00    +0.339 C 
ATOM     18  O   UNL     1      -4.913   0.451  24.258  0.00  0.00    -0.249 OA
ATOM     19  N   UNL     1      -4.618   1.348  25.331  0.00  0.00    -0.189 NA
BRANCH  19  20
ATOM     20  C   UNL     1      -5.186   1.875  25.046  0.00  0.00    +0.097 C 
ATOM     21  C   UNL     1      -4.965   2.482  24.534  0.00  0.00    +0.023 C 
ATOM     22  C   UNL     1      -5.975   1.793  25.273  0.00  0.00    +0.023 C 
ENDBRANCH  19  20
ENDBRANCH  15  16
ENDBRANCH  14  15
TORSDOF 8
ENDMDL
