MODEL 1
REMARK VINA RESULT:      -6.7      0.000      0.000
REMARK  Name = 
REMARK  3 active torsions:
REMARK  status: ('A' for Active; 'I' for Inactive)
REMARK    1  A    between atoms: O_2  and  C_3
REMARK    2  A    between atoms: N_8  and  C_9
REMARK    3  A    between atoms: C_9  and  C_10
REMARK                            x       y       z     vdW  Elec       q    Type
REMARK                         _______ _______ _______ _____ _____    ______ ____
ROOT
ATOM      3  C   UNL     1      -4.669   1.898  24.895  0.00  0.00    +0.161 C 
ATOM      4  C   UNL     1      -4.118   2.512  24.904  0.00  0.00    +0.173 C 
ATOM      5  O   UNL     1      -3.330   2.500  24.664  0.00  0.00    -0.350 OA
ATOM      6  C   UNL     1      -2.896   1.870  24.356  0.00  0.00    +0.160 C 
ATOM      7  C   UNL     1      -3.144   1.096  24.211  0.00  0.00    +0.105 C 
ATOM      8  N   UNL     1      -3.887   0.763  24.338  0.00  0.00    -0.262 NA
ATOM     16  C   UNL     1      -4.565   1.119  24.643  0.00  0.00    +0.105 C 
ENDROOT
BRANCH   3   2
ATOM      1  C   UNL     1      -5.513   2.673  25.748  0.00  0.00    +0.174 C 
ATOM      2  O   UNL     1      -5.422   2.087  25.174  0.00  0.00    -0.350 OA
ENDBRANCH   3   2
BRANCH   8   9
ATOM      9  C   UNL     1      -3.961  -0.034  24.135  0.00  0.00    +0.137 C 
BRANCH   9  10
ATOM     10  C   UNL     1      -3.768  -0.620  24.683  0.00  0.00    +0.137 A 
ATOM     11  N   UNL     1      -3.445  -0.496  25.431  0.00  0.00    -0.228 NA
ATOM     12  C   UNL     1      -3.341  -1.232  25.789  0.00  0.00    +0.119 A 
ATOM     13  C   UNL     1      -3.600  -1.811  25.262  0.00  0.00    +0.098 A 
ATOM     14  N   UNL     1      -3.864  -1.433  24.578  0.00  0.00    -0.311 N 
ATOM     15  C   UNL     1      -4.171  -1.802  23.907  0.00  0.00    +0.132 C 
ENDBRANCH   9  10
ENDBRANCH   8   9
TORSDOF 3
ENDMDL
MODEL 2
REMARK VINA RESULT:      -6.5      2.474      3.422
REMARK  Name = 
REMARK  3 active torsions:
REMARK  status: ('A' for Active; 'I' for Inactive)
REMARK    1  A    between atoms: O_2  and  C_3
REMARK    2  A    between atoms: N_8  and  C_9
REMARK    3  A    between atoms: C_9  and  C_10
REMARK                            x       y       z     vdW  Elec       q    Type
REMARK                         _______ _______ _______ _____ _____    ______ ____
ROOT
ATOM      3  C   UNL     1      -1.900   1.840  24.664  0.00  0.00    +0.161 C 
ATOM      4  C   UNL     1      -1.597   1.524  23.965  0.00  0.00    +0.173 C 
ATOM      5  O   UNL     1      -1.912   1.563  23.204  0.00  0.00    -0.350 OA
ATOM      6  C   UNL     1      -2.609   1.927  22.954  0.00  0.00    +0.160 C 
ATOM      7  C   UNL     1      -3.162   2.343  23.403  0.00  0.00    +0.105 C 
ATOM      8  N   UNL     1      -3.155   2.497  24.213  0.00  0.00    -0.262 NA
ATOM     16  C   UNL     1      -2.594   2.273  24.775  0.00  0.00    +0.105 C 
ENDROOT
BRANCH   3   2
ATOM      1  C   UNL     1      -0.994   1.022  25.405  0.00  0.00    +0.174 C 
ATOM      2  O   UNL     1      -1.450   1.706  25.343  0.00  0.00    -0.350 OA
ENDBRANCH   3   2
BRANCH   8   9
ATOM      9  C   UNL     1      -3.795   2.932  24.501  0.00  0.00    +0.137 C 
BRANCH   9  10
ATOM     10  C   UNL     1      -4.472   2.544  24.768  0.00  0.00    +0.137 A 
ATOM     11  N   UNL     1      -4.685   1.766  24.594  0.00  0.00    -0.228 NA
ATOM     12  C   UNL     1      -5.400   1.606  24.975  0.00  0.00    +0.119 A 
ATOM     13  C   UNL     1      -5.628   2.286  25.384  0.00  0.00    +0.098 A 
ATOM     14  N   UNL     1      -5.055   2.865  25.256  0.00  0.00    -0.311 N 
ATOM     15  C   UNL     1      -5.062   3.631  25.562  0.00  0.00    +0.132 C 
ENDBRANCH   9  10
ENDBRANCH   8   9
TORSDOF 3
ENDMDL
MODEL 3
REMARK VINA RESULT:      -6.5      1.648      3.380
REMARK  Name = 
REMARK  3 active torsions:
REMARK  status: ('A' for Active; 'I' for Inactive)
REMARK    1  A    between atoms: O_2  and  C_3
REMARK    2  A    between atoms: N_8  and  C_9
REMARK    3  A    between atoms: C_9  and  C_10
REMARK                            x       y       z     vdW  Elec       q    Type
REMARK                         _______ _______ _______ _____ _____    ______ ____
ROOT
ATOM      3  C   UNL     1      -3.862  -1.211  24.297  0.00  0.00    +0.161 C 
ATOM      4  C   UNL     1      -3.367  -1.564  24.855  0.00  0.00    +0.173 C 
ATOM      5  O   UNL     1      -2.829  -1.204  25.366  0.00  0.00    -0.350 OA
ATOM      6  C   UNL     1      -2.653  -0.401  25.445  0.00  0.00    +0.160 C 
ATOM      7  C   UNL     1      -2.972   0.239  25.033  0.00  0.00    +0.105 C 
ATOM      8  N   UNL     1      -3.545   0.234  24.440  0.00  0.00    -0.262 NA
ATOM     16  C   UNL     1      -3.941  -0.411  24.113  0.00  0.00    +0.105 C 
ENDROOT
BRANCH   3   2
ATOM      1  C   UNL     1      -4.167  -2.533  23.848  0.00  0.00    +0.174 C 
ATOM      2  O   UNL     1      -4.342  -1.727  23.867  0.00  0.00    -0.350 OA
ENDBRANCH   3   2
BRANCH   8   9
ATOM      9  C   UNL     1      -3.749   0.973  24.134  0.00  0.00    +0.137 C 
BRANCH   9  10
ATOM     10  C   UNL     1      -4.310   1.439  24.520  0.00  0.00    +0.137 A 
ATOM     11  N   UNL     1      -4.866   1.174  25.069  0.00  0.00    -0.228 NA
ATOM     12  C   UNL     1      -5.313   1.823  25.313  0.00  0.00    +0.119 A 
ATOM     13  C   UNL     1      -5.034   2.490  24.914  0.00  0.00    +0.098 A 
ATOM     14  N   UNL     1      -4.413   2.252  24.424  0.00  0.00    -0.311 N 
ATOM     15  C   UNL     1      -3.974   2.741  23.926  0.00  0.00    +0.132 C 
ENDBRANCH   9  10
ENDBRANCH   8   9
TORSDOF 3
ENDMDL
MODEL 4
REMARK VINA RESULT:      -6.4      3.246      4.205
REMARK  Name = 
REMARK  3 active torsions:
REMARK  status: ('A' for Active; 'I' for Inactive)
REMARK    1  A    between atoms: O_2  and  C_3
REMARK    2  A    between atoms: N_8  and  C_9
REMARK    3  A    between atoms: C_9  and  C_10
REMARK                            x       y       z     vdW  Elec       q    Type
REMARK                         _______ _______ _______ _____ _____    ______ ____
ROOT
ATOM      3  C   UNL     1      -1.105   3.106  25.722  0.00  0.00    +0.161 C 
ATOM      4  C   UNL     1      -0.554   3.661  25.458  0.00  0.00    +0.173 C 
ATOM      5  O   UNL     1      -0.688   4.418  25.160  0.00  0.00    -0.350 OA
ATOM      6  C   UNL     1      -1.407   4.808  25.053  0.00  0.00    +0.160 C 
ATOM      7  C   UNL     1      -2.169   4.538  25.216  0.00  0.00    +0.105 C 
ATOM      8  N   UNL     1      -2.400   3.810  25.528  0.00  0.00    -0.262 NA
ATOM     16  C   UNL     1      -1.927   3.173  25.753  0.00  0.00    +0.105 C 
ENDROOT
BRANCH   3   2
ATOM      1  C   UNL     1      -0.176   2.031  25.578  0.00  0.00    +0.174 C 
ATOM      2  O   UNL     1      -0.793   2.391  25.990  0.00  0.00    -0.350 OA
ENDBRANCH   3   2
BRANCH   8   9
ATOM      9  C   UNL     1      -3.213   3.705  25.628  0.00  0.00    +0.137 C 
BRANCH   9  10
ATOM     10  C   UNL     1      -3.661   3.358  25.029  0.00  0.00    +0.137 A 
ATOM     11  N   UNL     1      -3.414   3.226  24.253  0.00  0.00    -0.228 NA
ATOM     12  C   UNL     1      -4.036   2.869  23.844  0.00  0.00    +0.119 A 
ATOM     13  C   UNL     1      -4.667   2.781  24.368  0.00  0.00    +0.098 A 
ATOM     14  N   UNL     1      -4.436   3.083  25.100  0.00  0.00    -0.311 N 
ATOM     15  C   UNL     1      -4.898   3.106  25.783  0.00  0.00    +0.132 C 
ENDBRANCH   9  10
ENDBRANCH   8   9
TORSDOF 3
ENDMDL
MODEL 5
REMARK VINA RESULT:      -6.3      2.365      2.668
REMARK  Name = 
REMARK  3 active torsions:
REMARK  status: ('A' for Active; 'I' for Inactive)
REMARK    1  A    between atoms: O_2  and  C_3
REMARK    2  A    between atoms: N_8  and  C_9
REMARK    3  A    between atoms: C_9  and  C_10
REMARK                            x       y       z     vdW  Elec       q    Type
REMARK                         _______ _______ _______ _____ _____    ______ ____
ROOT
ATOM      3  C   UNL     1      -5.147   2.540  24.934  0.00  0.00    +0.161 C 
ATOM      4  C   UNL     1      -5.246   2.999  25.613  0.00  0.00    +0.173 C 
ATOM      5  O   UNL     1      -4.724   3.542  25.947  0.00  0.00    -0.350 OA
ATOM      6  C   UNL     1      -3.973   3.762  25.685  0.00  0.00    +0.160 C 
ATOM      7  C   UNL     1      -3.559   3.492  25.024  0.00  0.00    +0.105 C 
ATOM      8  N   UNL     1      -3.794   2.936  24.463  0.00  0.00    -0.262 NA
ATOM     16  C   UNL     1      -4.500   2.512  24.422  0.00  0.00    +0.105 C 
ENDROOT
BRANCH   3   2
ATOM      1  C   UNL     1      -6.182   1.643  25.338  0.00  0.00    +0.174 C 
ATOM      2  O   UNL     1      -5.777   2.044  24.742  0.00  0.00    -0.350 OA
ENDBRANCH   3   2
BRANCH   8   9
ATOM      9  C   UNL     1      -3.250   2.783  23.861  0.00  0.00    +0.137 C 
BRANCH   9  10
ATOM     10  C   UNL     1      -2.669   2.206  23.966  0.00  0.00    +0.137 A 
ATOM     11  N   UNL     1      -2.373   1.942  24.689  0.00  0.00    -0.228 NA
ATOM     12  C   UNL     1      -1.804   1.364  24.536  0.00  0.00    +0.119 A 
ATOM     13  C   UNL     1      -1.748   1.272  23.718  0.00  0.00    +0.098 A 
ATOM     14  N   UNL     1      -2.283   1.792  23.365  0.00  0.00    -0.311 N 
ATOM     15  C   UNL     1      -2.409   1.882  22.556  0.00  0.00    +0.132 C 
ENDBRANCH   9  10
ENDBRANCH   8   9
TORSDOF 3
ENDMDL
MODEL 6
REMARK VINA RESULT:      -6.1      2.222      3.425
REMARK  Name = 
REMARK  3 active torsions:
REMARK  status: ('A' for Active; 'I' for Inactive)
REMARK    1  A    between atoms: O_2  and  C_3
REMARK    2  A    between atoms: N_8  and  C_9
REMARK    3  A    between atoms: C_9  and  C_10
REMARK                            x       y       z     vdW  Elec       q    Type
REMARK                         _______ _______ _______ _____ _____    ______ ____
ROOT
ATOM      3  C   UNL     1      -4.242   2.789  24.976  0.00  0.00    +0.161 C 
ATOM      4  C   UNL     1      -4.617   2.102  24.715  0.00  0.00    +0.173 C 
ATOM      5  O   UNL     1      -4.308   1.487  24.262  0.00  0.00    -0.350 OA
ATOM      6  C   UNL     1      -3.545   1.405  23.958  0.00  0.00    +0.160 C 
ATOM      7  C   UNL     1      -2.904   1.919  24.031  0.00  0.00    +0.105 C 
ATOM      8  N   UNL     1      -2.868   2.642  24.427  0.00  0.00    -0.262 NA
ATOM     16  C   UNL     1      -3.462   3.029  24.847  0.00  0.00    +0.105 C 
ENDROOT
BRANCH   3   2
ATOM      1  C   UNL     1      -5.396   3.029  25.782  0.00  0.00    +0.174 C 
ATOM      2  O   UNL     1      -4.706   3.303  25.424  0.00  0.00    -0.350 OA
ENDBRANCH   3   2
BRANCH   8   9
ATOM      9  C   UNL     1      -2.139   3.029  24.399  0.00  0.00    +0.137 C 
BRANCH   9  10
ATOM     10  C   UNL     1      -1.556   2.852  24.955  0.00  0.00    +0.137 A 
ATOM     11  N   UNL     1      -1.448   2.126  25.329  0.00  0.00    -0.228 NA
ATOM     12  C   UNL     1      -0.803   2.195  25.840  0.00  0.00    +0.119 A 
ATOM     13  C   UNL     1      -0.513   2.965  25.781  0.00  0.00    +0.098 A 
ATOM     14  N   UNL     1      -0.978   3.372  25.233  0.00  0.00    -0.311 N 
ATOM     15  C   UNL     1      -0.883   4.158  25.005  0.00  0.00    +0.132 C 
ENDBRANCH   9  10
ENDBRANCH   8   9
TORSDOF 3
ENDMDL
