MODEL 1
REMARK VINA RESULT:     -10.8      0.000      0.000
REMARK  Name = 
REMARK  8 active torsions:
REMARK  status: ('A' for Active; 'I' for Inactive)
REMARK    1  A    between atoms: O_2  and  C_3
REMARK    2  A    between atoms: C_6  and  N_7
REMARK    3  A    between atoms: N_10  and  C_11
REMARK    4  A    between atoms: C_11  and  C_12
REMARK    5  A    between atoms: C_14  and  C_15
REMARK    6  A    between atoms: C_15  and  C_16
REMARK    7  A    between atoms: C_19  and  C_20
REMARK    8  A    between atoms: C_20  and  N_21
REMARK                            x       y       z     vdW  Elec       q    Type
REMARK                         _______ _______ _______ _____ _____    ______ ____
ROOT
ATOM     12  C   UNL     1      -1.053   2.090  25.058  0.00  0.00    +0.167 C 
ATOM     13  O   UNL     1      -1.614   2.674  24.907  0.00  0.00    -0.354 OA
ATOM     14  C   UNL     1      -1.448   3.463  25.083  0.00  0.00    +0.121 C 
ATOM     28  C   UNL     1      -0.719   3.667  25.412  0.00  0.00    +0.033 C 
ATOM     29  C   UNL     1      -0.156   3.082  25.563  0.00  0.00    +0.038 C 
ATOM     30  C   UNL     1      -0.324   2.294  25.386  0.00  0.00    +0.181 C 
ATOM     31  O   UNL     1       0.239   1.709  25.537  0.00  0.00    -0.220 OA
ENDROOT
BRANCH  12  11
ATOM     11  C   UNL     1      -1.219   1.301  24.881  0.00  0.00    +0.149 C 
BRANCH  11  10
ATOM      7  N   UNL     1      -2.722  -0.197  25.388  0.00  0.00    -0.161 NA
ATOM      8  C   UNL     1      -2.123   0.199  24.984  0.00  0.00    +0.344 C 
ATOM      9  O   UNL     1      -1.826  -0.110  24.279  0.00  0.00    -0.249 OA
ATOM     10  N   UNL     1      -1.819   0.905  25.285  0.00  0.00    -0.184 NA
BRANCH   7   6
ATOM      3  C   UNL     1      -3.633  -2.314  24.488  0.00  0.00    +0.139 A 
ATOM      4  C   UNL     1      -3.013  -2.331  25.031  0.00  0.00    +0.038 A 
ATOM      5  C   UNL     1      -2.710  -1.624  25.331  0.00  0.00    +0.020 A 
ATOM      6  C   UNL     1      -3.027  -0.903  25.087  0.00  0.00    +0.075 A 
ATOM     32  C   UNL     1      -3.646  -0.887  24.544  0.00  0.00    +0.020 A 
ATOM     33  C   UNL     1      -3.950  -1.593  24.244  0.00  0.00    +0.038 A 
BRANCH   3   2
ATOM      1  C   UNL     1      -4.339  -3.023  23.467  0.00  0.00    +0.252 C 
ATOM      2  O   UNL     1      -3.937  -3.021  24.188  0.00  0.00    -0.471 OA
ENDBRANCH   3   2
ENDBRANCH   7   6
ENDBRANCH  11  10
ENDBRANCH  12  11
BRANCH  14  15
ATOM     15  C   UNL     1      -2.010   4.047  24.932  0.00  0.00    +0.079 C 
BRANCH  15  16
ATOM     16  C   UNL     1      -2.754   4.005  25.286  0.00  0.00    +0.103 A 
ATOM     17  N   UNL     1      -2.910   4.058  26.095  0.00  0.00    -0.082 NA
ATOM     18  O   UNL     1      -3.725   3.988  26.202  0.00  0.00    -0.357 OA
ATOM     19  C   UNL     1      -4.073   3.893  25.460  0.00  0.00    +0.170 A 
ATOM     27  C   UNL     1      -3.473   3.903  24.894  0.00  0.00    +0.055 A 
BRANCH  19  20
ATOM     20  C   UNL     1      -4.879   3.803  25.310  0.00  0.00    +0.141 C 
BRANCH  20  21
ATOM     21  N   UNL     1      -5.229   3.059  25.368  0.00  0.00    -0.262 NA
ATOM     22  C   UNL     1      -5.226   2.550  24.719  0.00  0.00    +0.105 C 
ATOM     23  C   UNL     1      -5.577   1.805  24.776  0.00  0.00    +0.159 C 
ATOM     24  O   UNL     1      -5.930   1.569  25.484  0.00  0.00    -0.351 OA
ATOM     25  C   UNL     1      -5.933   2.078  26.133  0.00  0.00    +0.159 C 
ATOM     26  C   UNL     1      -5.583   2.822  26.075  0.00  0.00    +0.105 C 
ENDBRANCH  20  21
ENDBRANCH  19  20
ENDBRANCH  15  16
ENDBRANCH  14  15
TORSDOF 8
ENDMDL
MODEL 2
REMARK VINA RESULT:     -10.8      1.035      3.452
REMARK  Name = 
REMARK  8 active torsions:
REMARK  status: ('A' for Active; 'I' for Inactive)
REMARK    1  A    between atoms: O_2  and  C_3
REMARK    2  A    between atoms: C_6  and  N_7
REMARK    3  A    between atoms: N_10  and  C_11
REMARK    4  A    between atoms: C_11  and  C_12
REMARK    5  A    between atoms: C_14  and  C_15
REMARK    6  A    between atoms: C_15  and  C_16
REMARK    7  A    between atoms: C_19  and  C_20
REMARK    8  A    between atoms: C_20  and  N_21
REMARK                            x       y       z     vdW  Elec       q    Type
REMARK                         _______ _______ _______ _____ _____    ______ ____
ROOT
ATOM     12  C   UNL     1      -4.851   2.552  25.254  0.00  0.00    +0.167 C 
ATOM     13  O   UNL     1      -4.185   2.927  24.944  0.00  0.00    -0.354 OA
ATOM     14  C   UNL     1      -4.107   3.747  25.003  0.00  0.00    +0.121 C 
ATOM     28  C   UNL     1      -4.696   4.191  25.372  0.00  0.00    +0.033 C 
ATOM     29  C   UNL     1      -5.363   3.816  25.683  0.00  0.00    +0.038 C 
ATOM     30  C   UNL     1      -5.440   2.997  25.623  0.00  0.00    +0.181 C 
ATOM     31  O   UNL     1      -6.106   2.621  25.934  0.00  0.00    -0.220 OA
ENDROOT
BRANCH  12  11
ATOM     11  C   UNL     1      -4.929   1.733  25.195  0.00  0.00    +0.149 C 
BRANCH  11  10
ATOM      7  N   UNL     1      -3.885   0.068  24.246  0.00  0.00    -0.161 NA
ATOM      8  C   UNL     1      -4.366   0.492  24.764  0.00  0.00    +0.344 C 
ATOM      9  O   UNL     1      -4.765   0.100  25.371  0.00  0.00    -0.249 OA
ATOM     10  N   UNL     1      -4.448   1.309  24.677  0.00  0.00    -0.184 NA
BRANCH   7   6
ATOM      3  C   UNL     1      -3.640  -2.381  24.507  0.00  0.00    +0.139 A 
ATOM      4  C   UNL     1      -4.150  -2.076  23.935  0.00  0.00    +0.038 A 
ATOM      5  C   UNL     1      -4.232  -1.260  23.848  0.00  0.00    +0.020 A 
ATOM      6  C   UNL     1      -3.803  -0.749  24.334  0.00  0.00    +0.075 A 
ATOM     32  C   UNL     1      -3.293  -1.054  24.905  0.00  0.00    +0.020 A 
ATOM     33  C   UNL     1      -3.211  -1.869  24.992  0.00  0.00    +0.038 A 
BRANCH   3   2
ATOM      1  C   UNL     1      -2.905  -3.583  24.268  0.00  0.00    +0.252 C 
ATOM      2  O   UNL     1      -3.558  -3.198  24.593  0.00  0.00    -0.471 OA
ENDBRANCH   3   2
ENDBRANCH   7   6
ENDBRANCH  11  10
ENDBRANCH  12  11
BRANCH  14  15
ATOM     15  C   UNL     1      -3.442   4.121  24.692  0.00  0.00    +0.079 C 
BRANCH  15  16
ATOM     16  C   UNL     1      -2.699   3.984  25.024  0.00  0.00    +0.103 A 
ATOM     17  N   UNL     1      -2.457   4.207  25.780  0.00  0.00    -0.082 NA
ATOM     18  O   UNL     1      -1.676   3.960  25.881  0.00  0.00    -0.357 OA
ATOM     19  C   UNL     1      -1.436   3.584  25.187  0.00  0.00    +0.170 A 
ATOM     27  C   UNL     1      -2.068   3.599  24.657  0.00  0.00    +0.055 A 
BRANCH  19  20
ATOM     20  C   UNL     1      -0.694   3.252  25.048  0.00  0.00    +0.141 C 
BRANCH  20  21
ATOM     21  N   UNL     1      -0.602   2.433  25.045  0.00  0.00    -0.262 NA
ATOM     22  C   UNL     1      -0.624   2.013  25.755  0.00  0.00    +0.105 C 
ATOM     23  C   UNL     1      -0.532   1.193  25.753  0.00  0.00    +0.159 C 
ATOM     24  O   UNL     1      -0.419   0.793  25.040  0.00  0.00    -0.351 OA
ATOM     25  C   UNL     1      -0.397   1.212  24.331  0.00  0.00    +0.159 C 
ATOM     26  C   UNL     1      -0.489   2.032  24.333  0.00  0.00    +0.105 C 
ENDBRANCH  20  21
ENDBRANCH  19  20
ENDBRANCH  15  16
ENDBRANCH  14  15
TORSDOF 8
ENDMDL
MODEL 3
REMARK VINA RESULT:     -10.1      1.420      5.163
REMARK  Name = 
REMARK  8 active torsions:
REMARK  status: ('A' for Active; 'I' for Inactive)
REMARK    1  A    between atoms: O_2  and  C_3
REMARK    2  A    between atoms: C_6  and  N_7
REMARK    3  A    between atoms: N_10  and  C_11
REMARK    4  A    between atoms: C_11  and  C_12
REMARK    5  A    between atoms: C_14  and  C_15
REMARK    6  A    between atoms: C_15  and  C_16
REMARK    7  A    between atoms: C_19  and  C_20
REMARK    8  A    between atoms: C_20  and  N_21
REMARK                            x       y       z     vdW  Elec       q    Type
REMARK                         _______ _______ _______ _____ _____    ______ ____
ROOT
ATOM     12  C   UNL     1      -3.345  -1.448  24.732  0.00  0.00    +0.167 C 
ATOM     13  O   UNL     1      -2.571  -1.268  24.953  0.00  0.00    -0.354 OA
ATOM     14  C   UNL     1      -1.962  -1.802  24.797  0.00  0.00    +0.121 C 
ATOM     28  C   UNL     1      -2.127  -2.517  24.419  0.00  0.00    +0.033 C 
ATOM     29  C   UNL     1      -2.902  -2.697  24.197  0.00  0.00    +0.038 C 
ATOM     30  C   UNL     1      -3.510  -2.162  24.354  0.00  0.00    +0.181 C 
ATOM     31  O   UNL     1      -4.285  -2.342  24.132  0.00  0.00    -0.220 OA
ENDROOT
BRANCH  12  11
ATOM     11  C   UNL     1      -3.954  -0.914  24.888  0.00  0.00    +0.149 C 
BRANCH  11  10
ATOM      7  N   UNL     1      -4.368   1.190  24.481  0.00  0.00    -0.161 NA
ATOM      8  C   UNL     1      -4.353   0.458  24.860  0.00  0.00    +0.344 C 
ATOM      9  O   UNL     1      -4.722   0.366  25.592  0.00  0.00    -0.249 OA
ATOM     10  N   UNL     1      -3.969  -0.182  24.508  0.00  0.00    -0.184 NA
BRANCH   7   6
ATOM      3  C   UNL     1      -5.518   3.110  25.535  0.00  0.00    +0.139 A 
ATOM      4  C   UNL     1      -4.694   3.070  25.540  0.00  0.00    +0.038 A 
ATOM      5  C   UNL     1      -4.311   2.430  25.188  0.00  0.00    +0.020 A 
ATOM      6  C   UNL     1      -4.752   1.830  24.832  0.00  0.00    +0.075 A 
ATOM     32  C   UNL     1      -5.575   1.871  24.828  0.00  0.00    +0.020 A 
ATOM     33  C   UNL     1      -5.959   2.511  25.179  0.00  0.00    +0.038 A 
BRANCH   3   2
ATOM      1  C   UNL     1      -5.900   4.487  25.515  0.00  0.00    +0.252 C 
ATOM      2  O   UNL     1      -5.901   3.751  25.887  0.00  0.00    -0.471 OA
ENDBRANCH   3   2
ENDBRANCH   7   6
ENDBRANCH  11  10
ENDBRANCH  12  11
BRANCH  14  15
ATOM     15  C   UNL     1      -1.188  -1.623  25.018  0.00  0.00    +0.079 C 
BRANCH  15  16
ATOM     16  C   UNL     1      -0.788  -1.001  24.651  0.00  0.00    +0.103 A 
ATOM     17  N   UNL     1      -0.603  -0.950  23.849  0.00  0.00    -0.082 NA
ATOM     18  O   UNL     1      -0.204  -0.238  23.725  0.00  0.00    -0.357 OA
ATOM     19  C   UNL     1      -0.142   0.150  24.450  0.00  0.00    +0.170 A 
ATOM     27  C   UNL     1      -0.503  -0.322  25.023  0.00  0.00    +0.055 A 
BRANCH  19  20
ATOM     20  C   UNL     1       0.218   0.880  24.580  0.00  0.00    +0.141 C 
BRANCH  20  21
ATOM     21  N   UNL     1      -0.240   1.564  24.624  0.00  0.00    -0.262 NA
ATOM     22  C   UNL     1      -0.540   1.905  23.936  0.00  0.00    +0.105 C 
ATOM     23  C   UNL     1      -0.999   2.590  23.980  0.00  0.00    +0.159 C 
ATOM     24  O   UNL     1      -1.158   2.933  24.713  0.00  0.00    -0.351 OA
ATOM     25  C   UNL     1      -0.858   2.592  25.402  0.00  0.00    +0.159 C 
ATOM     26  C   UNL     1      -0.399   1.908  25.358  0.00  0.00    +0.105 C 
ENDBRANCH  20  21
ENDBRANCH  19  20
ENDBRANCH  15  16
ENDBRANCH  14  15
TORSDOF 8
ENDMDL
MODEL 4
REMARK VINA RESULT:      -9.8      1.357      4.495
REMARK  Name = 
REMARK  8 active torsions:
REMARK  status: ('A' for Active; 'I' for Inactive)
REMARK    1  A    between atoms: O_2  and  C_3
REMARK    2  A    between atoms: C_6  and  N_7
REMARK    3  A    between atoms: N_10  and  C_11
REMARK    4  A    between atoms: C_11  and  C_12
REMARK    5  A    between atoms: C_14  and  C_15
REMARK    6  A    between atoms: C_15  and  C_16
REMARK    7  A    between atoms: C_19  and  C_20
REMARK    8  A    between atoms: C_20  and  N_21
REMARK                            x       y       z     vdW  Elec       q    Type
REMARK                         _______ _______ _______ _____ _____    ______ ____
ROOT
ATOM     12  C   UNL     1      -1.353  -0.721  24.585  0.00  0.00    +0.167 C 
ATOM     13  O   UNL     1      -2.166  -0.695  24.455  0.00  0.00    -0.354 OA
ATOM     14  C   UNL     1      -2.626  -1.370  24.574  0.00  0.00    +0.121 C 
ATOM     28  C   UNL     1      -2.271  -2.072  24.823  0.00  0.00    +0.033 C 
ATOM     29  C   UNL     1      -1.456  -2.098  24.954  0.00  0.00    +0.038 C 
ATOM     30  C   UNL     1      -0.997  -1.423  24.834  0.00  0.00    +0.181 C 
ATOM     31  O   UNL     1      -0.182  -1.450  24.965  0.00  0.00    -0.220 OA
ENDROOT
BRANCH  12  11
ATOM     11  C   UNL     1      -0.893  -0.046  24.466  0.00  0.00    +0.149 C 
BRANCH  11  10
ATOM      7  N   UNL     1      -0.712   1.843  25.543  0.00  0.00    -0.161 NA
ATOM      8  C   UNL     1      -0.820   1.304  24.929  0.00  0.00    +0.344 C 
ATOM      9  O   UNL     1      -0.962   1.574  24.163  0.00  0.00    -0.249 OA
ATOM     10  N   UNL     1      -0.785   0.493  25.080  0.00  0.00    -0.184 NA
BRANCH   7   6
ATOM      3  C   UNL     1      -0.816   4.274  25.091  0.00  0.00    +0.139 A 
ATOM      4  C   UNL     1      -1.256   3.951  25.709  0.00  0.00    +0.038 A 
ATOM      5  C   UNL     1      -1.220   3.140  25.859  0.00  0.00    +0.020 A 
ATOM      6  C   UNL     1      -0.746   2.654  25.392  0.00  0.00    +0.075 A 
ATOM     32  C   UNL     1      -0.307   2.977  24.773  0.00  0.00    +0.020 A 
ATOM     33  C   UNL     1      -0.342   3.787  24.623  0.00  0.00    +0.038 A 
BRANCH   3   2
ATOM      1  C   UNL     1      -1.558   5.495  25.053  0.00  0.00    +0.252 C 
ATOM      2  O   UNL     1      -0.851   5.085  24.940  0.00  0.00    -0.471 OA
ENDBRANCH   3   2
ENDBRANCH   7   6
ENDBRANCH  11  10
ENDBRANCH  12  11
BRANCH  14  15
ATOM     15  C   UNL     1      -3.440  -1.344  24.444  0.00  0.00    +0.079 C 
BRANCH  15  16
ATOM     16  C   UNL     1      -3.890  -0.734  24.770  0.00  0.00    +0.103 A 
ATOM     17  N   UNL     1      -3.957  -0.556  25.573  0.00  0.00    -0.082 NA
ATOM     18  O   UNL     1      -4.461   0.093  25.649  0.00  0.00    -0.357 OA
ATOM     19  C   UNL     1      -4.705   0.316  24.894  0.00  0.00    +0.170 A 
ATOM     27  C   UNL     1      -4.352  -0.195  24.350  0.00  0.00    +0.055 A 
BRANCH  19  20
ATOM     20  C   UNL     1      -5.213   0.941  24.713  0.00  0.00    +0.141 C 
BRANCH  20  21
ATOM     21  N   UNL     1      -4.950   1.719  24.781  0.00  0.00    -0.262 NA
ATOM     22  C   UNL     1      -4.515   2.063  24.170  0.00  0.00    +0.105 C 
ATOM     23  C   UNL     1      -4.252   2.842  24.238  0.00  0.00    +0.159 C 
ATOM     24  O   UNL     1      -4.424   3.277  24.917  0.00  0.00    -0.351 OA
ATOM     25  C   UNL     1      -4.859   2.934  25.528  0.00  0.00    +0.159 C 
ATOM     26  C   UNL     1      -5.122   2.155  25.460  0.00  0.00    +0.105 C 
ENDBRANCH  20  21
ENDBRANCH  19  20
ENDBRANCH  15  16
ENDBRANCH  14  15
TORSDOF 8
ENDMDL
MODEL 5
REMARK VINA RESULT:      -9.5      2.219      4.280
REMARK  Name = 
REMARK  8 active torsions:
REMARK  status: ('A' for Active; 'I' for Inactive)
REMARK    1  A    between atoms: O_2  and  C_3
REMARK    2  A    between atoms: C_6  and  N_7
REMARK    3  A    between atoms: N_10  and  C_11
REMARK    4  A    between atoms: C_11  and  C_12
REMARK    5  A    between atoms: C_14  and  C_15
REMARK    6  A    between atoms: C_15  and  C_16
REMARK    7  A    between atoms: C_19  and  C_20
REMARK    8  A    between atoms: C_20  and  N_21
REMARK                            x       y       z     vdW  Elec       q    Type
REMARK                         _______ _______ _______ _____ _____    ______ ____
ROOT
ATOM     12  C   UNL     1      -2.306  -0.672  24.952  0.00  0.00    +0.167 C 
ATOM     13  O   UNL     1      -2.829  -0.189  24.534  0.00  0.00    -0.354 OA
ATOM     14  C   UNL     1      -3.631  -0.184  24.728  0.00  0.00    +0.121 C 
ATOM     28  C   UNL     1      -3.910  -0.662  25.339  0.00  0.00    +0.033 C 
ATOM     29  C   UNL     1      -3.388  -1.146  25.757  0.00  0.00    +0.038 C 
ATOM     30  C   UNL     1      -2.586  -1.150  25.563  0.00  0.00    +0.181 C 
ATOM     31  O   UNL     1      -2.063  -1.634  25.981  0.00  0.00    -0.220 OA
ENDROOT
BRANCH  12  11
ATOM     11  C   UNL     1      -1.504  -0.677  24.758  0.00  0.00    +0.149 C 
BRANCH  11  10
ATOM      7  N   UNL     1      -0.106   0.429  23.500  0.00  0.00    -0.161 NA
ATOM      8  C   UNL     1      -0.414  -0.149  24.000  0.00  0.00    +0.344 C 
ATOM      9  O   UNL     1       0.060  -0.780  24.242  0.00  0.00    -0.249 OA
ATOM     10  N   UNL     1      -1.196  -0.098  24.258  0.00  0.00    -0.184 NA
BRANCH   7   6
ATOM      3  C   UNL     1       2.240   0.279  22.727  0.00  0.00    +0.139 A 
ATOM      4  C   UNL     1       2.034   0.820  23.314  0.00  0.00    +0.038 A 
ATOM      5  C   UNL     1       1.251   0.870  23.571  0.00  0.00    +0.020 A 
ATOM      6  C   UNL     1       0.676   0.379  23.242  0.00  0.00    +0.075 A 
ATOM     32  C   UNL     1       0.883  -0.162  22.655  0.00  0.00    +0.020 A 
ATOM     33  C   UNL     1       1.664  -0.212  22.397  0.00  0.00    +0.038 A 
BRANCH   3   2
ATOM      1  C   UNL     1       3.595   0.729  22.790  0.00  0.00    +0.252 C 
ATOM      2  O   UNL     1       3.022   0.229  22.469  0.00  0.00    -0.471 OA
ENDBRANCH   3   2
ENDBRANCH   7   6
ENDBRANCH  11  10
ENDBRANCH  12  11
BRANCH  14  15
ATOM     15  C   UNL     1      -4.153   0.299  24.310  0.00  0.00    +0.079 C 
BRANCH  15  16
ATOM     16  C   UNL     1      -4.308   1.064  24.575  0.00  0.00    +0.103 A 
ATOM     17  N   UNL     1      -4.820   1.271  25.188  0.00  0.00    -0.082 NA
ATOM     18  O   UNL     1      -4.806   2.093  25.266  0.00  0.00    -0.357 OA
ATOM     19  C   UNL     1      -4.286   2.394  24.701  0.00  0.00    +0.170 A 
ATOM     27  C   UNL     1      -3.978   1.758  24.274  0.00  0.00    +0.055 A 
BRANCH  19  20
ATOM     20  C   UNL     1      -4.106   3.190  24.583  0.00  0.00    +0.141 C 
BRANCH  20  21
ATOM     21  N   UNL     1      -3.496   3.542  25.011  0.00  0.00    -0.262 NA
ATOM     22  C   UNL     1      -2.738   3.589  24.688  0.00  0.00    +0.105 C 
ATOM     23  C   UNL     1      -2.128   3.942  25.116  0.00  0.00    +0.159 C 
ATOM     24  O   UNL     1      -2.276   4.249  25.868  0.00  0.00    -0.351 OA
ATOM     25  C   UNL     1      -3.033   4.202  26.191  0.00  0.00    +0.159 C 
ATOM     26  C   UNL     1      -3.643   3.849  25.763  0.00  0.00    +0.105 C 
ENDBRANCH  20  21
ENDBRANCH  19  20
ENDBRANCH  15  16
ENDBRANCH  14  15
TORSDOF 8
ENDMDL
MODEL 6
REMARK VINA RESULT:      -9.0      1.542      4.442
REMARK  Name = 
REMARK  8 active torsions:
REMARK  status: ('A' for Active; 'I' for Inactive)
REMARK    1  A    between atoms: O_2  and  C_3
REMARK    2  A    between atoms: C_6  and  N_7
REMARK    3  A    between atoms: N_10  and  C_11
REMARK    4  A    between atoms: C_11  and  C_12
REMARK    5  A    between atoms: C_14  and  C_15
REMARK    6  A    between atoms: C_15  and  C_16
REMARK    7  A    between atoms: C_19  and  C_20
REMARK    8  A    between atoms: C_20  and  N_21
REMARK                            x       y       z     vdW  Elec       q    Type
REMARK                         _______ _______ _______ _____ _____    ______ ____
ROOT
ATOM     12  C   UNL     1      -0.520   1.701  24.296  0.00  0.00    +0.167 C 
ATOM     13  O   UNL     1      -0.608   0.913  24.071  0.00  0.00    -0.354 OA
ATOM     14  C   UNL     1       0.045   0.485  23.804  0.00  0.00    +0.121 C 
ATOM     28  C   UNL     1       0.786   0.845  23.763  0.00  0.00    +0.033 C 
ATOM     29  C   UNL     1       0.874   1.634  23.988  0.00  0.00    +0.038 C 
ATOM     30  C   UNL     1       0.221   2.062  24.255  0.00  0.00    +0.181 C 
ATOM     31  O   UNL     1       0.310   2.851  24.480  0.00  0.00    -0.220 OA
ENDROOT
BRANCH  12  11
ATOM     11  C   UNL     1      -1.172   2.130  24.563  0.00  0.00    +0.149 C 
BRANCH  11  10
ATOM      7  N   UNL     1      -3.290   2.264  24.054  0.00  0.00    -0.161 NA
ATOM      8  C   UNL     1      -2.594   2.252  24.496  0.00  0.00    +0.344 C 
ATOM      9  O   UNL     1      -2.625   2.351  25.315  0.00  0.00    -0.249 OA
ATOM     10  N   UNL     1      -1.868   2.142  24.121  0.00  0.00    -0.184 NA
BRANCH   7   6
ATOM      3  C   UNL     1      -5.469   2.592  25.179  0.00  0.00    +0.139 A 
ATOM      4  C   UNL     1      -5.246   1.839  24.925  0.00  0.00    +0.038 A 
ATOM      5  C   UNL     1      -4.520   1.731  24.550  0.00  0.00    +0.020 A 
ATOM      6  C   UNL     1      -4.017   2.374  24.429  0.00  0.00    +0.075 A 
ATOM     32  C   UNL     1      -4.240   3.125  24.684  0.00  0.00    +0.020 A 
ATOM     33  C   UNL     1      -4.966   3.235  25.058  0.00  0.00    +0.038 A 
BRANCH   3   2
ATOM      1  C   UNL     1      -6.415   2.209  26.179  0.00  0.00    +0.252 C 
ATOM      2  O   UNL     1      -6.197   2.701  25.555  0.00  0.00    -0.471 OA
ENDBRANCH   3   2
ENDBRANCH   7   6
ENDBRANCH  11  10
ENDBRANCH  12  11
BRANCH  14  15
ATOM     15  C   UNL     1      -0.043  -0.304  23.579  0.00  0.00    +0.079 C 
BRANCH  15  16
ATOM     16  C   UNL     1      -0.382  -0.846  24.100  0.00  0.00    +0.103 A 
ATOM     17  N   UNL     1      -0.103  -1.034  24.853  0.00  0.00    -0.082 NA
ATOM     18  O   UNL     1      -0.608  -1.600  25.178  0.00  0.00    -0.357 OA
ATOM     19  C   UNL     1      -1.199  -1.762  24.626  0.00  0.00    +0.170 A 
ATOM     27  C   UNL     1      -1.059  -1.296  23.959  0.00  0.00    +0.055 A 
BRANCH  19  20
ATOM     20  C   UNL     1      -1.820  -2.296  24.722  0.00  0.00    +0.141 C 
BRANCH  20  21
ATOM     21  N   UNL     1      -2.585  -2.019  24.856  0.00  0.00    -0.262 NA
ATOM     22  C   UNL     1      -3.158  -2.086  24.266  0.00  0.00    +0.105 C 
ATOM     23  C   UNL     1      -3.924  -1.809  24.400  0.00  0.00    +0.159 C 
ATOM     24  O   UNL     1      -4.116  -1.464  25.125  0.00  0.00    -0.351 OA
ATOM     25  C   UNL     1      -3.543  -1.397  25.714  0.00  0.00    +0.159 C 
ATOM     26  C   UNL     1      -2.779  -1.674  25.581  0.00  0.00    +0.105 C 
ENDBRANCH  20  21
ENDBRANCH  19  20
ENDBRANCH  15  16
ENDBRANCH  14  15
TORSDOF 8
ENDMDL
MODEL 7
REMARK VINA RESULT:      -8.6      1.833      3.954
REMARK  Name = 
REMARK  8 active torsions:
REMARK  status: ('A' for Active; 'I' for Inactive)
REMARK    1  A    between atoms: O_2  and  C_3
REMARK    2  A    between atoms: C_6  and  N_7
REMARK    3  A    between atoms: N_10  and  C_11
REMARK    4  A    between atoms: C_11  and  C_12
REMARK    5  A    between atoms: C_14  and  C_15
REMARK    6  A    between atoms: C_15  and  C_16
REMARK    7  A    between atoms: C_19  and  C_20
REMARK    8  A    between atoms: C_20  and  N_21
REMARK                            x       y       z     vdW  Elec       q    Type
REMARK                         _______ _______ _______ _____ _____    ______ ____
ROOT
ATOM     12  C   UNL     1      -2.452   3.349  25.064  0.00  0.00    +0.167 C 
ATOM     13  O   UNL     1      -3.098   2.929  24.772  0.00  0.00    -0.354 OA
ATOM     14  C   UNL     1      -3.856   3.083  25.060  0.00  0.00    +0.121 C 
ATOM     28  C   UNL     1      -3.966   3.659  25.642  0.00  0.00    +0.033 C 
ATOM     29  C   UNL     1      -3.319   4.080  25.934  0.00  0.00    +0.038 C 
ATOM     30  C   UNL     1      -2.562   3.924  25.645  0.00  0.00    +0.181 C 
ATOM     31  O   UNL     1      -1.915   4.345  25.938  0.00  0.00    -0.220 OA
ENDROOT
BRANCH  12  11
ATOM     11  C   UNL     1      -1.694   3.195  24.776  0.00  0.00    +0.149 C 
BRANCH  11  10
ATOM      7  N   UNL     1      -0.398   1.442  24.692  0.00  0.00    -0.161 NA
ATOM      8  C   UNL     1      -0.792   2.130  24.469  0.00  0.00    +0.344 C 
ATOM      9  O   UNL     1      -0.679   2.444  23.714  0.00  0.00    -0.249 OA
ATOM     10  N   UNL     1      -1.300   2.506  24.999  0.00  0.00    -0.184 NA
BRANCH   7   6
ATOM      3  C   UNL     1       1.126   0.315  23.101  0.00  0.00    +0.139 A 
ATOM      4  C   UNL     1       1.371   0.999  23.492  0.00  0.00    +0.038 A 
ATOM      5  C   UNL     1       0.863   1.374  24.022  0.00  0.00    +0.020 A 
ATOM      6  C   UNL     1       0.110   1.065  24.161  0.00  0.00    +0.075 A 
ATOM     32  C   UNL     1      -0.134   0.382  23.770  0.00  0.00    +0.020 A 
ATOM     33  C   UNL     1       0.373   0.007  23.240  0.00  0.00    +0.038 A 
BRANCH   3   2
ATOM      1  C   UNL     1       2.449   0.051  22.631  0.00  0.00    +0.252 C 
ATOM      2  O   UNL     1       1.635  -0.061  22.570  0.00  0.00    -0.471 OA
ENDBRANCH   3   2
ENDBRANCH   7   6
ENDBRANCH  11  10
ENDBRANCH  12  11
BRANCH  14  15
ATOM     15  C   UNL     1      -4.502   2.663  24.768  0.00  0.00    +0.079 C 
BRANCH  15  16
ATOM     16  C   UNL     1      -4.438   1.853  24.626  0.00  0.00    +0.103 A 
ATOM     17  N   UNL     1      -4.226   1.502  23.910  0.00  0.00    -0.082 NA
ATOM     18  O   UNL     1      -4.230   0.684  24.016  0.00  0.00    -0.357 OA
ATOM     19  C   UNL     1      -4.445   0.529  24.798  0.00  0.00    +0.170 A 
ATOM     27  C   UNL     1      -4.573   1.252  25.175  0.00  0.00    +0.055 A 
BRANCH  19  20
ATOM     20  C   UNL     1      -4.519  -0.217  25.142  0.00  0.00    +0.141 C 
BRANCH  20  21
ATOM     21  N   UNL     1      -3.890  -0.749  25.113  0.00  0.00    -0.262 NA
ATOM     22  C   UNL     1      -3.850  -1.308  24.509  0.00  0.00    +0.105 C 
ATOM     23  C   UNL     1      -3.220  -1.841  24.480  0.00  0.00    +0.159 C 
ATOM     24  O   UNL     1      -2.630  -1.813  25.056  0.00  0.00    -0.351 OA
ATOM     25  C   UNL     1      -2.670  -1.253  25.661  0.00  0.00    +0.159 C 
ATOM     26  C   UNL     1      -3.300  -0.721  25.689  0.00  0.00    +0.105 C 
ENDBRANCH  20  21
ENDBRANCH  19  20
ENDBRANCH  15  16
ENDBRANCH  14  15
TORSDOF 8
ENDMDL
MODEL 8
REMARK VINA RESULT:      -8.3      3.518      6.678
REMARK  Name = 
REMARK  8 active torsions:
REMARK  status: ('A' for Active; 'I' for Inactive)
REMARK    1  A    between atoms: O_2  and  C_3
REMARK    2  A    between atoms: C_6  and  N_7
REMARK    3  A    between atoms: N_10  and  C_11
REMARK    4  A    between atoms: C_11  and  C_12
REMARK    5  A    between atoms: C_14  and  C_15
REMARK    6  A    between atoms: C_15  and  C_16
REMARK    7  A    between atoms: C_19  and  C_20
REMARK    8  A    between atoms: C_20  and  N_21
REMARK                            x       y       z     vdW  Elec       q    Type
REMARK                         _______ _______ _______ _____ _____    ______ ____
ROOT
ATOM     12  C   UNL     1      -0.487   0.152  24.351  0.00  0.00    +0.167 C 
ATOM     13  O   UNL     1      -0.036   0.431  23.720  0.00  0.00    -0.354 OA
ATOM     14  C   UNL     1       0.522  -0.061  23.362  0.00  0.00    +0.121 C 
ATOM     28  C   UNL     1       0.628  -0.832  23.636  0.00  0.00    +0.033 C 
ATOM     29  C   UNL     1       0.176  -1.111  24.267  0.00  0.00    +0.038 C 
ATOM     30  C   UNL     1      -0.382  -0.619  24.625  0.00  0.00    +0.181 C 
ATOM     31  O   UNL     1      -0.834  -0.899  25.256  0.00  0.00    -0.220 OA
ENDROOT
BRANCH  12  11
ATOM     11  C   UNL     1      -1.045   0.643  24.709  0.00  0.00    +0.149 C 
BRANCH  11  10
ATOM      7  N   UNL     1      -2.304   2.345  24.179  0.00  0.00    -0.161 NA
ATOM      8  C   UNL     1      -2.009   1.691  24.585  0.00  0.00    +0.344 C 
ATOM      9  O   UNL     1      -2.382   1.430  25.272  0.00  0.00    -0.249 OA
ATOM     10  N   UNL     1      -1.340   1.297  24.304  0.00  0.00    -0.184 NA
BRANCH   7   6
ATOM      3  C   UNL     1      -4.307   3.527  25.023  0.00  0.00    +0.139 A 
ATOM      4  C   UNL     1      -3.555   3.777  25.252  0.00  0.00    +0.038 A 
ATOM      5  C   UNL     1      -2.888   3.382  24.970  0.00  0.00    +0.020 A 
ATOM      6  C   UNL     1      -2.972   2.739  24.460  0.00  0.00    +0.075 A 
ATOM     32  C   UNL     1      -3.724   2.490  24.232  0.00  0.00    +0.020 A 
ATOM     33  C   UNL     1      -4.392   2.884  24.513  0.00  0.00    +0.038 A 
BRANCH   3   2
ATOM      1  C   UNL     1      -5.564   3.502  25.703  0.00  0.00    +0.252 C 
ATOM      2  O   UNL     1      -4.976   3.921  25.305  0.00  0.00    -0.471 OA
ENDBRANCH   3   2
ENDBRANCH   7   6
ENDBRANCH  11  10
ENDBRANCH  12  11
BRANCH  14  15
ATOM     15  C   UNL     1       0.974   0.218  22.731  0.00  0.00    +0.079 C 
BRANCH  15  16
ATOM     16  C   UNL     1       1.758   0.444  22.853  0.00  0.00    +0.103 A 
ATOM     17  N   UNL     1       2.017   1.042  23.359  0.00  0.00    -0.082 NA
ATOM     18  O   UNL     1       2.840   1.078  23.309  0.00  0.00    -0.357 OA
ATOM     19  C   UNL     1       3.089   0.503  22.773  0.00  0.00    +0.170 A 
ATOM     27  C   UNL     1       2.420   0.110  22.491  0.00  0.00    +0.055 A 
BRANCH  19  20
ATOM     20  C   UNL     1       3.870   0.347  22.557  0.00  0.00    +0.141 C 
BRANCH  20  21
ATOM     21  N   UNL     1       4.412   0.091  23.123  0.00  0.00    -0.262 NA
ATOM     22  C   UNL     1       4.971   0.616  23.426  0.00  0.00    +0.105 C 
ATOM     23  C   UNL     1       5.514   0.360  23.993  0.00  0.00    +0.159 C 
ATOM     24  O   UNL     1       5.496  -0.422  24.256  0.00  0.00    -0.351 OA
ATOM     25  C   UNL     1       4.937  -0.947  23.953  0.00  0.00    +0.159 C 
ATOM     26  C   UNL     1       4.395  -0.691  23.387  0.00  0.00    +0.105 C 
ENDBRANCH  20  21
ENDBRANCH  19  20
ENDBRANCH  15  16
ENDBRANCH  14  15
TORSDOF 8
ENDMDL
