REMARK  Name = 
REMARK  9 active torsions:
REMARK  status: ('A' for Active; 'I' for Inactive)
REMARK    1  A    between atoms: C_2  and  C_3
REMARK    2  A    between atoms: C_3  and  C_4
REMARK    3  A    between atoms: C_9  and  C_10
REMARK    4  A    between atoms: C_10  and  C_11
REMARK    5  A    between atoms: C_14  and  C_15
REMARK    6  A    between atoms: C_15  and  O_16
REMARK    7  A    between atoms: O_16  and  C_17
REMARK    8  A    between atoms: N_24  and  C_25
REMARK    9  A    between atoms: C_25  and  C_26
REMARK                            x       y       z     vdW  Elec       q    Type
REMARK                         _______ _______ _______ _____ _____    ______ ____
ROOT
ATOM      4  C   UNL     1       5.609  -1.712   0.000  0.00  0.00    +0.012 C 
ATOM      5  C   UNL     1       6.324  -1.299   0.000  0.00  0.00    +0.019 C 
ATOM      6  C   UNL     1       7.038  -1.712   0.000  0.00  0.00    +0.089 C 
ATOM      7  N   UNL     1       7.038  -2.537   0.000  0.00  0.00    -0.218 NA
ATOM      8  C   UNL     1       6.324  -2.949   0.000  0.00  0.00    +0.089 C 
ATOM      9  C   UNL     1       5.609  -2.537   0.000  0.00  0.00    +0.024 C 
ENDROOT
BRANCH   4   3
ATOM      3  C   UNL     1       4.895  -1.299   0.000  0.00  0.00    +0.087 C 
BRANCH   3   2
ATOM      1  O   UNL     1       4.180  -0.062   0.000  0.00  0.00    -0.273 OA
ATOM      2  C   UNL     1       4.895  -0.474   0.000  0.00  0.00    +0.242 C 
ATOM     24  N   UNL     1       5.609  -0.062   0.000  0.00  0.00    -0.200 NA
BRANCH  24  25
ATOM     25  C   UNL     1       5.609   0.763   0.000  0.00  0.00    +0.143 C 
BRANCH  25  26
ATOM     26  C   UNL     1       6.324   1.176   0.000  0.00  0.00    +0.019 A 
ATOM     27  C   UNL     1       6.324   2.001   0.000  0.00  0.00    +0.001 A 
ATOM     28  C   UNL     1       7.038   2.413   0.000  0.00  0.00    +0.020 A 
ATOM     29  C   UNL     1       7.753   2.001   0.000  0.00  0.00    +0.099 A 
ATOM     30  N   UNL     1       7.753   1.176   0.000  0.00  0.00    -0.243 NA
ATOM     31  C   UNL     1       7.038   0.763   0.000  0.00  0.00    +0.096 A 
ENDBRANCH  25  26
ENDBRANCH  24  25
ENDBRANCH   3   2
ENDBRANCH   4   3
BRANCH   9  10
ATOM     10  C   UNL     1       4.895  -2.949   0.000  0.00  0.00    +0.051 C 
BRANCH  10  11
ATOM     11  C   UNL     1       4.895  -3.774   0.000  0.00  0.00    +0.100 A 
ATOM     12  N   UNL     1       5.562  -4.259   0.000  0.00  0.00    -0.082 NA
ATOM     13  O   UNL     1       5.307  -5.044   0.000  0.00  0.00    -0.354 OA
ATOM     14  C   UNL     1       4.482  -5.044   0.000  0.00  0.00    +0.198 A 
ATOM     23  C   UNL     1       4.227  -4.259   0.000  0.00  0.00    +0.057 A 
BRANCH  14  15
ATOM     15  C   UNL     1       3.997  -5.711   0.000  0.00  0.00    +0.272 C 
BRANCH  15  16
ATOM     16  O   UNL     1       4.333  -6.465   0.000  0.00  0.00    -0.467 OA
BRANCH  16  17
ATOM     17  C   UNL     1       3.848  -7.132   0.000  0.00  0.00    +0.139 A 
ATOM     18  C   UNL     1       4.183  -7.886   0.000  0.00  0.00    +0.037 A 
ATOM     19  C   UNL     1       3.698  -8.553   0.000  0.00  0.00    +0.003 A 
ATOM     20  C   UNL     1       2.878  -8.467   0.000  0.00  0.00    +0.000 A 
ATOM     21  C   UNL     1       2.542  -7.713   0.000  0.00  0.00    +0.003 A 
ATOM     22  C   UNL     1       3.027  -7.046   0.000  0.00  0.00    +0.037 A 
ENDBRANCH  16  17
ENDBRANCH  15  16
ENDBRANCH  14  15
ENDBRANCH  10  11
ENDBRANCH   9  10
TORSDOF 9
