REMARK  Name = 
REMARK  3 active torsions:
REMARK  status: ('A' for Active; 'I' for Inactive)
REMARK    1  A    between atoms: C_2  and  C_22
REMARK    2  A    between atoms: C_12  and  C_13
REMARK    3  A    between atoms: C_25  and  C_28
REMARK                            x       y       z     vdW  Elec       q    Type
REMARK                         _______ _______ _______ _____ _____    ______ ____
ROOT
ATOM      1  O   UNL     1       0.547  -3.460   0.000  0.00  0.00    -0.270 OA
ATOM      2  C   UNL     1       0.201  -2.664   0.000  0.00  0.00    +0.249 C 
ATOM      3  N   UNL     1       0.813  -2.091   0.000  0.00  0.00    -0.276 N 
ATOM      4  C   UNL     1       1.629  -1.912   0.000  0.00  0.00    +0.096 C 
ATOM      5  C   UNL     1       1.582  -0.925   0.000  0.00  0.00    +0.043 C 
ATOM      6  C   UNL     1       1.713  -0.121   0.000  0.00  0.00    +0.011 C 
ATOM      7  C   UNL     1       1.163  -0.557   0.000  0.00  0.00    +0.058 C 
ATOM      8  C   UNL     1       1.225  -1.510   0.000  0.00  0.00    +0.099 C 
ATOM      9  C   UNL     1       0.244  -0.558   0.000  0.00  0.00    +0.041 A 
ATOM     10  C   UNL     1      -0.397  -0.039   0.000  0.00  0.00    +0.013 A 
ATOM     11  C   UNL     1      -1.167  -0.335   0.000  0.00  0.00    +0.006 A 
ATOM     12  C   UNL     1      -1.213  -1.232   0.000  0.00  0.00    +0.062 A 
ATOM     18  C   UNL     1      -0.655  -1.669   0.000  0.00  0.00    +0.261 A 
ATOM     19  O   UNL     1      -0.525  -2.692   0.000  0.00  0.00    -0.267 OA
ATOM     20  N   UNL     1       0.115  -1.373   0.000  0.00  0.00    -0.299 N 
ATOM     21  C   UNL     1       0.622  -0.936   0.000  0.00  0.00    +0.110 C 
ENDROOT
BRANCH   2  22
ATOM     22  C   UNL     1      -0.614  -2.179   0.000  0.00  0.00    +0.054 A 
ATOM     23  C   UNL     1      -1.301  -2.635   0.000  0.00  0.00    +0.005 A 
ATOM     24  C   UNL     1      -2.040  -2.267   0.000  0.00  0.00    +0.010 A 
ATOM     25  C   UNL     1      -2.091  -1.444   0.000  0.00  0.00    +0.068 A 
ATOM     26  C   UNL     1      -1.403  -0.988   0.000  0.00  0.00    +0.010 A 
ATOM     27  C   UNL     1      -0.664  -1.356   0.000  0.00  0.00    +0.005 A 
BRANCH  25  28
ATOM     28  C   UNL     1      -2.947  -1.177   0.000  0.00  0.00    +0.100 C 
ATOM     29  N   UNL     1      -3.611  -0.576   0.000  0.00  0.00    -0.191 NA
ENDBRANCH  25  28
ENDBRANCH   2  22
BRANCH  12  13
ATOM     13  C   UNL     1      -1.819  -1.693   0.000  0.00  0.00    +0.034 A 
ATOM     14  C   UNL     1      -2.362  -2.160   0.000  0.00  0.00    +0.007 A 
ATOM     15  C   UNL     1      -3.103  -2.286   0.000  0.00  0.00    +0.007 A 
ATOM     16  C   UNL     1      -3.399  -1.515   0.000  0.00  0.00    +0.035 A 
ATOM     17  S   UNL     1      -2.593  -0.831   0.000  0.00  0.00    -0.086 S 
ENDBRANCH  12  13
TORSDOF 3
