REMARK  Name = 
REMARK  8 active torsions:
REMARK  status: ('A' for Active; 'I' for Inactive)
REMARK    1  A    between atoms: N_2  and  C_3
REMARK    2  A    between atoms: N_2  and  C_11
REMARK    3  A    between atoms: C_3  and  C_4
REMARK    4  A    between atoms: C_4  and  C_5
REMARK    5  A    between atoms: C_12  and  C_13
REMARK    6  A    between atoms: C_13  and  N_14
REMARK    7  A    between atoms: N_14  and  C_15
REMARK    8  A    between atoms: C_22  and  C_23
REMARK                            x       y       z     vdW  Elec       q    Type
REMARK                         _______ _______ _______ _____ _____    ______ ____
ROOT
ATOM     11  C   UNL     1       2.751  -0.185   0.000  0.00  0.00    +0.120 C 
ATOM     12  C   UNL     1       3.419  -0.670   0.000  0.00  0.00    +0.150 C 
ATOM     21  O   UNL     1       3.164  -1.454   0.000  0.00  0.00    -0.350 OA
ATOM     22  C   UNL     1       2.339  -1.454   0.000  0.00  0.00    +0.180 C 
ATOM     25  C   UNL     1       2.084  -0.670   0.000  0.00  0.00    +0.198 C 
ATOM     26  O   UNL     1       1.299  -0.415   0.000  0.00  0.00    -0.219 OA
ENDROOT
BRANCH  11   2
ATOM      1  C   UNL     1       3.466   1.053   0.000  0.00  0.00    +0.090 C 
ATOM      2  N   UNL     1       2.751   0.640   0.000  0.00  0.00    -0.268 NA
BRANCH   2   3
ATOM      3  C   UNL     1       2.037   1.053   0.000  0.00  0.00    +0.079 C 
BRANCH   3   4
ATOM      4  C   UNL     1       2.037   1.878   0.000  0.00  0.00    +0.063 C 
BRANCH   4   5
ATOM      5  C   UNL     1       1.322   2.290   0.000  0.00  0.00    +0.060 A 
ATOM      6  N   UNL     1       0.608   1.878   0.000  0.00  0.00    -0.248 NA
ATOM      7  C   UNL     1      -0.107   2.290   0.000  0.00  0.00    +0.098 A 
ATOM      8  C   UNL     1      -0.107   3.115   0.000  0.00  0.00    +0.021 A 
ATOM      9  C   UNL     1       0.608   3.528   0.000  0.00  0.00    +0.003 A 
ATOM     10  C   UNL     1       1.322   3.115   0.000  0.00  0.00    +0.015 A 
ENDBRANCH   4   5
ENDBRANCH   3   4
ENDBRANCH   2   3
ENDBRANCH  11   2
BRANCH  22  23
ATOM     23  C   UNL     1       1.854  -2.122   0.000  0.00  0.00    +0.214 C 
ATOM     24  O   UNL     1       1.033  -2.036   0.000  0.00  0.00    -0.218 OA
ENDBRANCH  22  23
BRANCH  12  13
ATOM     13  C   UNL     1       4.203  -0.415   0.000  0.00  0.00    +0.120 C 
BRANCH  13  14
ATOM     14  N   UNL     1       4.816  -0.967   0.000  0.00  0.00    -0.217 NA
BRANCH  14  15
ATOM     15  C   UNL     1       4.645  -1.774   0.000  0.00  0.00    +0.078 C 
ATOM     16  C   UNL     1       5.258  -2.326   0.000  0.00  0.00    +0.050 C 
ATOM     17  C   UNL     1       5.086  -3.133   0.000  0.00  0.00    +0.144 C 
ATOM     18  O   UNL     1       4.302  -3.388   0.000  0.00  0.00    -0.354 OA
ATOM     19  C   UNL     1       3.689  -2.836   0.000  0.00  0.00    +0.144 C 
ATOM     20  C   UNL     1       3.860  -2.029   0.000  0.00  0.00    +0.050 C 
ENDBRANCH  14  15
ENDBRANCH  13  14
ENDBRANCH  12  13
TORSDOF 8
