MODEL 1
REMARK VINA RESULT:     -11.9      0.000      0.000
REMARK  Name = 
REMARK  2 active torsions:
REMARK  status: ('A' for Active; 'I' for Inactive)
REMARK    1  A    between atoms: N_6  and  C_7
REMARK    2  A    between atoms: C_7  and  C_8
REMARK                            x       y       z     vdW  Elec       q    Type
REMARK                         _______ _______ _______ _____ _____    ______ ____
ROOT
ATOM      1  C   UNL     1      -5.472   3.755  25.688  0.00  0.00    +0.117 C 
ATOM      2  N   UNL     1      -5.066   3.141  25.315  0.00  0.00    -0.261 N 
ATOM      3  C   UNL     1      -5.284   2.346  25.314  0.00  0.00    +0.116 C 
ATOM      4  C   UNL     1      -4.723   1.927  24.876  0.00  0.00    +0.113 C 
ATOM      5  C   UNL     1      -4.655   1.127  24.688  0.00  0.00    +0.094 C 
ATOM      6  N   UNL     1      -4.021   0.864  24.230  0.00  0.00    -0.266 NA
ATOM     18  C   UNL     1      -3.455   1.401  23.961  0.00  0.00    +0.094 C 
ATOM     19  C   UNL     1      -3.525   2.201  24.149  0.00  0.00    +0.112 C 
ATOM     20  N   UNL     1      -4.158   2.464  24.606  0.00  0.00    -0.261 N 
ATOM     21  C   UNL     1      -4.369   3.215  24.878  0.00  0.00    +0.307 C 
ATOM     22  O   UNL     1      -3.957   3.916  24.737  0.00  0.00    -0.252 OA
ENDROOT
BRANCH   6   7
ATOM      7  C   UNL     1      -3.952   0.064  24.042  0.00  0.00    +0.099 C 
BRANCH   7   8
ATOM      8  C   UNL     1      -3.526  -0.442  24.536  0.00  0.00    -0.003 A 
ATOM      9  C   UNL     1      -3.006  -0.130  25.094  0.00  0.00    +0.018 A 
ATOM     10  C   UNL     1      -2.580  -0.636  25.588  0.00  0.00    +0.099 A 
ATOM     11  N   UNL     1      -2.675  -1.453  25.524  0.00  0.00    -0.244 NA
ATOM     12  C   UNL     1      -3.197  -1.764  24.965  0.00  0.00    +0.081 A 
ATOM     13  C   UNL     1      -3.292  -2.581  24.901  0.00  0.00    +0.019 A 
ATOM     14  C   UNL     1      -3.813  -2.893  24.342  0.00  0.00    +0.002 A 
ATOM     15  C   UNL     1      -4.239  -2.387  23.848  0.00  0.00    +0.000 A 
ATOM     16  C   UNL     1      -4.143  -1.570  23.913  0.00  0.00    +0.001 A 
ATOM     17  C   UNL     1      -3.622  -1.259  24.471  0.00  0.00    +0.015 A 
ENDBRANCH   7   8
ENDBRANCH   6   7
TORSDOF 2
ENDMDL
MODEL 2
REMARK VINA RESULT:     -10.8      2.352      3.176
REMARK  Name = 
REMARK  2 active torsions:
REMARK  status: ('A' for Active; 'I' for Inactive)
REMARK    1  A    between atoms: N_6  and  C_7
REMARK    2  A    between atoms: C_7  and  C_8
REMARK                            x       y       z     vdW  Elec       q    Type
REMARK                         _______ _______ _______ _____ _____    ______ ____
ROOT
ATOM      1  C   UNL     1       0.205   2.883  25.760  0.00  0.00    +0.117 C 
ATOM      2  N   UNL     1      -0.141   2.178  25.507  0.00  0.00    -0.261 N 
ATOM      3  C   UNL     1      -0.746   1.770  25.891  0.00  0.00    +0.116 C 
ATOM      4  C   UNL     1      -0.921   1.097  25.447  0.00  0.00    +0.113 C 
ATOM      5  C   UNL     1      -1.470   0.490  25.557  0.00  0.00    +0.094 C 
ATOM      6  N   UNL     1      -1.520  -0.125  25.009  0.00  0.00    -0.266 NA
ATOM     18  C   UNL     1      -1.022  -0.133  24.351  0.00  0.00    +0.094 C 
ATOM     19  C   UNL     1      -0.474   0.475  24.241  0.00  0.00    +0.112 C 
ATOM     20  N   UNL     1      -0.424   1.089  24.789  0.00  0.00    -0.261 N 
ATOM     21  C   UNL     1       0.059   1.757  24.826  0.00  0.00    +0.307 C 
ATOM     22  O   UNL     1       0.639   1.968  24.278  0.00  0.00    -0.252 OA
ENDROOT
BRANCH   6   7
ATOM      7  C   UNL     1      -2.068  -0.731  25.119  0.00  0.00    +0.099 C 
BRANCH   7   8
ATOM      8  C   UNL     1      -2.791  -0.712  24.721  0.00  0.00    -0.003 A 
ATOM      9  C   UNL     1      -3.123   0.010  24.505  0.00  0.00    +0.018 A 
ATOM     10  C   UNL     1      -3.846   0.029  24.107  0.00  0.00    +0.099 A 
ATOM     11  N   UNL     1      -4.235  -0.675  23.925  0.00  0.00    -0.244 NA
ATOM     12  C   UNL     1      -3.902  -1.399  24.142  0.00  0.00    +0.081 A 
ATOM     13  C   UNL     1      -4.291  -2.103  23.960  0.00  0.00    +0.019 A 
ATOM     14  C   UNL     1      -3.958  -2.826  24.177  0.00  0.00    +0.002 A 
ATOM     15  C   UNL     1      -3.236  -2.845  24.575  0.00  0.00    +0.000 A 
ATOM     16  C   UNL     1      -2.847  -2.140  24.756  0.00  0.00    +0.001 A 
ATOM     17  C   UNL     1      -3.179  -1.417  24.540  0.00  0.00    +0.015 A 
ENDBRANCH   7   8
ENDBRANCH   6   7
TORSDOF 2
ENDMDL
MODEL 3
REMARK VINA RESULT:     -10.5      2.182      4.272
REMARK  Name = 
REMARK  2 active torsions:
REMARK  status: ('A' for Active; 'I' for Inactive)
REMARK    1  A    between atoms: N_6  and  C_7
REMARK    2  A    between atoms: C_7  and  C_8
REMARK                            x       y       z     vdW  Elec       q    Type
REMARK                         _______ _______ _______ _____ _____    ______ ____
ROOT
ATOM      1  C   UNL     1      -0.255  -0.834  24.640  0.00  0.00    +0.117 C 
ATOM      2  N   UNL     1      -0.780  -0.232  24.434  0.00  0.00    -0.261 N 
ATOM      3  C   UNL     1      -1.576  -0.188  24.647  0.00  0.00    +0.116 C 
ATOM      4  C   UNL     1      -1.889   0.503  24.322  0.00  0.00    +0.113 C 
ATOM      5  C   UNL     1      -2.645   0.832  24.351  0.00  0.00    +0.094 C 
ATOM      6  N   UNL     1      -2.799   1.545  23.964  0.00  0.00    -0.266 NA
ATOM     18  C   UNL     1      -2.197   1.928  23.549  0.00  0.00    +0.094 C 
ATOM     19  C   UNL     1      -1.442   1.597  23.522  0.00  0.00    +0.112 C 
ATOM     20  N   UNL     1      -1.288   0.886  23.908  0.00  0.00    -0.261 N 
ATOM     21  C   UNL     1      -0.602   0.431  23.976  0.00  0.00    +0.307 C 
ATOM     22  O   UNL     1       0.133   0.610  23.645  0.00  0.00    -0.252 OA
ENDROOT
BRANCH   6   7
ATOM      7  C   UNL     1      -3.555   1.874  23.993  0.00  0.00    +0.099 C 
BRANCH   7   8
ATOM      8  C   UNL     1      -3.740   2.435  24.569  0.00  0.00    -0.003 A 
ATOM      9  C   UNL     1      -3.172   2.984  24.807  0.00  0.00    +0.018 A 
ATOM     10  C   UNL     1      -3.356   3.545  25.383  0.00  0.00    +0.099 A 
ATOM     11  N   UNL     1      -4.109   3.558  25.721  0.00  0.00    -0.244 NA
ATOM     12  C   UNL     1      -4.677   3.009  25.482  0.00  0.00    +0.081 A 
ATOM     13  C   UNL     1      -5.429   3.021  25.820  0.00  0.00    +0.019 A 
ATOM     14  C   UNL     1      -5.998   2.472  25.581  0.00  0.00    +0.002 A 
ATOM     15  C   UNL     1      -5.813   1.911  25.005  0.00  0.00    +0.000 A 
ATOM     16  C   UNL     1      -5.060   1.899  24.668  0.00  0.00    +0.001 A 
ATOM     17  C   UNL     1      -4.493   2.447  24.906  0.00  0.00    +0.015 A 
ENDBRANCH   7   8
ENDBRANCH   6   7
TORSDOF 2
ENDMDL
MODEL 4
REMARK VINA RESULT:     -10.4      1.594      4.553
REMARK  Name = 
REMARK  2 active torsions:
REMARK  status: ('A' for Active; 'I' for Inactive)
REMARK    1  A    between atoms: N_6  and  C_7
REMARK    2  A    between atoms: C_7  and  C_8
REMARK                            x       y       z     vdW  Elec       q    Type
REMARK                         _______ _______ _______ _____ _____    ______ ____
ROOT
ATOM      1  C   UNL     1      -3.999  -3.090  23.971  0.00  0.00    +0.117 C 
ATOM      2  N   UNL     1      -3.911  -2.303  24.204  0.00  0.00    -0.261 N 
ATOM      3  C   UNL     1      -4.114  -1.640  23.758  0.00  0.00    +0.116 C 
ATOM      4  C   UNL     1      -3.932  -0.968  24.202  0.00  0.00    +0.113 C 
ATOM      5  C   UNL     1      -4.014  -0.163  24.043  0.00  0.00    +0.094 C 
ATOM      6  N   UNL     1      -3.779   0.394  24.606  0.00  0.00    -0.266 NA
ATOM     18  C   UNL     1      -3.463   0.145  25.326  0.00  0.00    +0.094 C 
ATOM     19  C   UNL     1      -3.382  -0.661  25.484  0.00  0.00    +0.112 C 
ATOM     20  N   UNL     1      -3.617  -1.217  24.923  0.00  0.00    -0.261 N 
ATOM     21  C   UNL     1      -3.603  -2.042  24.924  0.00  0.00    +0.307 C 
ATOM     22  O   UNL     1      -3.330  -2.522  25.537  0.00  0.00    -0.252 OA
ENDROOT
BRANCH   6   7
ATOM      7  C   UNL     1      -3.861   1.199  24.447  0.00  0.00    +0.099 C 
BRANCH   7   8
ATOM      8  C   UNL     1      -4.466   1.632  24.804  0.00  0.00    -0.003 A 
ATOM      9  C   UNL     1      -5.164   1.256  25.028  0.00  0.00    +0.018 A 
ATOM     10  C   UNL     1      -5.769   1.688  25.385  0.00  0.00    +0.099 A 
ATOM     11  N   UNL     1      -5.676   2.497  25.518  0.00  0.00    -0.244 NA
ATOM     12  C   UNL     1      -4.976   2.873  25.294  0.00  0.00    +0.081 A 
ATOM     13  C   UNL     1      -4.882   3.682  25.427  0.00  0.00    +0.019 A 
ATOM     14  C   UNL     1      -4.183   4.058  25.202  0.00  0.00    +0.002 A 
ATOM     15  C   UNL     1      -3.578   3.626  24.845  0.00  0.00    +0.000 A 
ATOM     16  C   UNL     1      -3.672   2.817  24.712  0.00  0.00    +0.001 A 
ATOM     17  C   UNL     1      -4.371   2.441  24.936  0.00  0.00    +0.015 A 
ENDBRANCH   7   8
ENDBRANCH   6   7
TORSDOF 2
ENDMDL
MODEL 5
REMARK VINA RESULT:     -10.4      2.000      4.669
REMARK  Name = 
REMARK  2 active torsions:
REMARK  status: ('A' for Active; 'I' for Inactive)
REMARK    1  A    between atoms: N_6  and  C_7
REMARK    2  A    between atoms: C_7  and  C_8
REMARK                            x       y       z     vdW  Elec       q    Type
REMARK                         _______ _______ _______ _____ _____    ______ ____
ROOT
ATOM      1  C   UNL     1      -3.488  -2.048  25.316  0.00  0.00    +0.117 C 
ATOM      2  N   UNL     1      -3.348  -1.288  25.028  0.00  0.00    -0.261 N 
ATOM      3  C   UNL     1      -2.818  -0.740  25.342  0.00  0.00    +0.116 C 
ATOM      4  C   UNL     1      -2.857  -0.055  24.882  0.00  0.00    +0.113 C 
ATOM      5  C   UNL     1      -2.458   0.666  24.932  0.00  0.00    +0.094 C 
ATOM      6  N   UNL     1      -2.615   1.262  24.383  0.00  0.00    -0.266 NA
ATOM     18  C   UNL     1      -3.170   1.137  23.785  0.00  0.00    +0.094 C 
ATOM     19  C   UNL     1      -3.568   0.416  23.737  0.00  0.00    +0.112 C 
ATOM     20  N   UNL     1      -3.411  -0.180  24.285  0.00  0.00    -0.261 N 
ATOM     21  C   UNL     1      -3.716  -0.942  24.374  0.00  0.00    +0.307 C 
ATOM     22  O   UNL     1      -4.286  -1.296  23.895  0.00  0.00    -0.252 OA
ENDROOT
BRANCH   6   7
ATOM      7  C   UNL     1      -2.217   1.983  24.432  0.00  0.00    +0.099 C 
BRANCH   7   8
ATOM      8  C   UNL     1      -2.575   2.628  24.801  0.00  0.00    -0.003 A 
ATOM      9  C   UNL     1      -3.368   2.589  25.022  0.00  0.00    +0.018 A 
ATOM     10  C   UNL     1      -3.726   3.234  25.390  0.00  0.00    +0.099 A 
ATOM     11  N   UNL     1      -3.290   3.919  25.538  0.00  0.00    -0.244 NA
ATOM     12  C   UNL     1      -2.496   3.958  25.317  0.00  0.00    +0.081 A 
ATOM     13  C   UNL     1      -2.061   4.643  25.464  0.00  0.00    +0.019 A 
ATOM     14  C   UNL     1      -1.266   4.682  25.243  0.00  0.00    +0.002 A 
ATOM     15  C   UNL     1      -0.908   4.037  24.874  0.00  0.00    +0.000 A 
ATOM     16  C   UNL     1      -1.345   3.352  24.727  0.00  0.00    +0.001 A 
ATOM     17  C   UNL     1      -2.138   3.313  24.948  0.00  0.00    +0.015 A 
ENDBRANCH   7   8
ENDBRANCH   6   7
TORSDOF 2
ENDMDL
MODEL 6
REMARK VINA RESULT:      -8.5     18.059     19.038
REMARK  Name = 
REMARK  2 active torsions:
REMARK  status: ('A' for Active; 'I' for Inactive)
REMARK    1  A    between atoms: N_6  and  C_7
REMARK    2  A    between atoms: C_7  and  C_8
REMARK                            x       y       z     vdW  Elec       q    Type
REMARK                         _______ _______ _______ _____ _____    ______ ____
ROOT
ATOM      1  C   UNL     1      10.508   9.092  22.706  0.00  0.00    +0.117 C 
ATOM      2  N   UNL     1      11.024   8.552  22.357  0.00  0.00    -0.261 N 
ATOM      3  C   UNL     1      11.828   8.669  22.217  0.00  0.00    +0.116 C 
ATOM      4  C   UNL     1      12.127   7.988  21.859  0.00  0.00    +0.113 C 
ATOM      5  C   UNL     1      12.884   7.790  21.597  0.00  0.00    +0.094 C 
ATOM      6  N   UNL     1      13.021   7.052  21.254  0.00  0.00    -0.266 NA
ATOM     18  C   UNL     1      12.401   6.513  21.173  0.00  0.00    +0.094 C 
ATOM     19  C   UNL     1      11.645   6.712  21.436  0.00  0.00    +0.112 C 
ATOM     20  N   UNL     1      11.508   7.449  21.778  0.00  0.00    -0.261 N 
ATOM     21  C   UNL     1      10.825   7.797  22.086  0.00  0.00    +0.307 C 
ATOM     22  O   UNL     1      10.076   7.452  22.117  0.00  0.00    -0.252 OA
ENDROOT
BRANCH   6   7
ATOM      7  C   UNL     1      13.777   6.853  20.992  0.00  0.00    +0.099 C 
BRANCH   7   8
ATOM      8  C   UNL     1      13.989   6.982  20.205  0.00  0.00    -0.003 A 
ATOM      9  C   UNL     1      13.434   7.276  19.672  0.00  0.00    +0.018 A 
ATOM     10  C   UNL     1      13.645   7.405  18.885  0.00  0.00    +0.099 A 
ATOM     11  N   UNL     1      14.413   7.240  18.632  0.00  0.00    -0.244 NA
ATOM     12  C   UNL     1      14.969   6.945  19.166  0.00  0.00    +0.081 A 
ATOM     13  C   UNL     1      15.736   6.780  18.912  0.00  0.00    +0.019 A 
ATOM     14  C   UNL     1      16.292   6.485  19.447  0.00  0.00    +0.002 A 
ATOM     15  C   UNL     1      16.080   6.356  20.234  0.00  0.00    +0.000 A 
ATOM     16  C   UNL     1      15.313   6.522  20.486  0.00  0.00    +0.001 A 
ATOM     17  C   UNL     1      14.757   6.816  19.953  0.00  0.00    +0.015 A 
ENDBRANCH   7   8
ENDBRANCH   6   7
TORSDOF 2
ENDMDL
MODEL 7
REMARK VINA RESULT:      -8.4     19.033     19.998
REMARK  Name = 
REMARK  2 active torsions:
REMARK  status: ('A' for Active; 'I' for Inactive)
REMARK    1  A    between atoms: N_6  and  C_7
REMARK    2  A    between atoms: C_7  and  C_8
REMARK                            x       y       z     vdW  Elec       q    Type
REMARK                         _______ _______ _______ _____ _____    ______ ____
ROOT
ATOM      1  C   UNL     1      10.773   6.897  21.623  0.00  0.00    +0.117 C 
ATOM      2  N   UNL     1      11.403   7.035  21.109  0.00  0.00    -0.261 N 
ATOM      3  C   UNL     1      12.137   6.658  21.130  0.00  0.00    +0.116 C 
ATOM      4  C   UNL     1      12.598   6.964  20.518  0.00  0.00    +0.113 C 
ATOM      5  C   UNL     1      13.369   6.800  20.273  0.00  0.00    +0.094 C 
ATOM      6  N   UNL     1      13.690   7.202  19.627  0.00  0.00    -0.266 NA
ATOM     18  C   UNL     1      13.241   7.767  19.228  0.00  0.00    +0.094 C 
ATOM     19  C   UNL     1      12.471   7.930  19.474  0.00  0.00    +0.112 C 
ATOM     20  N   UNL     1      12.149   7.529  20.118  0.00  0.00    -0.261 N 
ATOM     21  C   UNL     1      11.411   7.573  20.484  0.00  0.00    +0.307 C 
ATOM     22  O   UNL     1      10.789   8.069  20.262  0.00  0.00    -0.252 OA
ENDROOT
BRANCH   6   7
ATOM      7  C   UNL     1      14.461   7.038  19.382  0.00  0.00    +0.099 C 
BRANCH   7   8
ATOM      8  C   UNL     1      15.098   7.425  19.736  0.00  0.00    -0.003 A 
ATOM      9  C   UNL     1      14.984   8.154  20.103  0.00  0.00    +0.018 A 
ATOM     10  C   UNL     1      15.622   8.541  20.457  0.00  0.00    +0.099 A 
ATOM     11  N   UNL     1      16.372   8.199  20.443  0.00  0.00    -0.244 NA
ATOM     12  C   UNL     1      16.485   7.469  20.075  0.00  0.00    +0.081 A 
ATOM     13  C   UNL     1      17.235   7.126  20.061  0.00  0.00    +0.019 A 
ATOM     14  C   UNL     1      17.349   6.396  19.693  0.00  0.00    +0.002 A 
ATOM     15  C   UNL     1      16.712   6.009  19.339  0.00  0.00    +0.000 A 
ATOM     16  C   UNL     1      15.961   6.352  19.354  0.00  0.00    +0.001 A 
ATOM     17  C   UNL     1      15.848   7.082  19.721  0.00  0.00    +0.015 A 
ENDBRANCH   7   8
ENDBRANCH   6   7
TORSDOF 2
ENDMDL
MODEL 8
REMARK VINA RESULT:      -8.1     18.001     19.159
REMARK  Name = 
REMARK  2 active torsions:
REMARK  status: ('A' for Active; 'I' for Inactive)
REMARK    1  A    between atoms: N_6  and  C_7
REMARK    2  A    between atoms: C_7  and  C_8
REMARK                            x       y       z     vdW  Elec       q    Type
REMARK                         _______ _______ _______ _____ _____    ______ ____
ROOT
ATOM      1  C   UNL     1      16.729   6.404  20.853  0.00  0.00    +0.117 C 
ATOM      2  N   UNL     1      15.958   6.631  20.666  0.00  0.00    -0.261 N 
ATOM      3  C   UNL     1      15.437   7.034  21.162  0.00  0.00    +0.116 C 
ATOM      4  C   UNL     1      14.729   7.146  20.753  0.00  0.00    +0.113 C 
ATOM      5  C   UNL     1      14.020   7.509  20.967  0.00  0.00    +0.094 C 
ATOM      6  N   UNL     1      13.393   7.537  20.430  0.00  0.00    -0.266 NA
ATOM     18  C   UNL     1      13.477   7.203  19.680  0.00  0.00    +0.094 C 
ATOM     19  C   UNL     1      14.187   6.840  19.468  0.00  0.00    +0.112 C 
ATOM     20  N   UNL     1      14.813   6.811  20.004  0.00  0.00    -0.261 N 
ATOM     21  C   UNL     1      15.572   6.493  19.949  0.00  0.00    +0.307 C 
ATOM     22  O   UNL     1      15.890   6.105  19.294  0.00  0.00    -0.252 OA
ENDROOT
BRANCH   6   7
ATOM      7  C   UNL     1      12.684   7.900  20.644  0.00  0.00    +0.099 C 
BRANCH   7   8
ATOM      8  C   UNL     1      12.096   7.465  21.025  0.00  0.00    -0.003 A 
ATOM      9  C   UNL     1      12.075   6.645  20.948  0.00  0.00    +0.018 A 
ATOM     10  C   UNL     1      11.487   6.210  21.330  0.00  0.00    +0.099 A 
ATOM     11  N   UNL     1      10.920   6.595  21.788  0.00  0.00    -0.244 NA
ATOM     12  C   UNL     1      10.941   7.417  21.864  0.00  0.00    +0.081 A 
ATOM     13  C   UNL     1      10.373   7.803  22.322  0.00  0.00    +0.019 A 
ATOM     14  C   UNL     1      10.395   8.625  22.399  0.00  0.00    +0.002 A 
ATOM     15  C   UNL     1      10.983   9.060  22.018  0.00  0.00    +0.000 A 
ATOM     16  C   UNL     1      11.550   8.673  21.560  0.00  0.00    +0.001 A 
ATOM     17  C   UNL     1      11.529   7.852  21.483  0.00  0.00    +0.015 A 
ENDBRANCH   7   8
ENDBRANCH   6   7
TORSDOF 2
ENDMDL
MODEL 9
REMARK VINA RESULT:      -7.9     17.723     18.997
REMARK  Name = 
REMARK  2 active torsions:
REMARK  status: ('A' for Active; 'I' for Inactive)
REMARK    1  A    between atoms: N_6  and  C_7
REMARK    2  A    between atoms: C_7  and  C_8
REMARK                            x       y       z     vdW  Elec       q    Type
REMARK                         _______ _______ _______ _____ _____    ______ ____
ROOT
ATOM      1  C   UNL     1      11.243   5.729  21.677  0.00  0.00    +0.117 C 
ATOM      2  N   UNL     1      11.369   6.406  21.224  0.00  0.00    -0.261 N 
ATOM      3  C   UNL     1      11.959   6.507  20.655  0.00  0.00    +0.116 C 
ATOM      4  C   UNL     1      11.882   7.265  20.339  0.00  0.00    +0.113 C 
ATOM      5  C   UNL     1      12.310   7.667  19.759  0.00  0.00    +0.094 C 
ATOM      6  N   UNL     1      12.101   8.438  19.553  0.00  0.00    -0.266 NA
ATOM     18  C   UNL     1      11.464   8.807  19.926  0.00  0.00    +0.094 C 
ATOM     19  C   UNL     1      11.036   8.404  20.505  0.00  0.00    +0.112 C 
ATOM     20  N   UNL     1      11.245   7.634  20.712  0.00  0.00    -0.261 N 
ATOM     21  C   UNL     1      10.928   7.103  21.259  0.00  0.00    +0.307 C 
ATOM     22  O   UNL     1      10.283   7.244  21.754  0.00  0.00    -0.252 OA
ENDROOT
BRANCH   6   7
ATOM      7  C   UNL     1      12.529   8.840  18.973  0.00  0.00    +0.099 C 
BRANCH   7   8
ATOM      8  C   UNL     1      12.297   8.796  18.183  0.00  0.00    -0.003 A 
ATOM      9  C   UNL     1      11.505   8.667  17.993  0.00  0.00    +0.018 A 
ATOM     10  C   UNL     1      11.272   8.624  17.203  0.00  0.00    +0.099 A 
ATOM     11  N   UNL     1      11.832   8.708  16.602  0.00  0.00    -0.244 NA
ATOM     12  C   UNL     1      12.625   8.837  16.793  0.00  0.00    +0.081 A 
ATOM     13  C   UNL     1      13.184   8.921  16.193  0.00  0.00    +0.019 A 
ATOM     14  C   UNL     1      13.977   9.050  16.383  0.00  0.00    +0.002 A 
ATOM     15  C   UNL     1      14.209   9.094  17.174  0.00  0.00    +0.000 A 
ATOM     16  C   UNL     1      13.649   9.009  17.773  0.00  0.00    +0.001 A 
ATOM     17  C   UNL     1      12.857   8.881  17.583  0.00  0.00    +0.015 A 
ENDBRANCH   7   8
ENDBRANCH   6   7
TORSDOF 2
ENDMDL
