REMARK  Name = 
REMARK  6 active torsions:
REMARK  status: ('A' for Active; 'I' for Inactive)
REMARK    1  A    between atoms: O_2  and  C_3
REMARK    2  A    between atoms: C_3  and  C_5
REMARK    3  A    between atoms: N_8  and  C_11
REMARK    4  A    between atoms: C_17  and  N_18
REMARK    5  A    between atoms: N_21  and  C_22
REMARK    6  A    between atoms: C_22  and  C_23
REMARK                            x       y       z     vdW  Elec       q    Type
REMARK                         _______ _______ _______ _____ _____    ______ ____
ROOT
ATOM     11  C   UNL     1       1.611  -0.930   0.000  0.00  0.00    +0.147 C 
ATOM     12  C   UNL     1       0.640  -0.930   0.000  0.00  0.00    +0.253 C 
ATOM     13  O   UNL     1       0.120  -1.643   0.000  0.00  0.00    -0.327 OA
ATOM     14  C   UNL     1       0.740  -1.266   0.000  0.00  0.00    +0.176 C 
ATOM     15  C   UNL     1       1.060  -0.557   0.000  0.00  0.00    +0.170 C 
ATOM     16  O   UNL     1       0.500  -0.117   0.000  0.00  0.00    -0.327 OA
ATOM     17  C   UNL     1       1.989  -0.542   0.000  0.00  0.00    +0.158 C 
ATOM     25  C   UNL     1       2.127  -1.359   0.000  0.00  0.00    +0.194 C 
ATOM     26  O   UNL     1       2.539  -2.074   0.000  0.00  0.00    -0.220 OA
ENDROOT
BRANCH  11   8
ATOM      5  C   UNL     1       0.771  -3.258   0.000  0.00  0.00    +0.102 C 
ATOM      6  C   UNL     1       0.239  -2.628   0.000  0.00  0.00    +0.028 C 
ATOM      7  C   UNL     1       0.519  -1.852   0.000  0.00  0.00    +0.073 C 
ATOM      8  N   UNL     1       1.331  -1.706   0.000  0.00  0.00    -0.268 NA
ATOM      9  C   UNL     1       1.863  -2.337   0.000  0.00  0.00    +0.073 C 
ATOM     10  C   UNL     1       1.583  -3.113   0.000  0.00  0.00    +0.028 C 
BRANCH   5   3
ATOM      3  C   UNL     1       0.490  -4.034   0.000  0.00  0.00    +0.317 C 
ATOM      4  O   UNL     1      -0.322  -4.180   0.000  0.00  0.00    -0.250 OA
BRANCH   3   2
ATOM      1  C   UNL     1       0.742  -5.441   0.000  0.00  0.00    +0.256 C 
ATOM      2  O   UNL     1       1.022  -4.665   0.000  0.00  0.00    -0.444 OA
ENDBRANCH   3   2
ENDBRANCH   5   3
ENDBRANCH  11   8
BRANCH  17  18
ATOM     18  N   UNL     1       2.517   0.093   0.000  0.00  0.00    -0.184 NA
ATOM     19  C   UNL     1       2.231   0.867   0.000  0.00  0.00    +0.340 C 
ATOM     20  O   UNL     1       1.417   1.006   0.000  0.00  0.00    -0.249 OA
ATOM     21  N   UNL     1       2.758   1.501   0.000  0.00  0.00    -0.182 NA
BRANCH  21  22
ATOM     22  C   UNL     1       2.472   2.275   0.000  0.00  0.00    +0.143 C 
BRANCH  22  23
ATOM     23  C   UNL     1       2.999   2.910   0.000  0.00  0.00    -0.003 C 
ATOM     24  C   UNL     1       2.713   3.683   0.000  0.00  0.00    -0.003 C 
ENDBRANCH  22  23
ENDBRANCH  21  22
ENDBRANCH  17  18
TORSDOF 6
