MODEL 1
REMARK VINA RESULT:      -8.3      0.000      0.000
REMARK  Name = 
REMARK  4 active torsions:
REMARK  status: ('A' for Active; 'I' for Inactive)
REMARK    1  A    between atoms: O_2  and  C_3
REMARK    2  A    between atoms: C_3  and  C_5
REMARK    3  A    between atoms: N_10  and  S_11
REMARK    4  A    between atoms: N_15  and  C_18
REMARK                            x       y       z     vdW  Elec       q    Type
REMARK                         _______ _______ _______ _____ _____    ______ ____
ROOT
ATOM      5  C   UNL     1      -3.940   0.273  24.738  0.00  0.00    +0.184 C 
ATOM      6  C   UNL     1      -4.706   0.548  24.870  0.00  0.00    +0.076 C 
ATOM      7  C   UNL     1      -4.845   1.357  24.955  0.00  0.00    +0.076 A 
ATOM      8  C   UNL     1      -4.218   1.891  24.908  0.00  0.00    +0.070 A 
ATOM      9  C   UNL     1      -3.451   1.616  24.776  0.00  0.00    +0.141 C 
ATOM     10  N   UNL     1      -3.312   0.807  24.691  0.00  0.00    -0.144 NA
ATOM     15  N   UNL     1      -4.521   2.650  25.013  0.00  0.00    -0.313 N 
ATOM     16  C   UNL     1      -5.336   2.587  25.125  0.00  0.00    +0.178 A 
ATOM     17  N   UNL     1      -5.535   1.788  25.089  0.00  0.00    -0.229 NA
ENDROOT
BRANCH  10  11
ATOM     11  S   UNL     1      -2.546   0.533  24.559  0.00  0.00    +0.046 S 
ATOM     12  C   UNL     1      -1.779   0.258  24.425  0.00  0.00    +0.196 C 
ATOM     13  O   UNL     1      -2.652   0.628  23.745  0.00  0.00    -0.157 OA
ATOM     14  O   UNL     1      -2.439   0.437  25.370  0.00  0.00    -0.157 OA
ENDBRANCH  10  11
BRANCH  15  18
ATOM     18  C   UNL     1      -4.086   3.352  25.007  0.00  0.00    +0.087 C 
ATOM     19  C   UNL     1      -3.794   3.662  25.714  0.00  0.00    +0.025 C 
ATOM     20  C   UNL     1      -3.942   3.742  24.295  0.00  0.00    +0.025 C 
ENDBRANCH  15  18
BRANCH   5   3
ATOM      3  C   UNL     1      -3.801  -0.535  24.652  0.00  0.00    +0.334 C 
ATOM      4  O   UNL     1      -3.470  -0.964  25.274  0.00  0.00    -0.249 OA
BRANCH   3   2
ATOM      1  C   UNL     1      -4.231  -1.703  23.952  0.00  0.00    +0.256 C 
ATOM      2  O   UNL     1      -3.992  -0.915  23.945  0.00  0.00    -0.443 OA
ENDBRANCH   3   2
ENDBRANCH   5   3
TORSDOF 4
ENDMDL
MODEL 2
REMARK VINA RESULT:      -8.0      1.670      3.674
REMARK  Name = 
REMARK  4 active torsions:
REMARK  status: ('A' for Active; 'I' for Inactive)
REMARK    1  A    between atoms: O_2  and  C_3
REMARK    2  A    between atoms: C_3  and  C_5
REMARK    3  A    between atoms: N_10  and  S_11
REMARK    4  A    between atoms: N_15  and  C_18
REMARK                            x       y       z     vdW  Elec       q    Type
REMARK                         _______ _______ _______ _____ _____    ______ ____
ROOT
ATOM      5  C   UNL     1      -3.495   2.141  24.631  0.00  0.00    +0.184 C 
ATOM      6  C   UNL     1      -2.774   1.774  24.470  0.00  0.00    +0.076 C 
ATOM      7  C   UNL     1      -2.716   0.951  24.490  0.00  0.00    +0.076 A 
ATOM      8  C   UNL     1      -3.379   0.495  24.672  0.00  0.00    +0.070 A 
ATOM      9  C   UNL     1      -4.101   0.862  24.833  0.00  0.00    +0.141 C 
ATOM     10  N   UNL     1      -4.158   1.685  24.812  0.00  0.00    -0.144 NA
ATOM     15  N   UNL     1      -3.157  -0.298  24.650  0.00  0.00    -0.313 N 
ATOM     16  C   UNL     1      -2.356  -0.333  24.456  0.00  0.00    +0.178 A 
ATOM     17  N   UNL     1      -2.084   0.439  24.357  0.00  0.00    -0.229 NA
ENDROOT
BRANCH  10  11
ATOM     11  S   UNL     1      -4.880   2.051  24.973  0.00  0.00    +0.046 S 
ATOM     12  C   UNL     1      -5.601   2.417  25.136  0.00  0.00    +0.196 C 
ATOM     13  O   UNL     1      -4.696   2.057  25.778  0.00  0.00    -0.157 OA
ATOM     14  O   UNL     1      -5.063   2.045  24.170  0.00  0.00    -0.157 OA
ENDBRANCH  10  11
BRANCH  15  18
ATOM     18  C   UNL     1      -3.649  -0.944  24.798  0.00  0.00    +0.087 C 
ATOM     19  C   UNL     1      -3.692  -1.266  25.556  0.00  0.00    +0.025 C 
ATOM     20  C   UNL     1      -4.098  -1.269  24.187  0.00  0.00    +0.025 C 
ENDBRANCH  15  18
BRANCH   5   3
ATOM      3  C   UNL     1      -3.553   2.963  24.611  0.00  0.00    +0.334 C 
ATOM      4  O   UNL     1      -3.924   3.334  23.975  0.00  0.00    -0.249 OA
BRANCH   3   2
ATOM      1  C   UNL     1      -2.873   4.135  25.065  0.00  0.00    +0.256 C 
ATOM      2  O   UNL     1      -3.240   3.415  25.226  0.00  0.00    -0.443 OA
ENDBRANCH   3   2
ENDBRANCH   5   3
TORSDOF 4
ENDMDL
MODEL 3
REMARK VINA RESULT:      -7.8      2.017      2.905
REMARK  Name = 
REMARK  4 active torsions:
REMARK  status: ('A' for Active; 'I' for Inactive)
REMARK    1  A    between atoms: O_2  and  C_3
REMARK    2  A    between atoms: C_3  and  C_5
REMARK    3  A    between atoms: N_10  and  S_11
REMARK    4  A    between atoms: N_15  and  C_18
REMARK                            x       y       z     vdW  Elec       q    Type
REMARK                         _______ _______ _______ _____ _____    ______ ____
ROOT
ATOM      5  C   UNL     1      -3.900   2.545  24.966  0.00  0.00    +0.184 C 
ATOM      6  C   UNL     1      -3.779   3.268  25.342  0.00  0.00    +0.076 C 
ATOM      7  C   UNL     1      -3.013   3.555  25.451  0.00  0.00    +0.076 A 
ATOM      8  C   UNL     1      -2.367   3.117  25.182  0.00  0.00    +0.070 A 
ATOM      9  C   UNL     1      -2.488   2.393  24.805  0.00  0.00    +0.141 C 
ATOM     10  N   UNL     1      -3.254   2.107  24.698  0.00  0.00    -0.144 NA
ATOM     15  N   UNL     1      -1.681   3.536  25.365  0.00  0.00    -0.313 N 
ATOM     16  C   UNL     1      -1.902   4.233  25.747  0.00  0.00    +0.178 A 
ATOM     17  N   UNL     1      -2.725   4.244  25.799  0.00  0.00    -0.229 NA
ENDROOT
BRANCH  10  11
ATOM     11  S   UNL     1      -3.374   1.383  24.321  0.00  0.00    +0.046 S 
ATOM     12  C   UNL     1      -3.494   0.658  23.946  0.00  0.00    +0.196 C 
ATOM     13  O   UNL     1      -3.314   0.996  25.048  0.00  0.00    -0.157 OA
ATOM     14  O   UNL     1      -3.435   1.769  23.596  0.00  0.00    -0.157 OA
ENDBRANCH  10  11
BRANCH  15  18
ATOM     18  C   UNL     1      -0.909   3.300  25.196  0.00  0.00    +0.087 C 
ATOM     19  C   UNL     1      -0.482   2.857  25.746  0.00  0.00    +0.025 C 
ATOM     20  C   UNL     1      -0.562   3.506  24.476  0.00  0.00    +0.025 C 
ENDBRANCH  15  18
BRANCH   5   3
ATOM      3  C   UNL     1      -4.665   2.259  24.858  0.00  0.00    +0.334 C 
ATOM      4  O   UNL     1      -5.018   2.297  24.114  0.00  0.00    -0.249 OA
BRANCH   3   2
ATOM      1  C   UNL     1      -5.896   2.030  25.548  0.00  0.00    +0.256 C 
ATOM      2  O   UNL     1      -5.079   1.934  25.494  0.00  0.00    -0.443 OA
ENDBRANCH   3   2
ENDBRANCH   5   3
TORSDOF 4
ENDMDL
MODEL 4
REMARK VINA RESULT:      -7.8      1.571      3.168
REMARK  Name = 
REMARK  4 active torsions:
REMARK  status: ('A' for Active; 'I' for Inactive)
REMARK    1  A    between atoms: O_2  and  C_3
REMARK    2  A    between atoms: C_3  and  C_5
REMARK    3  A    between atoms: N_10  and  S_11
REMARK    4  A    between atoms: N_15  and  C_18
REMARK                            x       y       z     vdW  Elec       q    Type
REMARK                         _______ _______ _______ _____ _____    ______ ____
ROOT
ATOM      5  C   UNL     1      -2.313   1.983  24.732  0.00  0.00    +0.184 C 
ATOM      6  C   UNL     1      -3.127   2.089  24.807  0.00  0.00    +0.076 C 
ATOM      7  C   UNL     1      -3.629   1.434  24.832  0.00  0.00    +0.076 A 
ATOM      8  C   UNL     1      -3.315   0.672  24.782  0.00  0.00    +0.070 A 
ATOM      9  C   UNL     1      -2.499   0.566  24.707  0.00  0.00    +0.141 C 
ATOM     10  N   UNL     1      -1.999   1.221  24.682  0.00  0.00    -0.144 NA
ATOM     15  N   UNL     1      -3.940   0.136  24.821  0.00  0.00    -0.313 N 
ATOM     16  C   UNL     1      -4.640   0.565  24.896  0.00  0.00    +0.178 A 
ATOM     17  N   UNL     1      -4.447   1.367  24.902  0.00  0.00    -0.229 NA
ENDROOT
BRANCH  10  11
ATOM     11  S   UNL     1      -1.185   1.114  24.607  0.00  0.00    +0.046 S 
ATOM     12  C   UNL     1      -0.370   1.007  24.530  0.00  0.00    +0.196 C 
ATOM     13  O   UNL     1      -1.257   1.147  23.785  0.00  0.00    -0.157 OA
ATOM     14  O   UNL     1      -1.112   1.082  25.427  0.00  0.00    -0.157 OA
ENDBRANCH  10  11
BRANCH  15  18
ATOM     18  C   UNL     1      -3.876  -0.686  24.791  0.00  0.00    +0.087 C 
ATOM     19  C   UNL     1      -3.708  -1.113  25.477  0.00  0.00    +0.025 C 
ATOM     20  C   UNL     1      -3.980  -1.082  24.075  0.00  0.00    +0.025 C 
ENDBRANCH  15  18
BRANCH   5   3
ATOM      3  C   UNL     1      -1.812   2.637  24.707  0.00  0.00    +0.334 C 
ATOM      4  O   UNL     1      -1.467   2.865  23.994  0.00  0.00    -0.249 OA
BRANCH   3   2
ATOM      1  C   UNL     1      -1.539   3.879  25.358  0.00  0.00    +0.256 C 
ATOM      2  O   UNL     1      -1.656   3.064  25.396  0.00  0.00    -0.443 OA
ENDBRANCH   3   2
ENDBRANCH   5   3
TORSDOF 4
ENDMDL
