MODEL 1
REMARK VINA RESULT:      -9.8      0.000      0.000
REMARK  Name = 
REMARK  6 active torsions:
REMARK  status: ('A' for Active; 'I' for Inactive)
REMARK    1  A    between atoms: O_2  and  C_3
REMARK    2  A    between atoms: C_3  and  C_4
REMARK    3  A    between atoms: C_4  and  N_5
REMARK    4  A    between atoms: C_6  and  C_8
REMARK    5  A    between atoms: C_8  and  C_9
REMARK    6  A    between atoms: C_27  and  N_30
REMARK                            x       y       z     vdW  Elec       q    Type
REMARK                         _______ _______ _______ _____ _____    ______ ____
ROOT
ATOM      9  C   UNL     1       0.647   0.526  23.506  0.00  0.00    +0.017 C 
ATOM     10  C   UNL     1       0.721  -0.278  23.672  0.00  0.00    +0.022 C 
ATOM     11  C   UNL     1       0.085  -0.694  23.994  0.00  0.00    +0.093 C 
ATOM     12  N   UNL     1      -0.619  -0.380  24.166  0.00  0.00    -0.278 N 
ATOM     13  C   UNL     1      -0.700   0.501  23.984  0.00  0.00    +0.098 C 
ATOM     14  C   UNL     1      -0.263   1.131  23.681  0.00  0.00    +0.042 C 
ATOM     15  C   UNL     1      -0.743   1.801  23.689  0.00  0.00    -0.026 C 
ATOM     16  C   UNL     1      -1.476   1.586  23.997  0.00  0.00    +0.016 C 
ATOM     17  C   UNL     1      -2.282   1.944  24.194  0.00  0.00    +0.231 C 
ATOM     18  O   UNL     1      -2.698   1.755  24.385  0.00  0.00    -0.471 OA
ATOM     19  C   UNL     1      -2.790   0.696  24.670  0.00  0.00    +0.136 A 
ATOM     20  C   UNL     1      -3.406   0.251  24.992  0.00  0.00    +0.030 A 
ATOM     21  C   UNL     1      -3.298  -0.553  25.145  0.00  0.00    +0.119 C 
ATOM     22  N   UNL     1      -2.575  -0.911  24.977  0.00  0.00    -0.204 NA
ATOM     23  C   UNL     1      -1.959  -0.466  24.656  0.00  0.00    +0.174 C 
ATOM     24  C   UNL     1      -1.235  -0.825  24.488  0.00  0.00    +0.243 C 
ATOM     25  O   UNL     1      -1.127  -1.628  24.641  0.00  0.00    -0.273 OA
ATOM     26  C   UNL     1      -4.130   0.610  25.160  0.00  0.00    +0.015 A 
ATOM     27  C   UNL     1      -4.238   1.413  25.006  0.00  0.00    +0.048 A 
ATOM     28  C   UNL     1      -3.621   1.858  24.684  0.00  0.00    +0.018 A 
ATOM     29  C   UNL     1      -2.898   1.499  24.516  0.00  0.00    +0.038 A 
ENDROOT
BRANCH  27  30
ATOM     30  N   UNL     1      -4.962   1.772  25.174  0.00  0.00    -0.305 N 
ATOM     31  C   UNL     1      -5.648   1.508  24.802  0.00  0.00    +0.110 C 
ATOM     32  C   UNL     1      -6.372   1.867  24.970  0.00  0.00    +0.110 C 
ATOM     33  N   UNL     1      -6.408   2.490  25.510  0.00  0.00    -0.214 NA
ATOM     34  C   UNL     1      -5.721   2.753  25.882  0.00  0.00    +0.110 C 
ATOM     35  C   UNL     1      -4.997   2.394  25.714  0.00  0.00    +0.110 C 
ENDBRANCH  27  30
BRANCH   9   8
ATOM      8  C   UNL     1       1.302   0.909  23.185  0.00  0.00    +0.087 C 
BRANCH   8   6
ATOM      5  N   UNL     1       2.708   0.670  23.088  0.00  0.00    -0.203 NA
ATOM      6  C   UNL     1       1.934   0.469  22.888  0.00  0.00    +0.241 C 
ATOM      7  O   UNL     1       1.790  -0.172  22.390  0.00  0.00    -0.273 OA
BRANCH   5   4
ATOM      4  C   UNL     1       3.339   0.230  22.791  0.00  0.00    +0.147 C 
BRANCH   4   3
ATOM      3  C   UNL     1       4.113   0.487  22.910  0.00  0.00    +0.166 C 
BRANCH   3   2
ATOM      1  C   UNL     1       5.427   0.195  23.390  0.00  0.00    +0.174 C 
ATOM      2  O   UNL     1       4.710  -0.059  23.072  0.00  0.00    -0.349 OA
ENDBRANCH   3   2
ENDBRANCH   4   3
ENDBRANCH   5   4
ENDBRANCH   8   6
ENDBRANCH   9   8
TORSDOF 6
ENDMDL
MODEL 2
REMARK VINA RESULT:      -9.5      1.506      6.323
REMARK  Name = 
REMARK  6 active torsions:
REMARK  status: ('A' for Active; 'I' for Inactive)
REMARK    1  A    between atoms: O_2  and  C_3
REMARK    2  A    between atoms: C_3  and  C_4
REMARK    3  A    between atoms: C_4  and  N_5
REMARK    4  A    between atoms: C_6  and  C_8
REMARK    5  A    between atoms: C_8  and  C_9
REMARK    6  A    between atoms: C_27  and  N_30
REMARK                            x       y       z     vdW  Elec       q    Type
REMARK                         _______ _______ _______ _____ _____    ______ ____
ROOT
ATOM      9  C   UNL     1      -4.400   0.764  24.684  0.00  0.00    +0.017 C 
ATOM     10  C   UNL     1      -4.523   0.119  25.183  0.00  0.00    +0.022 C 
ATOM     11  C   UNL     1      -3.905  -0.404  25.344  0.00  0.00    +0.093 C 
ATOM     12  N   UNL     1      -3.174  -0.340  25.052  0.00  0.00    -0.278 N 
ATOM     13  C   UNL     1      -3.038   0.366  24.506  0.00  0.00    +0.098 C 
ATOM     14  C   UNL     1      -3.443   1.009  24.186  0.00  0.00    +0.042 C 
ATOM     15  C   UNL     1      -2.917   1.430  23.710  0.00  0.00    -0.026 C 
ATOM     16  C   UNL     1      -2.188   1.046  23.735  0.00  0.00    +0.016 C 
ATOM     17  C   UNL     1      -1.351   1.117  23.402  0.00  0.00    +0.231 C 
ATOM     18  O   UNL     1      -0.942   0.844  23.457  0.00  0.00    -0.471 OA
ATOM     19  C   UNL     1      -0.913  -0.058  24.087  0.00  0.00    +0.136 A 
ATOM     20  C   UNL     1      -0.316  -0.599  24.268  0.00  0.00    +0.030 A 
ATOM     21  C   UNL     1      -0.473  -1.234  24.772  0.00  0.00    +0.119 C 
ATOM     22  N   UNL     1      -1.227  -1.327  25.093  0.00  0.00    -0.204 NA
ATOM     23  C   UNL     1      -1.823  -0.787  24.911  0.00  0.00    +0.174 C 
ATOM     24  C   UNL     1      -2.577  -0.881  25.233  0.00  0.00    +0.243 C 
ATOM     25  O   UNL     1      -2.734  -1.516  25.737  0.00  0.00    -0.273 OA
ATOM     26  C   UNL     1       0.438  -0.505  23.947  0.00  0.00    +0.015 A 
ATOM     27  C   UNL     1       0.596   0.130  23.443  0.00  0.00    +0.048 A 
ATOM     28  C   UNL     1      -0.001   0.671  23.262  0.00  0.00    +0.018 A 
ATOM     29  C   UNL     1      -0.755   0.576  23.584  0.00  0.00    +0.038 A 
ENDROOT
BRANCH  27  30
ATOM     30  N   UNL     1       1.349   0.224  23.121  0.00  0.00    -0.305 N 
ATOM     31  C   UNL     1       1.584  -0.238  22.481  0.00  0.00    +0.110 C 
ATOM     32  C   UNL     1       2.338  -0.143  22.159  0.00  0.00    +0.110 C 
ATOM     33  N   UNL     1       2.857   0.414  22.479  0.00  0.00    -0.214 NA
ATOM     34  C   UNL     1       2.621   0.875  23.119  0.00  0.00    +0.110 C 
ATOM     35  C   UNL     1       1.867   0.781  23.441  0.00  0.00    +0.110 C 
ENDBRANCH  27  30
BRANCH   9   8
ATOM      8  C   UNL     1      -5.040   1.264  24.545  0.00  0.00    +0.087 C 
BRANCH   8   6
ATOM      5  N   UNL     1      -5.289   2.567  25.077  0.00  0.00    -0.203 NA
ATOM      6  C   UNL     1      -5.326   1.747  25.151  0.00  0.00    +0.241 C 
ATOM      7  O   UNL     1      -5.649   1.408  25.830  0.00  0.00    -0.273 OA
BRANCH   5   4
ATOM      4  C   UNL     1      -5.575   3.049  25.683  0.00  0.00    +0.147 C 
BRANCH   4   3
ATOM      3  C   UNL     1      -5.450   3.864  25.655  0.00  0.00    +0.166 C 
BRANCH   3   2
ATOM      1  C   UNL     1      -6.022   5.165  25.508  0.00  0.00    +0.174 C 
ATOM      2  O   UNL     1      -6.083   4.383  25.760  0.00  0.00    -0.349 OA
ENDBRANCH   3   2
ENDBRANCH   4   3
ENDBRANCH   5   4
ENDBRANCH   8   6
ENDBRANCH   9   8
TORSDOF 6
ENDMDL
MODEL 3
REMARK VINA RESULT:      -8.9      1.167      1.947
REMARK  Name = 
REMARK  6 active torsions:
REMARK  status: ('A' for Active; 'I' for Inactive)
REMARK    1  A    between atoms: O_2  and  C_3
REMARK    2  A    between atoms: C_3  and  C_4
REMARK    3  A    between atoms: C_4  and  N_5
REMARK    4  A    between atoms: C_6  and  C_8
REMARK    5  A    between atoms: C_8  and  C_9
REMARK    6  A    between atoms: C_27  and  N_30
REMARK                            x       y       z     vdW  Elec       q    Type
REMARK                         _______ _______ _______ _____ _____    ______ ____
ROOT
ATOM      9  C   UNL     1       0.407   0.632  23.751  0.00  0.00    +0.017 C 
ATOM     10  C   UNL     1       0.798   1.358  23.781  0.00  0.00    +0.022 C 
ATOM     11  C   UNL     1       0.383   2.043  23.982  0.00  0.00    +0.093 C 
ATOM     12  N   UNL     1      -0.386   2.069  24.157  0.00  0.00    -0.278 N 
ATOM     13  C   UNL     1      -0.814   1.274  24.125  0.00  0.00    +0.098 C 
ATOM     14  C   UNL     1      -0.667   0.479  23.964  0.00  0.00    +0.042 C 
ATOM     15  C   UNL     1      -1.375   0.066  24.055  0.00  0.00    -0.026 C 
ATOM     16  C   UNL     1      -1.959   0.606  24.271  0.00  0.00    +0.016 C 
ATOM     17  C   UNL     1      -2.840   0.638  24.472  0.00  0.00    +0.231 C 
ATOM     18  O   UNL     1      -3.144   1.007  24.598  0.00  0.00    -0.471 OA
ATOM     19  C   UNL     1      -2.802   2.049  24.690  0.00  0.00    +0.136 A 
ATOM     20  C   UNL     1      -3.188   2.752  24.888  0.00  0.00    +0.030 A 
ATOM     21  C   UNL     1      -2.766   3.461  24.909  0.00  0.00    +0.119 C 
ATOM     22  N   UNL     1      -1.961   3.467  24.731  0.00  0.00    -0.204 NA
ATOM     23  C   UNL     1      -1.577   2.765  24.533  0.00  0.00    +0.174 C 
ATOM     24  C   UNL     1      -0.771   2.772  24.355  0.00  0.00    +0.243 C 
ATOM     25  O   UNL     1      -0.350   3.481  24.376  0.00  0.00    -0.273 OA
ATOM     26  C   UNL     1      -3.993   2.745  25.066  0.00  0.00    +0.015 A 
ATOM     27  C   UNL     1      -4.415   2.036  25.045  0.00  0.00    +0.048 A 
ATOM     28  C   UNL     1      -4.029   1.333  24.847  0.00  0.00    +0.018 A 
ATOM     29  C   UNL     1      -3.224   1.340  24.670  0.00  0.00    +0.038 A 
ENDROOT
BRANCH  27  30
ATOM     30  N   UNL     1      -5.220   2.029  25.223  0.00  0.00    -0.305 N 
ATOM     31  C   UNL     1      -5.768   1.822  24.643  0.00  0.00    +0.110 C 
ATOM     32  C   UNL     1      -6.573   1.815  24.821  0.00  0.00    +0.110 C 
ATOM     33  N   UNL     1      -6.831   2.016  25.579  0.00  0.00    -0.214 NA
ATOM     34  C   UNL     1      -6.282   2.224  26.158  0.00  0.00    +0.110 C 
ATOM     35  C   UNL     1      -5.477   2.231  25.981  0.00  0.00    +0.110 C 
ENDBRANCH  27  30
BRANCH   9   8
ATOM      8  C   UNL     1       0.852  -0.030  23.546  0.00  0.00    +0.087 C 
BRANCH   8   6
ATOM      5  N   UNL     1       2.224   0.047  23.153  0.00  0.00    -0.203 NA
ATOM      6  C   UNL     1       1.425   0.023  22.954  0.00  0.00    +0.241 C 
ATOM      7  O   UNL     1       1.196   0.053  22.162  0.00  0.00    -0.273 OA
BRANCH   5   4
ATOM      4  C   UNL     1       2.796   0.101  22.561  0.00  0.00    +0.147 C 
BRANCH   4   3
ATOM      3  C   UNL     1       3.587  -0.056  22.735  0.00  0.00    +0.166 C 
BRANCH   3   2
ATOM      1  C   UNL     1       4.881   0.453  23.063  0.00  0.00    +0.174 C 
ATOM      2  O   UNL     1       4.144   0.552  22.708  0.00  0.00    -0.349 OA
ENDBRANCH   3   2
ENDBRANCH   4   3
ENDBRANCH   5   4
ENDBRANCH   8   6
ENDBRANCH   9   8
TORSDOF 6
ENDMDL
MODEL 4
REMARK VINA RESULT:      -7.2      2.967      4.779
REMARK  Name = 
REMARK  6 active torsions:
REMARK  status: ('A' for Active; 'I' for Inactive)
REMARK    1  A    between atoms: O_2  and  C_3
REMARK    2  A    between atoms: C_3  and  C_4
REMARK    3  A    between atoms: C_4  and  N_5
REMARK    4  A    between atoms: C_6  and  C_8
REMARK    5  A    between atoms: C_8  and  C_9
REMARK    6  A    between atoms: C_27  and  N_30
REMARK                            x       y       z     vdW  Elec       q    Type
REMARK                         _______ _______ _______ _____ _____    ______ ____
ROOT
ATOM      9  C   UNL     1      -4.181  -0.763  24.106  0.00  0.00    +0.017 C 
ATOM     10  C   UNL     1      -4.918  -0.702  24.472  0.00  0.00    +0.022 C 
ATOM     11  C   UNL     1      -5.143   0.005  24.832  0.00  0.00    +0.093 C 
ATOM     12  N   UNL     1      -4.700   0.658  24.860  0.00  0.00    -0.278 N 
ATOM     13  C   UNL     1      -3.894   0.592  24.459  0.00  0.00    +0.098 C 
ATOM     14  C   UNL     1      -3.431   0.048  24.047  0.00  0.00    +0.042 C 
ATOM     15  C   UNL     1      -2.721   0.417  23.848  0.00  0.00    -0.026 C 
ATOM     16  C   UNL     1      -2.745   1.188  24.137  0.00  0.00    +0.016 C 
ATOM     17  C   UNL     1      -2.239   1.936  24.170  0.00  0.00    +0.231 C 
ATOM     18  O   UNL     1      -2.313   2.385  24.366  0.00  0.00    -0.471 OA
ATOM     19  C   UNL     1      -3.239   2.655  24.896  0.00  0.00    +0.136 A 
ATOM     20  C   UNL     1      -3.495   3.347  25.265  0.00  0.00    +0.030 A 
ATOM     21  C   UNL     1      -4.238   3.374  25.622  0.00  0.00    +0.119 C 
ATOM     22  N   UNL     1      -4.725   2.708  25.610  0.00  0.00    -0.204 NA
ATOM     23  C   UNL     1      -4.469   2.016  25.241  0.00  0.00    +0.174 C 
ATOM     24  C   UNL     1      -4.956   1.351  25.229  0.00  0.00    +0.243 C 
ATOM     25  O   UNL     1      -5.700   1.377  25.586  0.00  0.00    -0.273 OA
ATOM     26  C   UNL     1      -3.007   4.013  25.277  0.00  0.00    +0.015 A 
ATOM     27  C   UNL     1      -2.264   3.986  24.920  0.00  0.00    +0.048 A 
ATOM     28  C   UNL     1      -2.008   3.294  24.550  0.00  0.00    +0.018 A 
ATOM     29  C   UNL     1      -2.495   2.628  24.539  0.00  0.00    +0.038 A 
ENDROOT
BRANCH  27  30
ATOM     30  N   UNL     1      -1.776   4.652  24.931  0.00  0.00    -0.305 N 
ATOM     31  C   UNL     1      -0.957   4.562  24.925  0.00  0.00    +0.110 C 
ATOM     32  C   UNL     1      -0.469   5.228  24.937  0.00  0.00    +0.110 C 
ATOM     33  N   UNL     1      -0.802   5.983  24.955  0.00  0.00    -0.214 NA
ATOM     34  C   UNL     1      -1.622   6.072  24.961  0.00  0.00    +0.110 C 
ATOM     35  C   UNL     1      -2.109   5.406  24.949  0.00  0.00    +0.110 C 
ENDBRANCH  27  30
BRANCH   9   8
ATOM      8  C   UNL     1      -3.989  -1.484  23.756  0.00  0.00    +0.087 C 
BRANCH   8   6
ATOM      5  N   UNL     1      -2.795  -2.182  24.116  0.00  0.00    -0.203 NA
ATOM      6  C   UNL     1      -3.608  -2.068  24.197  0.00  0.00    +0.241 C 
ATOM      7  O   UNL     1      -4.040  -2.539  24.719  0.00  0.00    -0.273 OA
BRANCH   5   4
ATOM      4  C   UNL     1      -2.414  -2.766  24.556  0.00  0.00    +0.147 C 
BRANCH   4   3
ATOM      3  C   UNL     1      -1.590  -2.798  24.574  0.00  0.00    +0.166 C 
BRANCH   3   2
ATOM      1  C   UNL     1      -0.426  -2.212  25.159  0.00  0.00    +0.174 C 
ATOM      2  O   UNL     1      -1.181  -2.532  25.240  0.00  0.00    -0.349 OA
ENDBRANCH   3   2
ENDBRANCH   4   3
ENDBRANCH   5   4
ENDBRANCH   8   6
ENDBRANCH   9   8
TORSDOF 6
ENDMDL
MODEL 5
REMARK VINA RESULT:      -7.0     17.124     18.425
REMARK  Name = 
REMARK  6 active torsions:
REMARK  status: ('A' for Active; 'I' for Inactive)
REMARK    1  A    between atoms: O_2  and  C_3
REMARK    2  A    between atoms: C_3  and  C_4
REMARK    3  A    between atoms: C_4  and  N_5
REMARK    4  A    between atoms: C_6  and  C_8
REMARK    5  A    between atoms: C_8  and  C_9
REMARK    6  A    between atoms: C_27  and  N_30
REMARK                            x       y       z     vdW  Elec       q    Type
REMARK                         _______ _______ _______ _____ _____    ______ ____
ROOT
ATOM      9  C   UNL     1      -7.780  -8.077   9.048  0.00  0.00    +0.017 C 
ATOM     10  C   UNL     1      -8.443  -8.471   9.339  0.00  0.00    +0.022 C 
ATOM     11  C   UNL     1      -8.360  -9.035   9.936  0.00  0.00    +0.093 C 
ATOM     12  N   UNL     1      -7.674  -9.241  10.269  0.00  0.00    -0.278 N 
ATOM     13  C   UNL     1      -6.948  -8.809   9.950  0.00  0.00    +0.098 C 
ATOM     14  C   UNL     1      -6.742  -8.236   9.394  0.00  0.00    +0.042 C 
ATOM     15  C   UNL     1      -5.925  -8.130   9.429  0.00  0.00    -0.026 C 
ATOM     16  C   UNL     1      -5.626  -8.637  10.005  0.00  0.00    +0.016 C 
ATOM     17  C   UNL     1      -4.843  -8.874  10.387  0.00  0.00    +0.231 C 
ATOM     18  O   UNL     1      -4.725  -9.198  10.742  0.00  0.00    -0.471 OA
ATOM     19  C   UNL     1      -5.478  -9.819  11.251  0.00  0.00    +0.136 A 
ATOM     20  C   UNL     1      -5.429 -10.388  11.847  0.00  0.00    +0.030 A 
ATOM     21  C   UNL     1      -6.112 -10.764  12.115  0.00  0.00    +0.119 C 
ATOM     22  N   UNL     1      -6.844 -10.571  11.788  0.00  0.00    -0.204 NA
ATOM     23  C   UNL     1      -6.893 -10.002  11.192  0.00  0.00    +0.174 C 
ATOM     24  C   UNL     1      -7.625  -9.810  10.865  0.00  0.00    +0.243 C 
ATOM     25  O   UNL     1      -8.309 -10.186  11.133  0.00  0.00    -0.273 OA
ATOM     26  C   UNL     1      -4.696 -10.580  12.175  0.00  0.00    +0.015 A 
ATOM     27  C   UNL     1      -4.012 -10.204  11.906  0.00  0.00    +0.048 A 
ATOM     28  C   UNL     1      -4.062  -9.635  11.310  0.00  0.00    +0.018 A 
ATOM     29  C   UNL     1      -4.794  -9.443  10.983  0.00  0.00    +0.038 A 
ENDROOT
BRANCH  27  30
ATOM     30  N   UNL     1      -3.280 -10.397  12.234  0.00  0.00    -0.305 N 
ATOM     31  C   UNL     1      -2.647 -10.588  11.742  0.00  0.00    +0.110 C 
ATOM     32  C   UNL     1      -1.914 -10.780  12.069  0.00  0.00    +0.110 C 
ATOM     33  N   UNL     1      -1.816 -10.781  12.889  0.00  0.00    -0.214 NA
ATOM     34  C   UNL     1      -2.449 -10.589  13.380  0.00  0.00    +0.110 C 
ATOM     35  C   UNL     1      -3.182 -10.397  13.053  0.00  0.00    +0.110 C 
ENDBRANCH  27  30
BRANCH   9   8
ATOM      8  C   UNL     1      -7.901  -7.520   8.452  0.00  0.00    +0.087 C 
BRANCH   8   6
ATOM      5  N   UNL     1      -8.718  -6.351   8.539  0.00  0.00    -0.203 NA
ATOM      6  C   UNL     1      -8.636  -7.154   8.372  0.00  0.00    +0.241 C 
ATOM      7  O   UNL     1      -9.290  -7.592   8.124  0.00  0.00    -0.273 OA
BRANCH   5   4
ATOM      4  C   UNL     1      -9.453  -5.984   8.458  0.00  0.00    +0.147 C 
BRANCH   4   3
ATOM      3  C   UNL     1      -9.528  -5.175   8.594  0.00  0.00    +0.166 C 
BRANCH   3   2
ATOM      1  C   UNL     1     -10.320  -4.057   9.001  0.00  0.00    +0.174 C 
ATOM      2  O   UNL     1     -10.255  -4.860   8.827  0.00  0.00    -0.349 OA
ENDBRANCH   3   2
ENDBRANCH   4   3
ENDBRANCH   5   4
ENDBRANCH   8   6
ENDBRANCH   9   8
TORSDOF 6
ENDMDL
MODEL 6
REMARK VINA RESULT:      -6.8      2.121      6.687
REMARK  Name = 
REMARK  6 active torsions:
REMARK  status: ('A' for Active; 'I' for Inactive)
REMARK    1  A    between atoms: O_2  and  C_3
REMARK    2  A    between atoms: C_3  and  C_4
REMARK    3  A    between atoms: C_4  and  N_5
REMARK    4  A    between atoms: C_6  and  C_8
REMARK    5  A    between atoms: C_8  and  C_9
REMARK    6  A    between atoms: C_27  and  N_30
REMARK                            x       y       z     vdW  Elec       q    Type
REMARK                         _______ _______ _______ _____ _____    ______ ____
ROOT
ATOM      9  C   UNL     1      -3.933   3.483  24.979  0.00  0.00    +0.017 C 
ATOM     10  C   UNL     1      -3.694   3.890  25.655  0.00  0.00    +0.022 C 
ATOM     11  C   UNL     1      -2.916   3.825  25.923  0.00  0.00    +0.093 C 
ATOM     12  N   UNL     1      -2.355   3.390  25.577  0.00  0.00    -0.278 N 
ATOM     13  C   UNL     1      -2.616   2.945  24.837  0.00  0.00    +0.098 C 
ATOM     14  C   UNL     1      -3.284   2.828  24.367  0.00  0.00    +0.042 C 
ATOM     15  C   UNL     1      -3.078   2.318  23.753  0.00  0.00    -0.026 C 
ATOM     16  C   UNL     1      -2.283   2.120  23.843  0.00  0.00    +0.016 C 
ATOM     17  C   UNL     1      -1.640   1.623  23.448  0.00  0.00    +0.231 C 
ATOM     18  O   UNL     1      -1.163   1.542  23.555  0.00  0.00    -0.471 OA
ATOM     19  C   UNL     1      -0.665   2.000  24.423  0.00  0.00    +0.136 A 
ATOM     20  C   UNL     1       0.106   1.957  24.717  0.00  0.00    +0.030 A 
ATOM     21  C   UNL     1       0.311   2.377  25.396  0.00  0.00    +0.119 C 
ATOM     22  N   UNL     1      -0.252   2.840  25.781  0.00  0.00    -0.204 NA
ATOM     23  C   UNL     1      -1.021   2.883  25.486  0.00  0.00    +0.174 C 
ATOM     24  C   UNL     1      -1.585   3.347  25.871  0.00  0.00    +0.243 C 
ATOM     25  O   UNL     1      -1.379   3.767  26.551  0.00  0.00    -0.273 OA
ATOM     26  C   UNL     1       0.669   1.493  24.332  0.00  0.00    +0.015 A 
ATOM     27  C   UNL     1       0.463   1.073  23.652  0.00  0.00    +0.048 A 
ATOM     28  C   UNL     1      -0.307   1.116  23.358  0.00  0.00    +0.018 A 
ATOM     29  C   UNL     1      -0.870   1.580  23.743  0.00  0.00    +0.038 A 
ENDROOT
BRANCH  27  30
ATOM     30  N   UNL     1       1.026   0.609  23.267  0.00  0.00    -0.305 N 
ATOM     31  C   UNL     1       0.814  -0.126  22.959  0.00  0.00    +0.110 C 
ATOM     32  C   UNL     1       1.378  -0.589  22.574  0.00  0.00    +0.110 C 
ATOM     33  N   UNL     1       2.154  -0.317  22.497  0.00  0.00    -0.214 NA
ATOM     34  C   UNL     1       2.365   0.418  22.805  0.00  0.00    +0.110 C 
ATOM     35  C   UNL     1       1.801   0.881  23.190  0.00  0.00    +0.110 C 
ENDBRANCH  27  30
BRANCH   9   8
ATOM      8  C   UNL     1      -4.717   3.571  24.740  0.00  0.00    +0.087 C 
BRANCH   8   6
ATOM      5  N   UNL     1      -5.613   2.661  25.381  0.00  0.00    -0.203 NA
ATOM      6  C   UNL     1      -5.330   3.428  25.273  0.00  0.00    +0.241 C 
ATOM      7  O   UNL     1      -5.660   4.053  25.699  0.00  0.00    -0.273 OA
BRANCH   5   4
ATOM      4  C   UNL     1      -6.226   2.518  25.915  0.00  0.00    +0.147 C 
BRANCH   4   3
ATOM      3  C   UNL     1      -6.345   1.758  26.213  0.00  0.00    +0.166 C 
BRANCH   3   2
ATOM      1  C   UNL     1      -6.856   1.232  27.439  0.00  0.00    +0.174 C 
ATOM      2  O   UNL     1      -6.982   1.607  26.716  0.00  0.00    -0.349 OA
ENDBRANCH   3   2
ENDBRANCH   4   3
ENDBRANCH   5   4
ENDBRANCH   8   6
ENDBRANCH   9   8
TORSDOF 6
ENDMDL
MODEL 7
REMARK VINA RESULT:      -6.5      3.161      4.659
REMARK  Name = 
REMARK  6 active torsions:
REMARK  status: ('A' for Active; 'I' for Inactive)
REMARK    1  A    between atoms: O_2  and  C_3
REMARK    2  A    between atoms: C_3  and  C_4
REMARK    3  A    between atoms: C_4  and  N_5
REMARK    4  A    between atoms: C_6  and  C_8
REMARK    5  A    between atoms: C_8  and  C_9
REMARK    6  A    between atoms: C_27  and  N_30
REMARK                            x       y       z     vdW  Elec       q    Type
REMARK                         _______ _______ _______ _____ _____    ______ ____
ROOT
ATOM      9  C   UNL     1      -2.254   3.960  25.680  0.00  0.00    +0.017 C 
ATOM     10  C   UNL     1      -2.979   4.351  25.731  0.00  0.00    +0.022 C 
ATOM     11  C   UNL     1      -3.682   3.934  25.617  0.00  0.00    +0.093 C 
ATOM     12  N   UNL     1      -3.728   3.162  25.457  0.00  0.00    -0.278 N 
ATOM     13  C   UNL     1      -2.934   2.734  25.402  0.00  0.00    +0.098 C 
ATOM     14  C   UNL     1      -2.126   2.883  25.466  0.00  0.00    +0.042 C 
ATOM     15  C   UNL     1      -1.726   2.173  25.337  0.00  0.00    -0.026 C 
ATOM     16  C   UNL     1      -2.287   1.586  25.194  0.00  0.00    +0.016 C 
ATOM     17  C   UNL     1      -2.341   0.703  25.012  0.00  0.00    +0.231 C 
ATOM     18  O   UNL     1      -2.722   0.398  24.934  0.00  0.00    -0.471 OA
ATOM     19  C   UNL     1      -3.768   0.738  24.961  0.00  0.00    +0.136 A 
ATOM     20  C   UNL     1      -4.489   0.351  24.852  0.00  0.00    +0.030 A 
ATOM     21  C   UNL     1      -5.197   0.772  24.909  0.00  0.00    +0.119 C 
ATOM     22  N   UNL     1      -5.182   1.580  25.075  0.00  0.00    -0.204 NA
ATOM     23  C   UNL     1      -4.462   1.966  25.183  0.00  0.00    +0.174 C 
ATOM     24  C   UNL     1      -4.448   2.775  25.349  0.00  0.00    +0.243 C 
ATOM     25  O   UNL     1      -5.156   3.196  25.406  0.00  0.00    -0.273 OA
ATOM     26  C   UNL     1      -4.503  -0.457  24.687  0.00  0.00    +0.015 A 
ATOM     27  C   UNL     1      -3.796  -0.879  24.629  0.00  0.00    +0.048 A 
ATOM     28  C   UNL     1      -3.075  -0.491  24.738  0.00  0.00    +0.018 A 
ATOM     29  C   UNL     1      -3.061   0.317  24.903  0.00  0.00    +0.038 A 
ENDROOT
BRANCH  27  30
ATOM     30  N   UNL     1      -3.809  -1.687  24.464  0.00  0.00    -0.305 N 
ATOM     31  C   UNL     1      -3.470  -2.221  24.992  0.00  0.00    +0.110 C 
ATOM     32  C   UNL     1      -3.483  -3.029  24.826  0.00  0.00    +0.110 C 
ATOM     33  N   UNL     1      -3.836  -3.303  24.132  0.00  0.00    -0.214 NA
ATOM     34  C   UNL     1      -4.175  -2.768  23.604  0.00  0.00    +0.110 C 
ATOM     35  C   UNL     1      -4.162  -1.960  23.770  0.00  0.00    +0.110 C 
ENDBRANCH  27  30
BRANCH   9   8
ATOM      8  C   UNL     1      -1.572   4.408  25.800  0.00  0.00    +0.087 C 
BRANCH   8   6
ATOM      5  N   UNL     1      -0.673   4.690  24.725  0.00  0.00    -0.203 NA
ATOM      6  C   UNL     1      -1.303   4.915  25.208  0.00  0.00    +0.241 C 
ATOM      7  O   UNL     1      -1.663   5.649  25.099  0.00  0.00    -0.273 OA
BRANCH   5   4
ATOM      4  C   UNL     1      -0.404   5.197  24.133  0.00  0.00    +0.147 C 
BRANCH   4   3
ATOM      3  C   UNL     1       0.122   4.922  23.561  0.00  0.00    +0.166 C 
BRANCH   3   2
ATOM      1  C   UNL     1       0.814   5.359  22.390  0.00  0.00    +0.174 C 
ATOM      2  O   UNL     1       0.109   5.240  22.800  0.00  0.00    -0.349 OA
ENDBRANCH   3   2
ENDBRANCH   4   3
ENDBRANCH   5   4
ENDBRANCH   8   6
ENDBRANCH   9   8
TORSDOF 6
ENDMDL
MODEL 8
REMARK VINA RESULT:      -6.4      2.507      4.716
REMARK  Name = 
REMARK  6 active torsions:
REMARK  status: ('A' for Active; 'I' for Inactive)
REMARK    1  A    between atoms: O_2  and  C_3
REMARK    2  A    between atoms: C_3  and  C_4
REMARK    3  A    between atoms: C_4  and  N_5
REMARK    4  A    between atoms: C_6  and  C_8
REMARK    5  A    between atoms: C_8  and  C_9
REMARK    6  A    between atoms: C_27  and  N_30
REMARK                            x       y       z     vdW  Elec       q    Type
REMARK                         _______ _______ _______ _____ _____    ______ ____
ROOT
ATOM      9  C   UNL     1      -1.086  -1.627  24.890  0.00  0.00    +0.017 C 
ATOM     10  C   UNL     1      -0.418  -1.778  24.430  0.00  0.00    +0.022 C 
ATOM     11  C   UNL     1       0.020  -1.152  24.120  0.00  0.00    +0.093 C 
ATOM     12  N   UNL     1      -0.148  -0.388  24.227  0.00  0.00    -0.278 N 
ATOM     13  C   UNL     1      -0.879  -0.222  24.730  0.00  0.00    +0.098 C 
ATOM     14  C   UNL     1      -1.470  -0.622  25.143  0.00  0.00    +0.042 C 
ATOM     15  C   UNL     1      -1.969  -0.059  25.481  0.00  0.00    -0.026 C 
ATOM     16  C   UNL     1      -1.686   0.688  25.277  0.00  0.00    +0.016 C 
ATOM     17  C   UNL     1      -1.877   1.563  25.399  0.00  0.00    +0.231 C 
ATOM     18  O   UNL     1      -1.660   1.980  25.244  0.00  0.00    -0.471 OA
ATOM     19  C   UNL     1      -0.754   1.979  24.619  0.00  0.00    +0.136 A 
ATOM     20  C   UNL     1      -0.294   2.583  24.294  0.00  0.00    +0.030 A 
ATOM     21  C   UNL     1       0.369   2.396  23.838  0.00  0.00    +0.119 C 
ATOM     22  N   UNL     1       0.570   1.607  23.708  0.00  0.00    -0.204 NA
ATOM     23  C   UNL     1       0.110   1.005  24.033  0.00  0.00    +0.174 C 
ATOM     24  C   UNL     1       0.313   0.216  23.902  0.00  0.00    +0.243 C 
ATOM     25  O   UNL     1       0.975   0.029  23.447  0.00  0.00    -0.273 OA
ATOM     26  C   UNL     1      -0.496   3.372  24.424  0.00  0.00    +0.015 A 
ATOM     27  C   UNL     1      -1.159   3.558  24.880  0.00  0.00    +0.048 A 
ATOM     28  C   UNL     1      -1.619   2.954  25.205  0.00  0.00    +0.018 A 
ATOM     29  C   UNL     1      -1.417   2.165  25.074  0.00  0.00    +0.038 A 
ENDROOT
BRANCH  27  30
ATOM     30  N   UNL     1      -1.361   4.347  25.010  0.00  0.00    -0.305 N 
ATOM     31  C   UNL     1      -0.823   4.945  24.831  0.00  0.00    +0.110 C 
ATOM     32  C   UNL     1      -1.026   5.734  24.962  0.00  0.00    +0.110 C 
ATOM     33  N   UNL     1      -1.767   5.924  25.272  0.00  0.00    -0.214 NA
ATOM     34  C   UNL     1      -2.304   5.326  25.451  0.00  0.00    +0.110 C 
ATOM     35  C   UNL     1      -2.102   4.537  25.320  0.00  0.00    +0.110 C 
ENDBRANCH  27  30
BRANCH   9   8
ATOM      8  C   UNL     1      -1.500  -2.277  25.183  0.00  0.00    +0.087 C 
BRANCH   8   6
ATOM      5  N   UNL     1      -2.831  -2.571  24.755  0.00  0.00    -0.203 NA
ATOM      6  C   UNL     1      -2.018  -2.693  24.693  0.00  0.00    +0.241 C 
ATOM      7  O   UNL     1      -1.722  -3.230  24.142  0.00  0.00    -0.273 OA
BRANCH   5   4
ATOM      4  C   UNL     1      -3.349  -2.987  24.265  0.00  0.00    +0.147 C 
BRANCH   4   3
ATOM      3  C   UNL     1      -4.142  -2.764  24.218  0.00  0.00    +0.166 C 
BRANCH   3   2
ATOM      1  C   UNL     1      -4.776  -1.565  23.769  0.00  0.00    +0.174 C 
ATOM      2  O   UNL     1      -4.400  -2.279  23.602  0.00  0.00    -0.349 OA
ENDBRANCH   3   2
ENDBRANCH   4   3
ENDBRANCH   5   4
ENDBRANCH   8   6
ENDBRANCH   9   8
TORSDOF 6
ENDMDL
MODEL 9
REMARK VINA RESULT:      -6.2      1.393      6.560
REMARK  Name = 
REMARK  6 active torsions:
REMARK  status: ('A' for Active; 'I' for Inactive)
REMARK    1  A    between atoms: O_2  and  C_3
REMARK    2  A    between atoms: C_3  and  C_4
REMARK    3  A    between atoms: C_4  and  N_5
REMARK    4  A    between atoms: C_6  and  C_8
REMARK    5  A    between atoms: C_8  and  C_9
REMARK    6  A    between atoms: C_27  and  N_30
REMARK                            x       y       z     vdW  Elec       q    Type
REMARK                         _______ _______ _______ _____ _____    ______ ____
ROOT
ATOM      9  C   UNL     1      -2.358   2.449  25.171  0.00  0.00    +0.017 C 
ATOM     10  C   UNL     1      -2.824   1.770  25.195  0.00  0.00    +0.022 C 
ATOM     11  C   UNL     1      -2.519   1.050  24.930  0.00  0.00    +0.093 C 
ATOM     12  N   UNL     1      -1.791   0.947  24.644  0.00  0.00    -0.278 N 
ATOM     13  C   UNL     1      -1.280   1.691  24.618  0.00  0.00    +0.098 C 
ATOM     14  C   UNL     1      -1.316   2.494  24.803  0.00  0.00    +0.042 C 
ATOM     15  C   UNL     1      -0.589   2.832  24.612  0.00  0.00    -0.026 C 
ATOM     16  C   UNL     1      -0.104   2.239  24.309  0.00  0.00    +0.016 C 
ATOM     17  C   UNL     1       0.730   2.119  23.981  0.00  0.00    +0.231 C 
ATOM     18  O   UNL     1       0.971   1.723  23.808  0.00  0.00    -0.471 OA
ATOM     19  C   UNL     1       0.510   0.724  23.762  0.00  0.00    +0.136 A 
ATOM     20  C   UNL     1       0.785  -0.011  23.505  0.00  0.00    +0.030 A 
ATOM     21  C   UNL     1       0.292  -0.671  23.542  0.00  0.00    +0.119 C 
ATOM     22  N   UNL     1      -0.475  -0.596  23.836  0.00  0.00    -0.204 NA
ATOM     23  C   UNL     1      -0.749   0.138  24.093  0.00  0.00    +0.174 C 
ATOM     24  C   UNL     1      -1.516   0.212  24.387  0.00  0.00    +0.243 C 
ATOM     25  O   UNL     1      -2.010  -0.448  24.424  0.00  0.00    -0.273 OA
ATOM     26  C   UNL     1       1.552  -0.085  23.211  0.00  0.00    +0.015 A 
ATOM     27  C   UNL     1       2.046   0.576  23.173  0.00  0.00    +0.048 A 
ATOM     28  C   UNL     1       1.771   1.311  23.430  0.00  0.00    +0.018 A 
ATOM     29  C   UNL     1       1.004   1.385  23.724  0.00  0.00    +0.038 A 
ENDROOT
BRANCH  27  30
ATOM     30  N   UNL     1       2.813   0.502  22.879  0.00  0.00    -0.305 N 
ATOM     31  C   UNL     1       2.934   0.361  22.076  0.00  0.00    +0.110 C 
ATOM     32  C   UNL     1       3.701   0.287  21.782  0.00  0.00    +0.110 C 
ATOM     33  N   UNL     1       4.347   0.354  22.292  0.00  0.00    -0.214 NA
ATOM     34  C   UNL     1       4.225   0.494  23.095  0.00  0.00    +0.110 C 
ATOM     35  C   UNL     1       3.458   0.568  23.389  0.00  0.00    +0.110 C 
ENDBRANCH  27  30
BRANCH   9   8
ATOM      8  C   UNL     1      -2.695   3.151  25.444  0.00  0.00    +0.087 C 
BRANCH   8   6
ATOM      5  N   UNL     1      -4.098   3.294  25.674  0.00  0.00    -0.203 NA
ATOM      6  C   UNL     1      -3.443   3.379  25.180  0.00  0.00    +0.241 C 
ATOM      7  O   UNL     1      -3.535   3.693  24.423  0.00  0.00    -0.273 OA
BRANCH   5   4
ATOM      4  C   UNL     1      -4.846   3.523  25.411  0.00  0.00    +0.147 C 
BRANCH   4   3
ATOM      3  C   UNL     1      -5.518   3.298  25.832  0.00  0.00    +0.166 C 
BRANCH   3   2
ATOM      1  C   UNL     1      -6.414   2.216  25.569  0.00  0.00    +0.174 C 
ATOM      2  O   UNL     1      -6.173   2.992  25.433  0.00  0.00    -0.349 OA
ENDBRANCH   3   2
ENDBRANCH   4   3
ENDBRANCH   5   4
ENDBRANCH   8   6
ENDBRANCH   9   8
TORSDOF 6
ENDMDL
MODEL 10
REMARK VINA RESULT:      -6.0      2.195      3.665
REMARK  Name = 
REMARK  6 active torsions:
REMARK  status: ('A' for Active; 'I' for Inactive)
REMARK    1  A    between atoms: O_2  and  C_3
REMARK    2  A    between atoms: C_3  and  C_4
REMARK    3  A    between atoms: C_4  and  N_5
REMARK    4  A    between atoms: C_6  and  C_8
REMARK    5  A    between atoms: C_8  and  C_9
REMARK    6  A    between atoms: C_27  and  N_30
REMARK                            x       y       z     vdW  Elec       q    Type
REMARK                         _______ _______ _______ _____ _____    ______ ____
ROOT
ATOM      9  C   UNL     1      -0.504   0.138  24.222  0.00  0.00    +0.017 C 
ATOM     10  C   UNL     1       0.166   0.538  24.487  0.00  0.00    +0.022 C 
ATOM     11  C   UNL     1       0.093   1.286  24.829  0.00  0.00    +0.093 C 
ATOM     12  N   UNL     1      -0.589   1.670  24.930  0.00  0.00    -0.278 N 
ATOM     13  C   UNL     1      -1.324   1.232  24.639  0.00  0.00    +0.098 C 
ATOM     14  C   UNL     1      -1.540   0.522  24.281  0.00  0.00    +0.042 C 
ATOM     15  C   UNL     1      -2.359   0.523  24.186  0.00  0.00    -0.026 C 
ATOM     16  C   UNL     1      -2.649   1.235  24.486  0.00  0.00    +0.016 C 
ATOM     17  C   UNL     1      -3.428   1.676  24.602  0.00  0.00    +0.231 C 
ATOM     18  O   UNL     1      -3.540   2.118  24.795  0.00  0.00    -0.471 OA
ATOM     19  C   UNL     1      -2.776   2.797  25.203  0.00  0.00    +0.136 A 
ATOM     20  C   UNL     1      -2.815   3.545  25.549  0.00  0.00    +0.030 A 
ATOM     21  C   UNL     1      -2.124   3.918  25.804  0.00  0.00    +0.119 C 
ATOM     22  N   UNL     1      -1.395   3.542  25.712  0.00  0.00    -0.204 NA
ATOM     23  C   UNL     1      -1.357   2.794  25.367  0.00  0.00    +0.174 C 
ATOM     24  C   UNL     1      -0.628   2.419  25.276  0.00  0.00    +0.243 C 
ATOM     25  O   UNL     1       0.063   2.791  25.531  0.00  0.00    -0.273 OA
ATOM     26  C   UNL     1      -3.544   3.921  25.639  0.00  0.00    +0.015 A 
ATOM     27  C   UNL     1      -4.234   3.548  25.384  0.00  0.00    +0.048 A 
ATOM     28  C   UNL     1      -4.196   2.799  25.038  0.00  0.00    +0.018 A 
ATOM     29  C   UNL     1      -3.467   2.424  24.948  0.00  0.00    +0.038 A 
ENDROOT
BRANCH  27  30
ATOM     30  N   UNL     1      -4.963   3.923  25.475  0.00  0.00    -0.305 N 
ATOM     31  C   UNL     1      -5.612   3.500  25.758  0.00  0.00    +0.110 C 
ATOM     32  C   UNL     1      -6.341   3.876  25.849  0.00  0.00    +0.110 C 
ATOM     33  N   UNL     1      -6.421   4.674  25.657  0.00  0.00    -0.214 NA
ATOM     34  C   UNL     1      -5.772   5.097  25.374  0.00  0.00    +0.110 C 
ATOM     35  C   UNL     1      -5.043   4.721  25.283  0.00  0.00    +0.110 C 
ENDBRANCH  27  30
BRANCH   9   8
ATOM      8  C   UNL     1      -0.394  -0.607  23.886  0.00  0.00    +0.087 C 
BRANCH   8   6
ATOM      5  N   UNL     1      -1.181  -1.780  24.101  0.00  0.00    -0.203 NA
ATOM      6  C   UNL     1      -0.559  -1.286  24.324  0.00  0.00    +0.241 C 
ATOM      7  O   UNL     1      -0.102  -1.472  24.985  0.00  0.00    -0.273 OA
BRANCH   5   4
ATOM      4  C   UNL     1      -1.346  -2.460  24.539  0.00  0.00    +0.147 C 
BRANCH   4   3
ATOM      3  C   UNL     1      -2.018  -2.907  24.370  0.00  0.00    +0.166 C 
BRANCH   3   2
ATOM      1  C   UNL     1      -3.417  -3.047  24.621  0.00  0.00    +0.174 C 
ATOM      2  O   UNL     1      -2.652  -2.916  24.898  0.00  0.00    -0.349 OA
ENDBRANCH   3   2
ENDBRANCH   4   3
ENDBRANCH   5   4
ENDBRANCH   8   6
ENDBRANCH   9   8
TORSDOF 6
ENDMDL
