MODEL 1
REMARK VINA RESULT:      -9.9      0.000      0.000
REMARK  Name = 
REMARK  6 active torsions:
REMARK  status: ('A' for Active; 'I' for Inactive)
REMARK    1  A    between atoms: O_2  and  C_3
REMARK    2  A    between atoms: C_6  and  N_7
REMARK    3  A    between atoms: N_10  and  C_11
REMARK    4  A    between atoms: C_11  and  C_12
REMARK    5  A    between atoms: C_19  and  C_20
REMARK    6  A    between atoms: C_22  and  C_26
REMARK                            x       y       z     vdW  Elec       q    Type
REMARK                         _______ _______ _______ _____ _____    ______ ____
ROOT
ATOM     12  C   UNL     1      -0.418   1.150  23.925  0.00  0.00    +0.079 C 
ATOM     13  C   UNL     1      -1.055   0.725  24.067  0.00  0.00    +0.018 C 
ATOM     14  C   UNL     1      -1.814   1.006  24.087  0.00  0.00    +0.010 C 
ATOM     15  C   UNL     1      -2.405   0.356  24.268  0.00  0.00    +0.018 C 
ATOM     16  C   UNL     1      -1.812   0.609  24.162  0.00  0.00    +0.072 C 
ATOM     17  N   UNL     1      -1.195   1.428  23.947  0.00  0.00    -0.272 NA
ATOM     18  C   UNL     1      -1.549   2.260  23.823  0.00  0.00    +0.078 C 
ATOM     19  C   UNL     1      -2.148   1.809  23.967  0.00  0.00    +0.056 C 
ENDROOT
BRANCH  19  20
ATOM     20  C   UNL     1      -2.942   2.030  24.002  0.00  0.00    +0.058 A 
ATOM     21  C   UNL     1      -3.442   1.939  24.652  0.00  0.00    +0.035 A 
ATOM     22  C   UNL     1      -4.184   2.233  24.445  0.00  0.00    +0.102 A 
ATOM     23  N   UNL     1      -4.143   2.505  23.667  0.00  0.00    -0.170 NA
ATOM     24  N   UNL     1      -3.375   2.380  23.393  0.00  0.00    -0.253 N 
ATOM     25  C   UNL     1      -3.090   2.570  22.643  0.00  0.00    +0.153 C 
BRANCH  22  26
ATOM     26  C   UNL     1      -4.851   2.251  24.930  0.00  0.00    +0.019 A 
ATOM     27  C   UNL     1      -4.934   2.847  25.496  0.00  0.00    +0.002 A 
ATOM     28  C   UNL     1      -5.601   2.866  25.981  0.00  0.00    +0.000 A 
ATOM     29  C   UNL     1      -6.185   2.289  25.901  0.00  0.00    +0.000 A 
ATOM     30  C   UNL     1      -6.103   1.694  25.335  0.00  0.00    +0.000 A 
ATOM     31  C   UNL     1      -5.436   1.675  24.850  0.00  0.00    +0.002 A 
ENDBRANCH  22  26
ENDBRANCH  19  20
BRANCH  12  11
ATOM     11  C   UNL     1       0.395   1.247  23.828  0.00  0.00    +0.133 C 
BRANCH  11  10
ATOM      7  N   UNL     1       2.059   0.226  22.852  0.00  0.00    -0.161 NA
ATOM      8  C   UNL     1       1.640   0.734  23.348  0.00  0.00    +0.344 C 
ATOM      9  O   UNL     1       2.044   1.236  23.862  0.00  0.00    -0.249 OA
ATOM     10  N   UNL     1       0.814   0.739  23.331  0.00  0.00    -0.185 NA
BRANCH   7   6
ATOM      3  C   UNL     1       4.533   0.209  22.903  0.00  0.00    +0.139 A 
ATOM      4  C   UNL     1       4.132   0.835  22.545  0.00  0.00    +0.038 A 
ATOM      5  C   UNL     1       3.307   0.841  22.528  0.00  0.00    +0.020 A 
ATOM      6  C   UNL     1       2.884   0.221  22.869  0.00  0.00    +0.075 A 
ATOM     32  C   UNL     1       3.285  -0.405  23.227  0.00  0.00    +0.020 A 
ATOM     33  C   UNL     1       4.109  -0.411  23.244  0.00  0.00    +0.038 A 
BRANCH   3   2
ATOM      1  C   UNL     1       5.756   0.172  23.643  0.00  0.00    +0.252 C 
ATOM      2  O   UNL     1       5.358   0.204  22.920  0.00  0.00    -0.471 OA
ENDBRANCH   3   2
ENDBRANCH   7   6
ENDBRANCH  11  10
ENDBRANCH  12  11
TORSDOF 6
ENDMDL
MODEL 2
REMARK VINA RESULT:      -8.0      1.932      7.492
REMARK  Name = 
REMARK  6 active torsions:
REMARK  status: ('A' for Active; 'I' for Inactive)
REMARK    1  A    between atoms: O_2  and  C_3
REMARK    2  A    between atoms: C_6  and  N_7
REMARK    3  A    between atoms: N_10  and  C_11
REMARK    4  A    between atoms: C_11  and  C_12
REMARK    5  A    between atoms: C_19  and  C_20
REMARK    6  A    between atoms: C_22  and  C_26
REMARK                            x       y       z     vdW  Elec       q    Type
REMARK                         _______ _______ _______ _____ _____    ______ ____
ROOT
ATOM     12  C   UNL     1      -0.780   0.714  24.044  0.00  0.00    +0.079 C 
ATOM     13  C   UNL     1      -0.158   1.182  24.030  0.00  0.00    +0.018 C 
ATOM     14  C   UNL     1       0.565   0.997  23.716  0.00  0.00    +0.010 C 
ATOM     15  C   UNL     1       1.148   1.673  23.799  0.00  0.00    +0.018 C 
ATOM     16  C   UNL     1       0.572   1.372  23.866  0.00  0.00    +0.072 C 
ATOM     17  N   UNL     1      -0.040   0.533  23.726  0.00  0.00    -0.272 NA
ATOM     18  C   UNL     1       0.281  -0.217  23.316  0.00  0.00    +0.078 C 
ATOM     19  C   UNL     1       0.867   0.273  23.322  0.00  0.00    +0.056 C 
ENDROOT
BRANCH  19  20
ATOM     20  C   UNL     1       1.625   0.148  23.021  0.00  0.00    +0.058 A 
ATOM     21  C   UNL     1       2.332   0.256  23.431  0.00  0.00    +0.035 A 
ATOM     22  C   UNL     1       2.953   0.068  22.921  0.00  0.00    +0.102 A 
ATOM     23  N   UNL     1       2.629  -0.157  22.197  0.00  0.00    -0.170 NA
ATOM     24  N   UNL     1       1.808  -0.107  22.258  0.00  0.00    -0.253 N 
ATOM     25  C   UNL     1       1.264  -0.282  21.662  0.00  0.00    +0.153 C 
BRANCH  22  26
ATOM     26  C   UNL     1       3.757   0.099  23.103  0.00  0.00    +0.019 A 
ATOM     27  C   UNL     1       4.120  -0.541  23.477  0.00  0.00    +0.002 A 
ATOM     28  C   UNL     1       4.924  -0.510  23.659  0.00  0.00    +0.000 A 
ATOM     29  C   UNL     1       5.366   0.160  23.468  0.00  0.00    +0.000 A 
ATOM     30  C   UNL     1       5.002   0.800  23.094  0.00  0.00    +0.000 A 
ATOM     31  C   UNL     1       4.198   0.769  22.912  0.00  0.00    +0.002 A 
ENDBRANCH  22  26
ENDBRANCH  19  20
BRANCH  12  11
ATOM     11  C   UNL     1      -1.563   0.537  24.230  0.00  0.00    +0.133 C 
BRANCH  11  10
ATOM      7  N   UNL     1      -3.483   1.537  23.949  0.00  0.00    -0.161 NA
ATOM      8  C   UNL     1      -2.869   1.113  24.301  0.00  0.00    +0.344 C 
ATOM      9  O   UNL     1      -2.947   0.843  25.076  0.00  0.00    -0.249 OA
ATOM     10  N   UNL     1      -2.177   0.961  23.878  0.00  0.00    -0.185 NA
BRANCH   7   6
ATOM      3  C   UNL     1      -5.558   1.995  25.216  0.00  0.00    +0.139 A 
ATOM      4  C   UNL     1      -5.038   2.611  25.041  0.00  0.00    +0.038 A 
ATOM      5  C   UNL     1      -4.346   2.458  24.618  0.00  0.00    +0.020 A 
ATOM      6  C   UNL     1      -4.174   1.690  24.371  0.00  0.00    +0.075 A 
ATOM     32  C   UNL     1      -4.695   1.074  24.547  0.00  0.00    +0.020 A 
ATOM     33  C   UNL     1      -5.386   1.227  24.970  0.00  0.00    +0.038 A 
BRANCH   3   2
ATOM      1  C   UNL     1      -6.268   2.032  26.456  0.00  0.00    +0.252 C 
ATOM      2  O   UNL     1      -6.250   2.149  25.639  0.00  0.00    -0.471 OA
ENDBRANCH   3   2
ENDBRANCH   7   6
ENDBRANCH  11  10
ENDBRANCH  12  11
TORSDOF 6
ENDMDL
MODEL 3
REMARK VINA RESULT:      -6.6     15.173     15.955
REMARK  Name = 
REMARK  6 active torsions:
REMARK  status: ('A' for Active; 'I' for Inactive)
REMARK    1  A    between atoms: O_2  and  C_3
REMARK    2  A    between atoms: C_6  and  N_7
REMARK    3  A    between atoms: N_10  and  C_11
REMARK    4  A    between atoms: C_11  and  C_12
REMARK    5  A    between atoms: C_19  and  C_20
REMARK    6  A    between atoms: C_22  and  C_26
REMARK                            x       y       z     vdW  Elec       q    Type
REMARK                         _______ _______ _______ _____ _____    ______ ____
ROOT
ATOM     12  C   UNL     1      -5.322 -10.248  14.350  0.00  0.00    +0.079 C 
ATOM     13  C   UNL     1      -4.994 -10.034  15.022  0.00  0.00    +0.018 C 
ATOM     14  C   UNL     1      -5.371  -9.982  15.736  0.00  0.00    +0.010 C 
ATOM     15  C   UNL     1      -4.816  -9.718  16.389  0.00  0.00    +0.018 C 
ATOM     16  C   UNL     1      -4.982  -9.880  15.779  0.00  0.00    +0.072 C 
ATOM     17  N   UNL     1      -5.701 -10.192  15.082  0.00  0.00    -0.272 NA
ATOM     18  C   UNL     1      -6.563 -10.347  15.336  0.00  0.00    +0.078 C 
ATOM     19  C   UNL     1      -6.203 -10.133  15.974  0.00  0.00    +0.056 C 
ENDROOT
BRANCH  19  20
ATOM     20  C   UNL     1      -6.527 -10.059  16.730  0.00  0.00    +0.058 A 
ATOM     21  C   UNL     1      -6.216 -10.378  17.424  0.00  0.00    +0.035 A 
ATOM     22  C   UNL     1      -6.715 -10.170  18.046  0.00  0.00    +0.102 A 
ATOM     23  N   UNL     1      -7.335  -9.721  17.737  0.00  0.00    -0.170 NA
ATOM     24  N   UNL     1      -7.218  -9.653  16.923  0.00  0.00    -0.253 N 
ATOM     25  C   UNL     1      -7.707  -9.249  16.395  0.00  0.00    +0.153 C 
BRANCH  22  26
ATOM     26  C   UNL     1      -6.614 -10.373  18.839  0.00  0.00    +0.019 A 
ATOM     27  C   UNL     1      -7.268 -10.576  19.300  0.00  0.00    +0.002 A 
ATOM     28  C   UNL     1      -7.166 -10.780  20.093  0.00  0.00    +0.000 A 
ATOM     29  C   UNL     1      -6.411 -10.781  20.426  0.00  0.00    +0.000 A 
ATOM     30  C   UNL     1      -5.757 -10.578  19.964  0.00  0.00    +0.000 A 
ATOM     31  C   UNL     1      -5.859 -10.375  19.172  0.00  0.00    +0.002 A 
ENDBRANCH  22  26
ENDBRANCH  19  20
BRANCH  12  11
ATOM     11  C   UNL     1      -5.306 -10.406  13.541  0.00  0.00    +0.133 C 
BRANCH  11  10
ATOM      7  N   UNL     1      -4.178  -9.779  11.782  0.00  0.00    -0.161 NA
ATOM      8  C   UNL     1      -4.782 -10.088  12.251  0.00  0.00    +0.344 C 
ATOM      9  O   UNL     1      -5.466 -10.385  11.899  0.00  0.00    -0.249 OA
ATOM     10  N   UNL     1      -4.702 -10.098  13.072  0.00  0.00    -0.185 NA
BRANCH   7   6
ATOM      3  C   UNL     1      -4.416  -9.747   9.319  0.00  0.00    +0.139 A 
ATOM      4  C   UNL     1      -4.091 -10.406   9.693  0.00  0.00    +0.038 A 
ATOM      5  C   UNL     1      -4.012 -10.417  10.514  0.00  0.00    +0.020 A 
ATOM      6  C   UNL     1      -4.257  -9.769  10.961  0.00  0.00    +0.075 A 
ATOM     32  C   UNL     1      -4.582  -9.109  10.586  0.00  0.00    +0.020 A 
ATOM     33  C   UNL     1      -4.661  -9.098   9.766  0.00  0.00    +0.038 A 
BRANCH   3   2
ATOM      1  C   UNL     1      -5.246  -9.755   8.155  0.00  0.00    +0.252 C 
ATOM      2  O   UNL     1      -4.495  -9.737   8.497  0.00  0.00    -0.471 OA
ENDBRANCH   3   2
ENDBRANCH   7   6
ENDBRANCH  11  10
ENDBRANCH  12  11
TORSDOF 6
ENDMDL
