MODEL 1
REMARK VINA RESULT:     -10.1      0.000      0.000
REMARK  Name = 
REMARK  6 active torsions:
REMARK  status: ('A' for Active; 'I' for Inactive)
REMARK    1  A    between atoms: C_4  and  C_28
REMARK    2  A    between atoms: C_6  and  C_7
REMARK    3  A    between atoms: C_14  and  C_15
REMARK    4  A    between atoms: C_15  and  N_16
REMARK    5  A    between atoms: N_19  and  C_20
REMARK    6  A    between atoms: C_22  and  C_26
REMARK                            x       y       z     vdW  Elec       q    Type
REMARK                         _______ _______ _______ _____ _____    ______ ____
ROOT
ATOM      7  C   UNL     1      -1.814   1.712  23.892  0.00  0.00    +0.056 C 
ATOM      8  C   UNL     1      -1.311   2.284  23.736  0.00  0.00    +0.078 C 
ATOM      9  N   UNL     1      -1.120   1.497  23.895  0.00  0.00    -0.272 NA
ATOM     10  C   UNL     1      -2.021   0.988  24.062  0.00  0.00    +0.072 C 
ATOM     11  C   UNL     1      -2.346   0.438  24.202  0.00  0.00    +0.018 C 
ATOM     12  C   UNL     1      -1.620   0.942  24.047  0.00  0.00    +0.010 C 
ATOM     13  C   UNL     1      -0.847   0.527  24.088  0.00  0.00    +0.018 C 
ATOM     14  C   UNL     1      -0.320   1.060  23.939  0.00  0.00    +0.079 C 
ENDROOT
BRANCH   7   6
ATOM      1  C   UNL     1      -2.805   2.170  22.466  0.00  0.00    +0.153 C 
ATOM      2  N   UNL     1      -3.072   2.117  23.245  0.00  0.00    -0.253 N 
ATOM      3  N   UNL     1      -3.841   2.266  23.506  0.00  0.00    -0.174 NA
ATOM      4  C   UNL     1      -3.861   2.147  24.322  0.00  0.00    +0.079 A 
ATOM      5  C   UNL     1      -3.105   1.925  24.566  0.00  0.00    +0.031 A 
ATOM      6  C   UNL     1      -2.617   1.907  23.900  0.00  0.00    +0.058 A 
BRANCH   4  28
ATOM     28  C   UNL     1      -4.521   2.235  24.808  0.00  0.00    +0.042 C 
ATOM     29  C   UNL     1      -4.590   2.897  25.294  0.00  0.00    +0.006 C 
ATOM     30  C   UNL     1      -5.251   2.984  25.780  0.00  0.00    +0.000 C 
ATOM     31  C   UNL     1      -5.842   2.409  25.780  0.00  0.00    +0.000 C 
ATOM     32  C   UNL     1      -5.773   1.746  25.294  0.00  0.00    +0.000 C 
ATOM     33  C   UNL     1      -5.113   1.659  24.808  0.00  0.00    +0.006 C 
ENDBRANCH   4  28
ENDBRANCH   7   6
BRANCH  14  15
ATOM     15  C   UNL     1       0.493   1.172  23.864  0.00  0.00    +0.133 C 
BRANCH  15  16
ATOM     16  N   UNL     1       0.950   0.620  23.456  0.00  0.00    -0.185 NA
ATOM     17  C   UNL     1       1.764   0.733  23.383  0.00  0.00    +0.344 C 
ATOM     18  O   UNL     1       2.121   1.397  23.717  0.00  0.00    -0.249 OA
ATOM     19  N   UNL     1       2.221   0.180  22.976  0.00  0.00    -0.161 NA
BRANCH  19  20
ATOM     20  C   UNL     1       3.036   0.292  22.902  0.00  0.00    +0.076 A 
ATOM     21  C   UNL     1       3.557  -0.162  23.352  0.00  0.00    +0.027 A 
ATOM     22  C   UNL     1       4.371  -0.050  23.279  0.00  0.00    +0.070 A 
ATOM     23  C   UNL     1       4.663   0.517  22.755  0.00  0.00    +0.010 A 
ATOM     24  C   UNL     1       4.142   0.971  22.305  0.00  0.00    +0.002 A 
ATOM     25  C   UNL     1       3.329   0.858  22.379  0.00  0.00    +0.017 A 
BRANCH  22  26
ATOM     26  C   UNL     1       4.893  -0.504  23.729  0.00  0.00    +0.100 C 
ATOM     27  N   UNL     1       5.414  -0.959  24.178  0.00  0.00    -0.191 NA
ENDBRANCH  22  26
ENDBRANCH  19  20
ENDBRANCH  15  16
ENDBRANCH  14  15
TORSDOF 6
ENDMDL
MODEL 2
REMARK VINA RESULT:      -8.7      4.050      5.483
REMARK  Name = 
REMARK  6 active torsions:
REMARK  status: ('A' for Active; 'I' for Inactive)
REMARK    1  A    between atoms: C_4  and  C_28
REMARK    2  A    between atoms: C_6  and  C_7
REMARK    3  A    between atoms: C_14  and  C_15
REMARK    4  A    between atoms: C_15  and  N_16
REMARK    5  A    between atoms: N_19  and  C_20
REMARK    6  A    between atoms: C_22  and  C_26
REMARK                            x       y       z     vdW  Elec       q    Type
REMARK                         _______ _______ _______ _____ _____    ______ ____
ROOT
ATOM      7  C   UNL     1      -3.698   2.648  25.234  0.00  0.00    +0.056 C 
ATOM      8  C   UNL     1      -3.559   2.015  25.666  0.00  0.00    +0.078 C 
ATOM      9  N   UNL     1      -4.104   2.074  25.049  0.00  0.00    -0.272 NA
ATOM     10  C   UNL     1      -4.046   3.052  24.676  0.00  0.00    +0.072 C 
ATOM     11  C   UNL     1      -4.243   3.513  24.257  0.00  0.00    +0.018 C 
ATOM     12  C   UNL     1      -4.235   2.698  24.630  0.00  0.00    +0.010 C 
ATOM     13  C   UNL     1      -4.792   2.111  24.288  0.00  0.00    +0.018 C 
ATOM     14  C   UNL     1      -4.686   1.470  24.689  0.00  0.00    +0.079 C 
ENDROOT
BRANCH   7   6
ATOM      1  C   UNL     1      -4.029   3.811  26.561  0.00  0.00    +0.153 C 
ATOM      2  N   UNL     1      -3.412   3.860  26.016  0.00  0.00    -0.253 N 
ATOM      3  N   UNL     1      -2.839   4.453  25.984  0.00  0.00    -0.174 NA
ATOM      4  C   UNL     1      -2.333   4.285  25.355  0.00  0.00    +0.079 A 
ATOM      5  C   UNL     1      -2.593   3.589  24.997  0.00  0.00    +0.031 A 
ATOM      6  C   UNL     1      -3.260   3.326  25.406  0.00  0.00    +0.058 A 
BRANCH   4  28
ATOM     28  C   UNL     1      -1.681   4.735  25.124  0.00  0.00    +0.042 C 
ATOM     29  C   UNL     1      -1.749   5.554  25.054  0.00  0.00    +0.006 C 
ATOM     30  C   UNL     1      -1.097   6.004  24.823  0.00  0.00    +0.000 C 
ATOM     31  C   UNL     1      -0.377   5.635  24.662  0.00  0.00    +0.000 C 
ATOM     32  C   UNL     1      -0.309   4.816  24.732  0.00  0.00    +0.000 C 
ATOM     33  C   UNL     1      -0.961   4.366  24.963  0.00  0.00    +0.006 C 
ENDBRANCH   4  28
ENDBRANCH   7   6
BRANCH  14  15
ATOM     15  C   UNL     1      -4.945   0.690  24.756  0.00  0.00    +0.133 C 
BRANCH  15  16
ATOM     16  N   UNL     1      -4.725   0.132  24.189  0.00  0.00    -0.185 NA
ATOM     17  C   UNL     1      -4.355  -0.567  24.423  0.00  0.00    +0.344 C 
ATOM     18  O   UNL     1      -4.205  -0.709  25.221  0.00  0.00    -0.249 OA
ATOM     19  N   UNL     1      -4.135  -1.126  23.857  0.00  0.00    -0.161 NA
BRANCH  19  20
ATOM     20  C   UNL     1      -3.765  -1.826  24.089  0.00  0.00    +0.076 A 
ATOM     21  C   UNL     1      -2.960  -1.826  24.271  0.00  0.00    +0.027 A 
ATOM     22  C   UNL     1      -2.590  -2.526  24.504  0.00  0.00    +0.070 A 
ATOM     23  C   UNL     1      -3.026  -3.225  24.554  0.00  0.00    +0.010 A 
ATOM     24  C   UNL     1      -3.830  -3.225  24.373  0.00  0.00    +0.002 A 
ATOM     25  C   UNL     1      -4.200  -2.525  24.140  0.00  0.00    +0.017 A 
BRANCH  22  26
ATOM     26  C   UNL     1      -1.786  -2.526  24.685  0.00  0.00    +0.100 C 
ATOM     27  N   UNL     1      -0.981  -2.526  24.868  0.00  0.00    -0.191 NA
ENDBRANCH  22  26
ENDBRANCH  19  20
ENDBRANCH  15  16
ENDBRANCH  14  15
TORSDOF 6
ENDMDL
MODEL 3
REMARK VINA RESULT:      -8.3      1.380      7.249
REMARK  Name = 
REMARK  6 active torsions:
REMARK  status: ('A' for Active; 'I' for Inactive)
REMARK    1  A    between atoms: C_4  and  C_28
REMARK    2  A    between atoms: C_6  and  C_7
REMARK    3  A    between atoms: C_14  and  C_15
REMARK    4  A    between atoms: C_15  and  N_16
REMARK    5  A    between atoms: N_19  and  C_20
REMARK    6  A    between atoms: C_22  and  C_26
REMARK                            x       y       z     vdW  Elec       q    Type
REMARK                         _______ _______ _______ _____ _____    ______ ____
ROOT
ATOM      7  C   UNL     1       0.761   0.210  23.347  0.00  0.00    +0.056 C 
ATOM      8  C   UNL     1       0.274  -0.397  23.345  0.00  0.00    +0.078 C 
ATOM      9  N   UNL     1       0.111   0.359  23.635  0.00  0.00    -0.272 NA
ATOM     10  C   UNL     1       0.972   0.939  23.490  0.00  0.00    +0.072 C 
ATOM     11  C   UNL     1       1.290   1.507  23.544  0.00  0.00    +0.018 C 
ATOM     12  C   UNL     1       0.594   0.949  23.634  0.00  0.00    +0.010 C 
ATOM     13  C   UNL     1      -0.127   1.286  24.004  0.00  0.00    +0.018 C 
ATOM     14  C   UNL     1      -0.635   0.717  24.021  0.00  0.00    +0.079 C 
ENDROOT
BRANCH   7   6
ATOM      1  C   UNL     1       1.131  -0.322  21.672  0.00  0.00    +0.153 C 
ATOM      2  N   UNL     1       1.684  -0.154  22.261  0.00  0.00    -0.253 N 
ATOM      3  N   UNL     1       2.504  -0.201  22.184  0.00  0.00    -0.174 NA
ATOM      4  C   UNL     1       2.842   0.014  22.905  0.00  0.00    +0.079 A 
ATOM      5  C   UNL     1       2.230   0.194  23.428  0.00  0.00    +0.031 A 
ATOM      6  C   UNL     1       1.515   0.090  23.030  0.00  0.00    +0.058 A 
BRANCH   4  28
ATOM     28  C   UNL     1       3.649   0.044  23.073  0.00  0.00    +0.042 C 
ATOM     29  C   UNL     1       4.092   0.704  22.852  0.00  0.00    +0.006 C 
ATOM     30  C   UNL     1       4.899   0.733  23.020  0.00  0.00    +0.000 C 
ATOM     31  C   UNL     1       5.262   0.103  23.409  0.00  0.00    +0.000 C 
ATOM     32  C   UNL     1       4.819  -0.557  23.630  0.00  0.00    +0.000 C 
ATOM     33  C   UNL     1       4.012  -0.586  23.462  0.00  0.00    +0.006 C 
ENDBRANCH   4  28
ENDBRANCH   7   6
BRANCH  14  15
ATOM     15  C   UNL     1      -1.405   0.534  24.252  0.00  0.00    +0.133 C 
BRANCH  15  16
ATOM     16  N   UNL     1      -2.041   0.961  23.946  0.00  0.00    -0.185 NA
ATOM     17  C   UNL     1      -2.745   1.013  24.372  0.00  0.00    +0.344 C 
ATOM     18  O   UNL     1      -2.814   0.638  25.104  0.00  0.00    -0.249 OA
ATOM     19  N   UNL     1      -3.381   1.440  24.066  0.00  0.00    -0.161 NA
BRANCH  19  20
ATOM     20  C   UNL     1      -4.086   1.493  24.492  0.00  0.00    +0.076 A 
ATOM     21  C   UNL     1      -4.338   2.222  24.783  0.00  0.00    +0.027 A 
ATOM     22  C   UNL     1      -5.043   2.275  25.209  0.00  0.00    +0.070 A 
ATOM     23  C   UNL     1      -5.495   1.598  25.342  0.00  0.00    +0.010 A 
ATOM     24  C   UNL     1      -5.243   0.868  25.051  0.00  0.00    +0.002 A 
ATOM     25  C   UNL     1      -4.538   0.816  24.626  0.00  0.00    +0.017 A 
BRANCH  22  26
ATOM     26  C   UNL     1      -5.296   3.004  25.500  0.00  0.00    +0.100 C 
ATOM     27  N   UNL     1      -5.548   3.734  25.792  0.00  0.00    -0.191 NA
ENDBRANCH  22  26
ENDBRANCH  19  20
ENDBRANCH  15  16
ENDBRANCH  14  15
TORSDOF 6
ENDMDL
MODEL 4
REMARK VINA RESULT:      -7.9      2.000      2.759
REMARK  Name = 
REMARK  6 active torsions:
REMARK  status: ('A' for Active; 'I' for Inactive)
REMARK    1  A    between atoms: C_4  and  C_28
REMARK    2  A    between atoms: C_6  and  C_7
REMARK    3  A    between atoms: C_14  and  C_15
REMARK    4  A    between atoms: C_15  and  N_16
REMARK    5  A    between atoms: N_19  and  C_20
REMARK    6  A    between atoms: C_22  and  C_26
REMARK                            x       y       z     vdW  Elec       q    Type
REMARK                         _______ _______ _______ _____ _____    ______ ____
ROOT
ATOM      7  C   UNL     1      -1.014  -0.065  24.416  0.00  0.00    +0.056 C 
ATOM      8  C   UNL     1      -0.304  -0.358  24.540  0.00  0.00    +0.078 C 
ATOM      9  N   UNL     1      -0.477   0.363  24.177  0.00  0.00    -0.272 NA
ATOM     10  C   UNL     1      -1.520   0.461  24.165  0.00  0.00    +0.072 C 
ATOM     11  C   UNL     1      -2.057   0.800  24.011  0.00  0.00    +0.018 C 
ATOM     12  C   UNL     1      -1.175   0.644  24.058  0.00  0.00    +0.010 C 
ATOM     13  C   UNL     1      -0.655   1.264  23.721  0.00  0.00    +0.018 C 
ATOM     14  C   UNL     1       0.059   1.012  23.824  0.00  0.00    +0.079 C 
ENDROOT
BRANCH   7   6
ATOM      1  C   UNL     1      -1.540  -0.289  26.118  0.00  0.00    +0.153 C 
ATOM      2  N   UNL     1      -1.899  -0.617  25.452  0.00  0.00    -0.253 N 
ATOM      3  N   UNL     1      -2.564  -1.106  25.451  0.00  0.00    -0.174 NA
ATOM      4  C   UNL     1      -2.734  -1.305  24.669  0.00  0.00    +0.079 A 
ATOM      5  C   UNL     1      -2.174  -0.940  24.186  0.00  0.00    +0.031 A 
ATOM      6  C   UNL     1      -1.658  -0.514  24.670  0.00  0.00    +0.058 A 
BRANCH   4  28
ATOM     28  C   UNL     1      -3.354  -1.786  24.415  0.00  0.00    +0.042 C 
ATOM     29  C   UNL     1      -3.284  -2.606  24.457  0.00  0.00    +0.006 C 
ATOM     30  C   UNL     1      -3.905  -3.086  24.202  0.00  0.00    +0.000 C 
ATOM     31  C   UNL     1      -4.595  -2.746  23.906  0.00  0.00    +0.000 C 
ATOM     32  C   UNL     1      -4.665  -1.925  23.865  0.00  0.00    +0.000 C 
ATOM     33  C   UNL     1      -4.045  -1.445  24.119  0.00  0.00    +0.006 C 
ENDBRANCH   4  28
ENDBRANCH   7   6
BRANCH  14  15
ATOM     15  C   UNL     1       0.848   1.211  23.693  0.00  0.00    +0.133 C 
BRANCH  15  16
ATOM     16  N   UNL     1       1.333   0.709  23.253  0.00  0.00    -0.185 NA
ATOM     17  C   UNL     1       2.152   0.792  23.288  0.00  0.00    +0.344 C 
ATOM     18  O   UNL     1       2.488   1.377  23.763  0.00  0.00    -0.249 OA
ATOM     19  N   UNL     1       2.637   0.290  22.848  0.00  0.00    -0.161 NA
BRANCH  19  20
ATOM     20  C   UNL     1       3.457   0.373  22.883  0.00  0.00    +0.076 A 
ATOM     21  C   UNL     1       3.902  -0.123  23.369  0.00  0.00    +0.027 A 
ATOM     22  C   UNL     1       4.722  -0.040  23.404  0.00  0.00    +0.070 A 
ATOM     23  C   UNL     1       5.097   0.540  22.952  0.00  0.00    +0.010 A 
ATOM     24  C   UNL     1       4.653   1.036  22.465  0.00  0.00    +0.002 A 
ATOM     25  C   UNL     1       3.833   0.952  22.431  0.00  0.00    +0.017 A 
BRANCH  22  26
ATOM     26  C   UNL     1       5.167  -0.536  23.891  0.00  0.00    +0.100 C 
ATOM     27  N   UNL     1       5.611  -1.033  24.378  0.00  0.00    -0.191 NA
ENDBRANCH  22  26
ENDBRANCH  19  20
ENDBRANCH  15  16
ENDBRANCH  14  15
TORSDOF 6
ENDMDL
MODEL 5
REMARK VINA RESULT:      -6.4     17.153     17.973
REMARK  Name = 
REMARK  6 active torsions:
REMARK  status: ('A' for Active; 'I' for Inactive)
REMARK    1  A    between atoms: C_4  and  C_28
REMARK    2  A    between atoms: C_6  and  C_7
REMARK    3  A    between atoms: C_14  and  C_15
REMARK    4  A    between atoms: C_15  and  N_16
REMARK    5  A    between atoms: N_19  and  C_20
REMARK    6  A    between atoms: C_22  and  C_26
REMARK                            x       y       z     vdW  Elec       q    Type
REMARK                         _______ _______ _______ _____ _____    ______ ____
ROOT
ATOM      7  C   UNL     1      -7.158  -8.567   9.405  0.00  0.00    +0.056 C 
ATOM      8  C   UNL     1      -6.482  -8.526   9.022  0.00  0.00    +0.078 C 
ATOM      9  N   UNL     1      -6.597  -8.842   9.776  0.00  0.00    -0.272 NA
ATOM     10  C   UNL     1      -7.617  -8.745  10.000  0.00  0.00    +0.072 C 
ATOM     11  C   UNL     1      -8.119  -8.832  10.409  0.00  0.00    +0.018 C 
ATOM     12  C   UNL     1      -7.263  -8.879  10.145  0.00  0.00    +0.010 C 
ATOM     13  C   UNL     1      -6.703  -9.243  10.714  0.00  0.00    +0.018 C 
ATOM     14  C   UNL     1      -6.021  -9.222  10.373  0.00  0.00    +0.079 C 
ENDROOT
BRANCH   7   6
ATOM      1  C   UNL     1      -8.123  -9.407   8.145  0.00  0.00    +0.153 C 
ATOM      2  N   UNL     1      -8.270  -8.653   8.445  0.00  0.00    -0.253 N 
ATOM      3  N   UNL     1      -8.885  -8.152   8.220  0.00  0.00    -0.174 NA
ATOM      4  C   UNL     1      -8.823  -7.456   8.659  0.00  0.00    +0.079 A 
ATOM      5  C   UNL     1      -8.169  -7.527   9.156  0.00  0.00    +0.031 A 
ATOM      6  C   UNL     1      -7.827  -8.266   9.024  0.00  0.00    +0.058 A 
BRANCH   4  28
ATOM     28  C   UNL     1      -9.326  -6.805   8.610  0.00  0.00    +0.042 C 
ATOM     29  C   UNL     1     -10.129  -6.891   8.777  0.00  0.00    +0.006 C 
ATOM     30  C   UNL     1     -10.632  -6.239   8.727  0.00  0.00    +0.000 C 
ATOM     31  C   UNL     1     -10.333  -5.501   8.510  0.00  0.00    +0.000 C 
ATOM     32  C   UNL     1      -9.530  -5.416   8.343  0.00  0.00    +0.000 C 
ATOM     33  C   UNL     1      -9.026  -6.067   8.392  0.00  0.00    +0.006 C 
ENDBRANCH   4  28
ENDBRANCH   7   6
BRANCH  14  15
ATOM     15  C   UNL     1      -5.229  -9.424  10.481  0.00  0.00    +0.133 C 
BRANCH  15  16
ATOM     16  N   UNL     1      -5.021  -9.999  11.034  0.00  0.00    -0.185 NA
ATOM     17  C   UNL     1      -4.250 -10.032  11.325  0.00  0.00    +0.344 C 
ATOM     18  O   UNL     1      -3.686  -9.489  11.063  0.00  0.00    -0.249 OA
ATOM     19  N   UNL     1      -4.042 -10.607  11.878  0.00  0.00    -0.161 NA
BRANCH  19  20
ATOM     20  C   UNL     1      -3.271 -10.640  12.170  0.00  0.00    +0.076 A 
ATOM     21  C   UNL     1      -3.134 -10.593  12.982  0.00  0.00    +0.027 A 
ATOM     22  C   UNL     1      -2.363 -10.626  13.273  0.00  0.00    +0.070 A 
ATOM     23  C   UNL     1      -1.728 -10.707  12.752  0.00  0.00    +0.010 A 
ATOM     24  C   UNL     1      -1.865 -10.755  11.939  0.00  0.00    +0.002 A 
ATOM     25  C   UNL     1      -2.636 -10.721  11.649  0.00  0.00    +0.017 A 
BRANCH  22  26
ATOM     26  C   UNL     1      -2.226 -10.578  14.085  0.00  0.00    +0.100 C 
ATOM     27  N   UNL     1      -2.089 -10.529  14.898  0.00  0.00    -0.191 NA
ENDBRANCH  22  26
ENDBRANCH  19  20
ENDBRANCH  15  16
ENDBRANCH  14  15
TORSDOF 6
ENDMDL
