MODEL 1
REMARK VINA RESULT:     -12.1      0.000      0.000
REMARK  Name = 
REMARK  2 active torsions:
REMARK  status: ('A' for Active; 'I' for Inactive)
REMARK    1  A    between atoms: N_3  and  C_4
REMARK    2  A    between atoms: N_16  and  C_17
REMARK                            x       y       z     vdW  Elec       q    Type
REMARK                         _______ _______ _______ _____ _____    ______ ____
ROOT
ATOM      1  O   UNL     1      -2.342  -0.519  24.749  0.00  0.00    -0.250 OA
ATOM      2  C   UNL     1      -3.060  -0.119  24.677  0.00  0.00    +0.328 C 
ATOM      3  N   UNL     1      -3.762  -0.542  24.587  0.00  0.00    -0.162 NA
ATOM     10  N   UNL     1      -3.076   0.707  24.694  0.00  0.00    -0.259 N 
ATOM     11  C   UNL     1      -3.793   1.107  24.621  0.00  0.00    +0.117 C 
ATOM     12  C   UNL     1      -3.808   1.931  24.638  0.00  0.00    +0.117 C 
ATOM     13  N   UNL     1      -3.106   2.356  24.728  0.00  0.00    -0.261 N 
ATOM     14  C   UNL     1      -2.389   1.955  24.801  0.00  0.00    +0.117 C 
ATOM     15  C   UNL     1      -1.791   2.517  24.882  0.00  0.00    +0.116 C 
ATOM     16  N   UNL     1      -2.138   3.264  24.859  0.00  0.00    -0.264 N 
ATOM     23  C   UNL     1      -2.951   3.165  24.764  0.00  0.00    +0.307 C 
ATOM     24  O   UNL     1      -3.511   3.769  24.714  0.00  0.00    -0.252 OA
ATOM     25  C   UNL     1      -2.373   1.130  24.784  0.00  0.00    +0.117 C 
ENDROOT
BRANCH   3   4
ATOM      4  C   UNL     1      -3.746  -1.367  24.570  0.00  0.00    +0.075 A 
ATOM      5  C   UNL     1      -3.490  -1.789  25.231  0.00  0.00    +0.017 A 
ATOM      6  C   UNL     1      -3.475  -2.613  25.214  0.00  0.00    +0.001 A 
ATOM      7  C   UNL     1      -3.715  -3.017  24.535  0.00  0.00    +0.000 A 
ATOM      8  C   UNL     1      -3.972  -2.595  23.874  0.00  0.00    +0.001 A 
ATOM      9  C   UNL     1      -3.987  -1.770  23.891  0.00  0.00    +0.017 A 
ENDBRANCH   3   4
BRANCH  16  17
ATOM     17  C   UNL     1      -1.741   3.985  24.921  0.00  0.00    +0.082 C 
ATOM     18  C   UNL     1      -2.087   4.613  25.330  0.00  0.00    +0.052 C 
ATOM     19  C   UNL     1      -1.691   5.334  25.392  0.00  0.00    +0.144 C 
ATOM     20  O   UNL     1      -0.948   5.427  25.044  0.00  0.00    -0.354 OA
ATOM     21  C   UNL     1      -0.602   4.800  24.636  0.00  0.00    +0.144 C 
ATOM     22  C   UNL     1      -0.999   4.079  24.574  0.00  0.00    +0.052 C 
ENDBRANCH  16  17
TORSDOF 2
ENDMDL
MODEL 2
REMARK VINA RESULT:     -11.8      1.236      5.692
REMARK  Name = 
REMARK  2 active torsions:
REMARK  status: ('A' for Active; 'I' for Inactive)
REMARK    1  A    between atoms: N_3  and  C_4
REMARK    2  A    between atoms: N_16  and  C_17
REMARK                            x       y       z     vdW  Elec       q    Type
REMARK                         _______ _______ _______ _____ _____    ______ ____
ROOT
ATOM      1  O   UNL     1      -2.312   2.874  24.523  0.00  0.00    -0.250 OA
ATOM      2  C   UNL     1      -1.710   2.566  24.996  0.00  0.00    +0.328 C 
ATOM      3  N   UNL     1      -1.160   3.072  25.345  0.00  0.00    -0.162 NA
ATOM     10  N   UNL     1      -1.657   1.752  25.119  0.00  0.00    -0.259 N 
ATOM     11  C   UNL     1      -1.055   1.444  25.592  0.00  0.00    +0.117 C 
ATOM     12  C   UNL     1      -1.003   0.631  25.716  0.00  0.00    +0.117 C 
ATOM     13  N   UNL     1      -1.552   0.123  25.366  0.00  0.00    -0.261 N 
ATOM     14  C   UNL     1      -2.154   0.431  24.894  0.00  0.00    +0.117 C 
ATOM     15  C   UNL     1      -2.613  -0.199  24.624  0.00  0.00    +0.116 C 
ATOM     16  N   UNL     1      -2.294  -0.895  24.929  0.00  0.00    -0.264 N 
ATOM     23  C   UNL     1      -1.639  -0.696  25.388  0.00  0.00    +0.307 C 
ATOM     24  O   UNL     1      -1.155  -1.224  25.798  0.00  0.00    -0.252 OA
ATOM     25  C   UNL     1      -2.207   1.246  24.770  0.00  0.00    +0.117 C 
ENDROOT
BRANCH   3   4
ATOM      4  C   UNL     1      -1.213   3.887  25.221  0.00  0.00    +0.075 A 
ATOM      5  C   UNL     1      -1.840   4.314  25.546  0.00  0.00    +0.017 A 
ATOM      6  C   UNL     1      -1.893   5.127  25.422  0.00  0.00    +0.001 A 
ATOM      7  C   UNL     1      -1.318   5.515  24.974  0.00  0.00    +0.000 A 
ATOM      8  C   UNL     1      -0.691   5.088  24.650  0.00  0.00    +0.001 A 
ATOM      9  C   UNL     1      -0.639   4.273  24.773  0.00  0.00    +0.017 A 
ENDBRANCH   3   4
BRANCH  16  17
ATOM     17  C   UNL     1      -2.581  -1.658  24.799  0.00  0.00    +0.082 C 
ATOM     18  C   UNL     1      -3.298  -1.892  25.134  0.00  0.00    +0.052 C 
ATOM     19  C   UNL     1      -3.585  -2.655  25.004  0.00  0.00    +0.144 C 
ATOM     20  O   UNL     1      -3.155  -3.183  24.538  0.00  0.00    -0.354 OA
ATOM     21  C   UNL     1      -2.439  -2.949  24.203  0.00  0.00    +0.144 C 
ATOM     22  C   UNL     1      -2.152  -2.187  24.333  0.00  0.00    +0.052 C 
ENDBRANCH  16  17
TORSDOF 2
ENDMDL
MODEL 3
REMARK VINA RESULT:      -9.9      2.634      4.282
REMARK  Name = 
REMARK  2 active torsions:
REMARK  status: ('A' for Active; 'I' for Inactive)
REMARK    1  A    between atoms: N_3  and  C_4
REMARK    2  A    between atoms: N_16  and  C_17
REMARK                            x       y       z     vdW  Elec       q    Type
REMARK                         _______ _______ _______ _____ _____    ______ ____
ROOT
ATOM      1  O   UNL     1      -3.300   2.296  24.099  0.00  0.00    -0.250 OA
ATOM      2  C   UNL     1      -3.198   1.617  24.557  0.00  0.00    +0.328 C 
ATOM      3  N   UNL     1      -3.788   1.381  25.083  0.00  0.00    -0.162 NA
ATOM     10  N   UNL     1      -2.504   1.174  24.491  0.00  0.00    -0.259 N 
ATOM     11  C   UNL     1      -2.403   0.495  24.949  0.00  0.00    +0.117 C 
ATOM     12  C   UNL     1      -1.710   0.053  24.882  0.00  0.00    +0.117 C 
ATOM     13  N   UNL     1      -1.119   0.288  24.357  0.00  0.00    -0.261 N 
ATOM     14  C   UNL     1      -1.221   0.967  23.898  0.00  0.00    +0.117 C 
ATOM     15  C   UNL     1      -0.548   1.063  23.432  0.00  0.00    +0.116 C 
ATOM     16  N   UNL     1      -0.030   0.444  23.601  0.00  0.00    -0.264 N 
ATOM     23  C   UNL     1      -0.383  -0.034  24.173  0.00  0.00    +0.307 C 
ATOM     24  O   UNL     1      -0.057  -0.717  24.503  0.00  0.00    -0.252 OA
ATOM     25  C   UNL     1      -1.914   1.410  23.965  0.00  0.00    +0.117 C 
ENDROOT
BRANCH   3   4
ATOM      4  C   UNL     1      -4.482   1.824  25.150  0.00  0.00    +0.075 A 
ATOM      5  C   UNL     1      -5.196   1.517  24.874  0.00  0.00    +0.017 A 
ATOM      6  C   UNL     1      -5.888   1.960  24.941  0.00  0.00    +0.001 A 
ATOM      7  C   UNL     1      -5.867   2.711  25.284  0.00  0.00    +0.000 A 
ATOM      8  C   UNL     1      -5.153   3.018  25.559  0.00  0.00    +0.001 A 
ATOM      9  C   UNL     1      -4.459   2.574  25.492  0.00  0.00    +0.017 A 
ENDBRANCH   3   4
BRANCH  16  17
ATOM     17  C   UNL     1       0.712   0.324  23.259  0.00  0.00    +0.082 C 
ATOM     18  C   UNL     1       0.805  -0.238  22.662  0.00  0.00    +0.052 C 
ATOM     19  C   UNL     1       1.546  -0.358  22.320  0.00  0.00    +0.144 C 
ATOM     20  O   UNL     1       2.194   0.085  22.576  0.00  0.00    -0.354 OA
ATOM     21  C   UNL     1       2.101   0.646  23.172  0.00  0.00    +0.144 C 
ATOM     22  C   UNL     1       1.360   0.766  23.514  0.00  0.00    +0.052 C 
ENDBRANCH  16  17
TORSDOF 2
ENDMDL
MODEL 4
REMARK VINA RESULT:      -9.5     17.689     19.438
REMARK  Name = 
REMARK  2 active torsions:
REMARK  status: ('A' for Active; 'I' for Inactive)
REMARK    1  A    between atoms: N_3  and  C_4
REMARK    2  A    between atoms: N_16  and  C_17
REMARK                            x       y       z     vdW  Elec       q    Type
REMARK                         _______ _______ _______ _____ _____    ______ ____
ROOT
ATOM      1  O   UNL     1      12.620   7.529  17.271  0.00  0.00    -0.250 OA
ATOM      2  C   UNL     1      12.835   8.242  17.626  0.00  0.00    +0.328 C 
ATOM      3  N   UNL     1      12.429   8.935  17.439  0.00  0.00    -0.162 NA
ATOM     10  N   UNL     1      13.456   8.262  18.170  0.00  0.00    -0.259 N 
ATOM     11  C   UNL     1      13.670   8.975  18.526  0.00  0.00    +0.117 C 
ATOM     12  C   UNL     1      14.290   8.994  19.069  0.00  0.00    +0.117 C 
ATOM     13  N   UNL     1      14.696   8.301  19.257  0.00  0.00    -0.261 N 
ATOM     14  C   UNL     1      14.482   7.588  18.902  0.00  0.00    +0.117 C 
ATOM     15  C   UNL     1      14.979   6.999  19.194  0.00  0.00    +0.116 C 
ATOM     16  N   UNL     1      15.500   7.346  19.729  0.00  0.00    -0.264 N 
ATOM     23  C   UNL     1      15.325   8.152  19.768  0.00  0.00    +0.307 C 
ATOM     24  O   UNL     1      15.713   8.710  20.237  0.00  0.00    -0.252 OA
ATOM     25  C   UNL     1      13.861   7.568  18.358  0.00  0.00    +0.117 C 
ENDROOT
BRANCH   3   4
ATOM      4  C   UNL     1      11.809   8.915  16.895  0.00  0.00    +0.075 A 
ATOM      5  C   UNL     1      11.048   8.717  17.144  0.00  0.00    +0.017 A 
ATOM      6  C   UNL     1      10.428   8.697  16.601  0.00  0.00    +0.001 A 
ATOM      7  C   UNL     1      10.568   8.875  15.807  0.00  0.00    +0.000 A 
ATOM      8  C   UNL     1      11.329   9.074  15.558  0.00  0.00    +0.001 A 
ATOM      9  C   UNL     1      11.950   9.094  16.102  0.00  0.00    +0.017 A 
ENDBRANCH   3   4
BRANCH  16  17
ATOM     17  C   UNL     1      16.093   6.958  20.152  0.00  0.00    +0.082 C 
ATOM     18  C   UNL     1      15.966   6.743  20.939  0.00  0.00    +0.052 C 
ATOM     19  C   UNL     1      16.558   6.354  21.361  0.00  0.00    +0.144 C 
ATOM     20  O   UNL     1      17.278   6.180  20.997  0.00  0.00    -0.354 OA
ATOM     21  C   UNL     1      17.405   6.395  20.211  0.00  0.00    +0.144 C 
ATOM     22  C   UNL     1      16.813   6.783  19.789  0.00  0.00    +0.052 C 
ENDBRANCH  16  17
TORSDOF 2
ENDMDL
MODEL 5
REMARK VINA RESULT:      -8.6      2.757      4.008
REMARK  Name = 
REMARK  2 active torsions:
REMARK  status: ('A' for Active; 'I' for Inactive)
REMARK    1  A    between atoms: N_3  and  C_4
REMARK    2  A    between atoms: N_16  and  C_17
REMARK                            x       y       z     vdW  Elec       q    Type
REMARK                         _______ _______ _______ _____ _____    ______ ____
ROOT
ATOM      1  O   UNL     1      -0.525   0.483  24.446  0.00  0.00    -0.250 OA
ATOM      2  C   UNL     1      -0.752   0.961  23.813  0.00  0.00    +0.328 C 
ATOM      3  N   UNL     1      -0.241   1.071  23.176  0.00  0.00    -0.162 NA
ATOM     10  N   UNL     1      -1.491   1.328  23.817  0.00  0.00    -0.259 N 
ATOM     11  C   UNL     1      -1.718   1.806  23.184  0.00  0.00    +0.117 C 
ATOM     12  C   UNL     1      -2.457   2.173  23.189  0.00  0.00    +0.117 C 
ATOM     13  N   UNL     1      -2.969   2.062  23.826  0.00  0.00    -0.261 N 
ATOM     14  C   UNL     1      -2.742   1.585  24.459  0.00  0.00    +0.117 C 
ATOM     15  C   UNL     1      -3.358   1.578  25.007  0.00  0.00    +0.116 C 
ATOM     16  N   UNL     1      -3.966   2.051  24.713  0.00  0.00    -0.264 N 
ATOM     23  C   UNL     1      -3.725   2.350  23.983  0.00  0.00    +0.307 C 
ATOM     24  O   UNL     1      -4.164   2.851  23.495  0.00  0.00    -0.252 OA
ATOM     25  C   UNL     1      -2.003   1.217  24.455  0.00  0.00    +0.117 C 
ENDROOT
BRANCH   3   4
ATOM      4  C   UNL     1       0.499   0.704  23.171  0.00  0.00    +0.075 A 
ATOM      5  C   UNL     1       1.155   1.094  23.483  0.00  0.00    +0.017 A 
ATOM      6  C   UNL     1       1.893   0.727  23.479  0.00  0.00    +0.001 A 
ATOM      7  C   UNL     1       1.976  -0.031  23.163  0.00  0.00    +0.000 A 
ATOM      8  C   UNL     1       1.319  -0.421  22.851  0.00  0.00    +0.001 A 
ATOM      9  C   UNL     1       0.580  -0.054  22.855  0.00  0.00    +0.017 A 
ENDBRANCH   3   4
BRANCH  16  17
ATOM     17  C   UNL     1      -4.688   2.200  25.084  0.00  0.00    +0.082 C 
ATOM     18  C   UNL     1      -4.780   2.870  25.557  0.00  0.00    +0.052 C 
ATOM     19  C   UNL     1      -5.502   3.018  25.927  0.00  0.00    +0.144 C 
ATOM     20  O   UNL     1      -6.132   2.496  25.825  0.00  0.00    -0.354 OA
ATOM     21  C   UNL     1      -6.041   1.826  25.353  0.00  0.00    +0.144 C 
ATOM     22  C   UNL     1      -5.319   1.678  24.982  0.00  0.00    +0.052 C 
ENDBRANCH  16  17
TORSDOF 2
ENDMDL
