MODEL 1
REMARK VINA RESULT:      -9.1      0.000      0.000
REMARK  Name = 
REMARK  2 active torsions:
REMARK  status: ('A' for Active; 'I' for Inactive)
REMARK    1  A    between atoms: N_7  and  C_8
REMARK    2  A    between atoms: C_8  and  C_9
REMARK                            x       y       z     vdW  Elec       q    Type
REMARK                         _______ _______ _______ _____ _____    ______ ____
ROOT
ATOM      1  O   UNL     1      -1.587   1.427  24.906  0.00  0.00    -0.219 OA
ATOM      2  C   UNL     1      -1.415   0.621  24.960  0.00  0.00    +0.197 C 
ATOM      3  C   UNL     1      -0.643   0.406  24.762  0.00  0.00    +0.176 C 
ATOM      4  O   UNL     1      -0.305  -0.346  24.761  0.00  0.00    -0.350 OA
ATOM      5  C   UNL     1      -0.653  -1.068  24.957  0.00  0.00    +0.160 C 
ATOM      6  C   UNL     1      -1.426  -1.216  25.202  0.00  0.00    +0.105 C 
ATOM      7  N   UNL     1      -2.043  -0.679  25.313  0.00  0.00    -0.265 NA
ATOM     16  C   UNL     1      -2.038   0.139  25.205  0.00  0.00    +0.108 C 
ENDROOT
BRANCH   7   8
ATOM      8  C   UNL     1      -2.758  -1.003  25.564  0.00  0.00    +0.099 C 
BRANCH   8   9
ATOM      9  C   UNL     1      -3.235  -1.414  25.031  0.00  0.00    -0.006 A 
ATOM     10  C   UNL     1      -3.768  -1.004  24.552  0.00  0.00    -0.001 A 
ATOM     11  C   UNL     1      -4.244  -1.415  24.018  0.00  0.00    +0.029 A 
ATOM     12  C   UNL     1      -4.187  -2.237  23.964  0.00  0.00    +0.140 A 
ATOM     13  F   UNL     1      -4.664  -2.648  23.431  0.00  0.00    -0.204 F 
ATOM     14  C   UNL     1      -3.655  -2.647  24.442  0.00  0.00    +0.029 A 
ATOM     15  C   UNL     1      -3.179  -2.235  24.975  0.00  0.00    -0.001 A 
ENDBRANCH   8   9
ENDBRANCH   7   8
TORSDOF 2
ENDMDL
MODEL 2
REMARK VINA RESULT:      -9.1      1.162      1.734
REMARK  Name = 
REMARK  2 active torsions:
REMARK  status: ('A' for Active; 'I' for Inactive)
REMARK    1  A    between atoms: N_7  and  C_8
REMARK    2  A    between atoms: C_8  and  C_9
REMARK                            x       y       z     vdW  Elec       q    Type
REMARK                         _______ _______ _______ _____ _____    ______ ____
ROOT
ATOM      1  O   UNL     1      -1.217   0.941  25.270  0.00  0.00    -0.219 OA
ATOM      2  C   UNL     1      -1.878   0.978  24.778  0.00  0.00    +0.197 C 
ATOM      3  C   UNL     1      -1.810   1.477  24.124  0.00  0.00    +0.176 C 
ATOM      4  O   UNL     1      -2.367   1.631  23.535  0.00  0.00    -0.350 OA
ATOM      5  C   UNL     1      -3.130   1.325  23.455  0.00  0.00    +0.160 C 
ATOM      6  C   UNL     1      -3.523   0.790  23.944  0.00  0.00    +0.105 C 
ATOM      7  N   UNL     1      -3.251   0.427  24.633  0.00  0.00    -0.265 NA
ATOM     16  C   UNL     1      -2.519   0.511  25.005  0.00  0.00    +0.108 C 
ENDROOT
BRANCH   7   8
ATOM      8  C   UNL     1      -3.782  -0.087  25.000  0.00  0.00    +0.099 C 
BRANCH   8   9
ATOM      9  C   UNL     1      -3.791  -0.886  24.794  0.00  0.00    -0.006 A 
ATOM     10  C   UNL     1      -4.180  -1.131  24.109  0.00  0.00    -0.001 A 
ATOM     11  C   UNL     1      -4.189  -1.930  23.903  0.00  0.00    +0.029 A 
ATOM     12  C   UNL     1      -3.809  -2.484  24.383  0.00  0.00    +0.140 A 
ATOM     13  F   UNL     1      -3.818  -3.282  24.177  0.00  0.00    -0.204 F 
ATOM     14  C   UNL     1      -3.420  -2.239  25.067  0.00  0.00    +0.029 A 
ATOM     15  C   UNL     1      -3.411  -1.440  25.273  0.00  0.00    -0.001 A 
ENDBRANCH   8   9
ENDBRANCH   7   8
TORSDOF 2
ENDMDL
MODEL 3
REMARK VINA RESULT:      -9.1      1.193      1.651
REMARK  Name = 
REMARK  2 active torsions:
REMARK  status: ('A' for Active; 'I' for Inactive)
REMARK    1  A    between atoms: N_7  and  C_8
REMARK    2  A    between atoms: C_8  and  C_9
REMARK                            x       y       z     vdW  Elec       q    Type
REMARK                         _______ _______ _______ _____ _____    ______ ____
ROOT
ATOM      1  O   UNL     1      -3.212   1.900  23.123  0.00  0.00    -0.219 OA
ATOM      2  C   UNL     1      -2.821   1.455  23.697  0.00  0.00    +0.197 C 
ATOM      3  C   UNL     1      -2.014   1.607  23.779  0.00  0.00    +0.176 C 
ATOM      4  O   UNL     1      -1.476   1.257  24.297  0.00  0.00    -0.350 OA
ATOM      5  C   UNL     1      -1.611   0.671  24.862  0.00  0.00    +0.160 C 
ATOM      6  C   UNL     1      -2.318   0.289  25.047  0.00  0.00    +0.105 C 
ATOM      7  N   UNL     1      -3.066   0.399  24.714  0.00  0.00    -0.265 NA
ATOM     16  C   UNL     1      -3.289   0.918  24.113  0.00  0.00    +0.108 C 
ENDROOT
BRANCH   7   8
ATOM      8  C   UNL     1      -3.668  -0.072  25.022  0.00  0.00    +0.099 C 
BRANCH   8   9
ATOM      9  C   UNL     1      -3.717  -0.868  24.811  0.00  0.00    -0.006 A 
ATOM     10  C   UNL     1      -3.364  -1.445  25.285  0.00  0.00    -0.001 A 
ATOM     11  C   UNL     1      -3.414  -2.240  25.073  0.00  0.00    +0.029 A 
ATOM     12  C   UNL     1      -3.817  -2.460  24.388  0.00  0.00    +0.140 A 
ATOM     13  F   UNL     1      -3.867  -3.256  24.176  0.00  0.00    -0.204 F 
ATOM     14  C   UNL     1      -4.171  -1.885  23.915  0.00  0.00    +0.029 A 
ATOM     15  C   UNL     1      -4.121  -1.089  24.126  0.00  0.00    -0.001 A 
ENDBRANCH   8   9
ENDBRANCH   7   8
TORSDOF 2
ENDMDL
MODEL 4
REMARK VINA RESULT:      -8.7      4.334      5.774
REMARK  Name = 
REMARK  2 active torsions:
REMARK  status: ('A' for Active; 'I' for Inactive)
REMARK    1  A    between atoms: N_7  and  C_8
REMARK    2  A    between atoms: C_8  and  C_9
REMARK                            x       y       z     vdW  Elec       q    Type
REMARK                         _______ _______ _______ _____ _____    ______ ____
ROOT
ATOM      1  O   UNL     1      -5.334   3.725  25.504  0.00  0.00    -0.219 OA
ATOM      2  C   UNL     1      -4.688   3.288  25.234  0.00  0.00    +0.197 C 
ATOM      3  C   UNL     1      -4.850   2.744  24.636  0.00  0.00    +0.176 C 
ATOM      4  O   UNL     1      -4.329   2.230  24.254  0.00  0.00    -0.350 OA
ATOM      5  C   UNL     1      -3.518   2.135  24.376  0.00  0.00    +0.160 C 
ATOM      6  C   UNL     1      -3.029   2.529  24.910  0.00  0.00    +0.105 C 
ATOM      7  N   UNL     1      -3.228   3.116  25.455  0.00  0.00    -0.265 NA
ATOM     16  C   UNL     1      -3.968   3.455  25.599  0.00  0.00    +0.108 C 
ENDROOT
BRANCH   7   8
ATOM      8  C   UNL     1      -2.608   3.403  25.915  0.00  0.00    +0.099 C 
BRANCH   8   9
ATOM      9  C   UNL     1      -2.041   3.900  25.580  0.00  0.00    -0.006 A 
ATOM     10  C   UNL     1      -1.323   3.590  25.317  0.00  0.00    -0.001 A 
ATOM     11  C   UNL     1      -0.756   4.087  24.981  0.00  0.00    +0.029 A 
ATOM     12  C   UNL     1      -0.908   4.895  24.909  0.00  0.00    +0.140 A 
ATOM     13  F   UNL     1      -0.341   5.392  24.574  0.00  0.00    -0.204 F 
ATOM     14  C   UNL     1      -1.625   5.205  25.171  0.00  0.00    +0.029 A 
ATOM     15  C   UNL     1      -2.192   4.708  25.507  0.00  0.00    -0.001 A 
ENDBRANCH   8   9
ENDBRANCH   7   8
TORSDOF 2
ENDMDL
MODEL 5
REMARK VINA RESULT:      -8.5      2.412      3.257
REMARK  Name = 
REMARK  2 active torsions:
REMARK  status: ('A' for Active; 'I' for Inactive)
REMARK    1  A    between atoms: N_7  and  C_8
REMARK    2  A    between atoms: C_8  and  C_9
REMARK                            x       y       z     vdW  Elec       q    Type
REMARK                         _______ _______ _______ _____ _____    ______ ____
ROOT
ATOM      1  O   UNL     1      -3.303   3.242  25.325  0.00  0.00    -0.219 OA
ATOM      2  C   UNL     1      -3.912   2.705  25.179  0.00  0.00    +0.197 C 
ATOM      3  C   UNL     1      -4.659   2.927  25.452  0.00  0.00    +0.176 C 
ATOM      4  O   UNL     1      -5.371   2.515  25.391  0.00  0.00    -0.350 OA
ATOM      5  C   UNL     1      -5.513   1.780  25.044  0.00  0.00    +0.160 C 
ATOM      6  C   UNL     1      -4.978   1.276  24.671  0.00  0.00    +0.105 C 
ATOM      7  N   UNL     1      -4.168   1.381  24.553  0.00  0.00    -0.265 NA
ATOM     16  C   UNL     1      -3.693   2.017  24.779  0.00  0.00    +0.108 C 
ENDROOT
BRANCH   7   8
ATOM      8  C   UNL     1      -3.782   0.770  24.156  0.00  0.00    +0.099 C 
BRANCH   8   9
ATOM      9  C   UNL     1      -3.713   0.027  24.510  0.00  0.00    -0.006 A 
ATOM     10  C   UNL     1      -3.179  -0.087  25.130  0.00  0.00    -0.001 A 
ATOM     11  C   UNL     1      -3.111  -0.829  25.484  0.00  0.00    +0.029 A 
ATOM     12  C   UNL     1      -3.576  -1.457  25.218  0.00  0.00    +0.140 A 
ATOM     13  F   UNL     1      -3.507  -2.199  25.572  0.00  0.00    -0.204 F 
ATOM     14  C   UNL     1      -4.109  -1.343  24.600  0.00  0.00    +0.029 A 
ATOM     15  C   UNL     1      -4.177  -0.601  24.246  0.00  0.00    -0.001 A 
ENDBRANCH   8   9
ENDBRANCH   7   8
TORSDOF 2
ENDMDL
