MODEL 1
REMARK VINA RESULT:     -10.4      0.000      0.000
REMARK  Name = 
REMARK  9 active torsions:
REMARK  status: ('A' for Active; 'I' for Inactive)
REMARK    1  A    between atoms: C_2  and  C_4
REMARK    2  A    between atoms: C_6  and  C_7
REMARK    3  A    between atoms: C_7  and  C_8
REMARK    4  A    between atoms: N_10  and  C_11
REMARK    5  A    between atoms: C_11  and  C_12
REMARK    6  A    between atoms: C_15  and  C_18
REMARK    7  A    between atoms: C_23  and  C_24
REMARK    8  A    between atoms: C_24  and  N_25
REMARK    9  A    between atoms: C_26  and  C_28
REMARK                            x       y       z     vdW  Elec       q    Type
REMARK                         _______ _______ _______ _____ _____    ______ ____
ROOT
ATOM      4  C   UNL     1      -4.780   1.723  24.555  0.00  0.00    +0.006 C 
ATOM      5  C   UNL     1      -4.505   2.474  24.352  0.00  0.00    +0.005 C 
ATOM      6  C   UNL     1      -3.911   2.556  23.785  0.00  0.00    +0.027 C 
ATOM     20  C   UNL     1      -3.593   1.887  23.421  0.00  0.00    -0.048 C 
ATOM     21  C   UNL     1      -2.999   1.968  22.854  0.00  0.00    +0.026 C 
ATOM     22  C   UNL     1      -3.869   1.136  23.624  0.00  0.00    -0.033 C 
ATOM     23  C   UNL     1      -4.462   1.054  24.191  0.00  0.00    +0.043 C 
ENDROOT
BRANCH   4   2
ATOM      1  C   UNL     1      -6.167   1.654  24.893  0.00  0.00    +0.000 C 
ATOM      2  C   UNL     1      -5.374   1.642  25.122  0.00  0.00    +0.000 C 
ATOM      3  C   UNL     1      -5.176   1.548  25.917  0.00  0.00    +0.000 C 
ENDBRANCH   4   2
BRANCH   6   7
ATOM      7  C   UNL     1      -3.636   3.306  23.582  0.00  0.00    +0.091 C 
BRANCH   7   8
ATOM      8  C   UNL     1      -3.248   3.769  24.145  0.00  0.00    +0.242 C 
ATOM      9  O   UNL     1      -3.630   4.419  24.479  0.00  0.00    -0.273 OA
ATOM     10  N   UNL     1      -2.478   3.580  24.373  0.00  0.00    -0.201 NA
BRANCH  10  11
ATOM     11  C   UNL     1      -2.090   4.043  24.936  0.00  0.00    +0.141 C 
BRANCH  11  12
ATOM     12  C   UNL     1      -1.461   3.726  25.366  0.00  0.00    -0.001 A 
ATOM     13  C   UNL     1      -0.695   3.756  25.059  0.00  0.00    -0.002 A 
ATOM     14  C   UNL     1      -0.066   3.439  25.490  0.00  0.00    +0.010 A 
ATOM     15  C   UNL     1      -0.203   3.094  26.226  0.00  0.00    +0.068 A 
ATOM     16  C   UNL     1      -0.968   3.064  26.532  0.00  0.00    +0.010 A 
ATOM     17  C   UNL     1      -1.597   3.380  26.103  0.00  0.00    -0.002 A 
BRANCH  15  18
ATOM     18  C   UNL     1       0.426   2.777  26.657  0.00  0.00    +0.100 C 
ATOM     19  N   UNL     1       1.054   2.461  27.087  0.00  0.00    -0.191 NA
ENDBRANCH  15  18
ENDBRANCH  11  12
ENDBRANCH  10  11
ENDBRANCH   7   8
ENDBRANCH   6   7
BRANCH  23  24
ATOM     24  C   UNL     1      -4.737   0.304  24.394  0.00  0.00    +0.120 C 
BRANCH  24  25
ATOM     25  N   UNL     1      -4.201  -0.312  24.517  0.00  0.00    -0.201 NA
ATOM     26  C   UNL     1      -4.437  -1.094  24.395  0.00  0.00    +0.265 C 
ATOM     27  O   UNL     1      -5.207  -1.260  24.151  0.00  0.00    -0.268 OA
BRANCH  26  28
ATOM     28  C   UNL     1      -3.901  -1.709  24.519  0.00  0.00    +0.055 A 
ATOM     29  C   UNL     1      -3.450  -1.730  25.209  0.00  0.00    +0.005 A 
ATOM     30  C   UNL     1      -2.914  -2.346  25.333  0.00  0.00    +0.000 A 
ATOM     31  C   UNL     1      -2.829  -2.939  24.766  0.00  0.00    +0.000 A 
ATOM     32  C   UNL     1      -3.280  -2.918  24.075  0.00  0.00    +0.000 A 
ATOM     33  C   UNL     1      -3.816  -2.303  23.952  0.00  0.00    +0.005 A 
ENDBRANCH  26  28
ENDBRANCH  24  25
ENDBRANCH  23  24
TORSDOF 9
ENDMDL
MODEL 2
REMARK VINA RESULT:     -10.4      3.559      5.096
REMARK  Name = 
REMARK  9 active torsions:
REMARK  status: ('A' for Active; 'I' for Inactive)
REMARK    1  A    between atoms: C_2  and  C_4
REMARK    2  A    between atoms: C_6  and  C_7
REMARK    3  A    between atoms: C_7  and  C_8
REMARK    4  A    between atoms: N_10  and  C_11
REMARK    5  A    between atoms: C_11  and  C_12
REMARK    6  A    between atoms: C_15  and  C_18
REMARK    7  A    between atoms: C_23  and  C_24
REMARK    8  A    between atoms: C_24  and  N_25
REMARK    9  A    between atoms: C_26  and  C_28
REMARK                            x       y       z     vdW  Elec       q    Type
REMARK                         _______ _______ _______ _____ _____    ______ ____
ROOT
ATOM      4  C   UNL     1      -0.798   1.968  24.547  0.00  0.00    +0.006 C 
ATOM      5  C   UNL     1      -0.272   1.366  24.344  0.00  0.00    +0.005 C 
ATOM      6  C   UNL     1      -0.552   0.602  24.206  0.00  0.00    +0.027 C 
ATOM     20  C   UNL     1      -1.359   0.440  24.271  0.00  0.00    -0.048 C 
ATOM     21  C   UNL     1      -1.640  -0.323  24.134  0.00  0.00    +0.026 C 
ATOM     22  C   UNL     1      -1.885   1.043  24.475  0.00  0.00    -0.033 C 
ATOM     23  C   UNL     1      -1.605   1.806  24.613  0.00  0.00    +0.043 C 
ENDROOT
BRANCH   4   2
ATOM      1  C   UNL     1      -0.287   2.954  25.446  0.00  0.00    +0.000 C 
ATOM      2  C   UNL     1      -0.517   2.731  24.685  0.00  0.00    +0.000 C 
ATOM      3  C   UNL     1      -0.467   3.271  24.063  0.00  0.00    +0.000 C 
ENDBRANCH   4   2
BRANCH   6   7
ATOM      7  C   UNL     1      -0.026   0.000  24.002  0.00  0.00    +0.091 C 
BRANCH   7   8
ATOM      8  C   UNL     1       0.468   0.089  23.346  0.00  0.00    +0.242 C 
ATOM      9  O   UNL     1       0.142   0.186  22.595  0.00  0.00    -0.273 OA
ATOM     10  N   UNL     1       1.287   0.082  23.444  0.00  0.00    -0.201 NA
BRANCH  10  11
ATOM     11  C   UNL     1       1.781   0.171  22.788  0.00  0.00    +0.141 C 
BRANCH  11  12
ATOM     12  C   UNL     1       2.599   0.179  22.887  0.00  0.00    -0.001 A 
ATOM     13  C   UNL     1       2.996  -0.510  23.106  0.00  0.00    -0.002 A 
ATOM     14  C   UNL     1       3.816  -0.500  23.205  0.00  0.00    +0.010 A 
ATOM     15  C   UNL     1       4.237   0.198  23.085  0.00  0.00    +0.068 A 
ATOM     16  C   UNL     1       3.840   0.887  22.867  0.00  0.00    +0.010 A 
ATOM     17  C   UNL     1       3.022   0.879  22.768  0.00  0.00    -0.002 A 
BRANCH  15  18
ATOM     18  C   UNL     1       5.057   0.208  23.184  0.00  0.00    +0.100 C 
ATOM     19  N   UNL     1       5.875   0.218  23.283  0.00  0.00    -0.191 NA
ENDBRANCH  15  18
ENDBRANCH  11  12
ENDBRANCH  10  11
ENDBRANCH   7   8
ENDBRANCH   6   7
BRANCH  23  24
ATOM     24  C   UNL     1      -2.131   2.407  24.816  0.00  0.00    +0.120 C 
BRANCH  24  25
ATOM     25  N   UNL     1      -2.928   2.232  24.945  0.00  0.00    -0.201 NA
ATOM     26  C   UNL     1      -3.485   2.840  24.972  0.00  0.00    +0.265 C 
ATOM     27  O   UNL     1      -3.247   3.623  24.869  0.00  0.00    -0.268 OA
BRANCH  26  28
ATOM     28  C   UNL     1      -4.281   2.664  25.100  0.00  0.00    +0.055 A 
ATOM     29  C   UNL     1      -4.667   2.966  25.764  0.00  0.00    +0.005 A 
ATOM     30  C   UNL     1      -5.463   2.790  25.893  0.00  0.00    +0.000 A 
ATOM     31  C   UNL     1      -5.872   2.313  25.359  0.00  0.00    +0.000 A 
ATOM     32  C   UNL     1      -5.485   2.011  24.695  0.00  0.00    +0.000 A 
ATOM     33  C   UNL     1      -4.690   2.187  24.566  0.00  0.00    +0.005 A 
ENDBRANCH  26  28
ENDBRANCH  24  25
ENDBRANCH  23  24
TORSDOF 9
ENDMDL
MODEL 3
REMARK VINA RESULT:     -10.3      2.108      3.829
REMARK  Name = 
REMARK  9 active torsions:
REMARK  status: ('A' for Active; 'I' for Inactive)
REMARK    1  A    between atoms: C_2  and  C_4
REMARK    2  A    between atoms: C_6  and  C_7
REMARK    3  A    between atoms: C_7  and  C_8
REMARK    4  A    between atoms: N_10  and  C_11
REMARK    5  A    between atoms: C_11  and  C_12
REMARK    6  A    between atoms: C_15  and  C_18
REMARK    7  A    between atoms: C_23  and  C_24
REMARK    8  A    between atoms: C_24  and  N_25
REMARK    9  A    between atoms: C_26  and  C_28
REMARK                            x       y       z     vdW  Elec       q    Type
REMARK                         _______ _______ _______ _____ _____    ______ ____
ROOT
ATOM      4  C   UNL     1      -0.351   1.148  24.298  0.00  0.00    +0.006 C 
ATOM      5  C   UNL     1      -0.251   1.942  24.501  0.00  0.00    +0.005 C 
ATOM      6  C   UNL     1      -0.309   2.176  25.291  0.00  0.00    +0.027 C 
ATOM     20  C   UNL     1      -0.468   1.617  25.876  0.00  0.00    -0.048 C 
ATOM     21  C   UNL     1      -0.527   1.850  26.665  0.00  0.00    +0.026 C 
ATOM     22  C   UNL     1      -0.569   0.823  25.673  0.00  0.00    -0.033 C 
ATOM     23  C   UNL     1      -0.510   0.589  24.884  0.00  0.00    +0.043 C 
ENDROOT
BRANCH   4   2
ATOM      1  C   UNL     1       0.411   0.590  23.227  0.00  0.00    +0.000 C 
ATOM      2  C   UNL     1      -0.293   0.915  23.509  0.00  0.00    +0.000 C 
ATOM      3  C   UNL     1      -0.938   1.007  23.003  0.00  0.00    +0.000 C 
ENDBRANCH   4   2
BRANCH   6   7
ATOM      7  C   UNL     1      -0.209   2.969  25.494  0.00  0.00    +0.091 C 
BRANCH   7   8
ATOM      8  C   UNL     1      -0.735   3.537  25.208  0.00  0.00    +0.242 C 
ATOM      9  O   UNL     1      -0.493   4.070  24.627  0.00  0.00    -0.273 OA
ATOM     10  N   UNL     1      -1.504   3.572  25.505  0.00  0.00    -0.201 NA
BRANCH  10  11
ATOM     11  C   UNL     1      -2.031   4.140  25.219  0.00  0.00    +0.141 C 
BRANCH  11  12
ATOM     12  C   UNL     1      -2.843   4.032  25.311  0.00  0.00    -0.001 A 
ATOM     13  C   UNL     1      -3.191   4.125  26.053  0.00  0.00    -0.002 A 
ATOM     14  C   UNL     1      -4.004   4.016  26.144  0.00  0.00    +0.010 A 
ATOM     15  C   UNL     1      -4.469   3.814  25.494  0.00  0.00    +0.068 A 
ATOM     16  C   UNL     1      -4.121   3.721  24.752  0.00  0.00    +0.010 A 
ATOM     17  C   UNL     1      -3.309   3.829  24.660  0.00  0.00    -0.002 A 
BRANCH  15  18
ATOM     18  C   UNL     1      -5.282   3.705  25.584  0.00  0.00    +0.100 C 
ATOM     19  N   UNL     1      -6.094   3.597  25.675  0.00  0.00    -0.191 NA
ENDBRANCH  15  18
ENDBRANCH  11  12
ENDBRANCH  10  11
ENDBRANCH   7   8
ENDBRANCH   6   7
BRANCH  23  24
ATOM     24  C   UNL     1      -0.611  -0.204  24.681  0.00  0.00    +0.120 C 
BRANCH  24  25
ATOM     25  N   UNL     1      -1.352  -0.559  24.760  0.00  0.00    -0.201 NA
ATOM     26  C   UNL     1      -1.410  -1.376  24.859  0.00  0.00    +0.265 C 
ATOM     27  O   UNL     1      -0.727  -1.839  24.879  0.00  0.00    -0.268 OA
BRANCH  26  28
ATOM     28  C   UNL     1      -2.150  -1.731  24.939  0.00  0.00    +0.055 A 
ATOM     29  C   UNL     1      -2.352  -2.373  24.463  0.00  0.00    +0.005 A 
ATOM     30  C   UNL     1      -3.093  -2.728  24.542  0.00  0.00    +0.000 A 
ATOM     31  C   UNL     1      -3.632  -2.440  25.096  0.00  0.00    +0.000 A 
ATOM     32  C   UNL     1      -3.430  -1.796  25.572  0.00  0.00    +0.000 A 
ATOM     33  C   UNL     1      -2.689  -1.442  25.493  0.00  0.00    +0.005 A 
ENDBRANCH  26  28
ENDBRANCH  24  25
ENDBRANCH  23  24
TORSDOF 9
ENDMDL
MODEL 4
REMARK VINA RESULT:      -9.7      3.641      4.807
REMARK  Name = 
REMARK  9 active torsions:
REMARK  status: ('A' for Active; 'I' for Inactive)
REMARK    1  A    between atoms: C_2  and  C_4
REMARK    2  A    between atoms: C_6  and  C_7
REMARK    3  A    between atoms: C_7  and  C_8
REMARK    4  A    between atoms: N_10  and  C_11
REMARK    5  A    between atoms: C_11  and  C_12
REMARK    6  A    between atoms: C_15  and  C_18
REMARK    7  A    between atoms: C_23  and  C_24
REMARK    8  A    between atoms: C_24  and  N_25
REMARK    9  A    between atoms: C_26  and  C_28
REMARK                            x       y       z     vdW  Elec       q    Type
REMARK                         _______ _______ _______ _____ _____    ______ ____
ROOT
ATOM      4  C   UNL     1      -1.311  -0.006  24.648  0.00  0.00    +0.006 C 
ATOM      5  C   UNL     1      -0.551   0.230  24.430  0.00  0.00    +0.005 C 
ATOM      6  C   UNL     1      -0.438   0.952  24.046  0.00  0.00    +0.027 C 
ATOM     20  C   UNL     1      -1.085   1.438  23.881  0.00  0.00    -0.048 C 
ATOM     21  C   UNL     1      -0.973   2.159  23.498  0.00  0.00    +0.026 C 
ATOM     22  C   UNL     1      -1.845   1.201  24.100  0.00  0.00    -0.033 C 
ATOM     23  C   UNL     1      -1.957   0.479  24.483  0.00  0.00    +0.043 C 
ENDROOT
BRANCH   4   2
ATOM      1  C   UNL     1      -1.364  -0.771  25.854  0.00  0.00    +0.000 C 
ATOM      2  C   UNL     1      -1.423  -0.727  25.031  0.00  0.00    +0.000 C 
ATOM      3  C   UNL     1      -1.594  -1.406  24.594  0.00  0.00    +0.000 C 
ENDBRANCH   4   2
BRANCH   6   7
ATOM      7  C   UNL     1       0.321   1.188  23.827  0.00  0.00    +0.091 C 
BRANCH   7   8
ATOM      8  C   UNL     1       0.769   0.717  23.318  0.00  0.00    +0.242 C 
ATOM      9  O   UNL     1       0.394   0.261  22.742  0.00  0.00    -0.273 OA
ATOM     10  N   UNL     1       1.591   0.702  23.387  0.00  0.00    -0.201 NA
BRANCH  10  11
ATOM     11  C   UNL     1       2.038   0.231  22.878  0.00  0.00    +0.141 C 
BRANCH  11  12
ATOM     12  C   UNL     1       2.858   0.194  22.965  0.00  0.00    -0.001 A 
ATOM     13  C   UNL     1       3.210  -0.487  23.270  0.00  0.00    -0.002 A 
ATOM     14  C   UNL     1       4.030  -0.523  23.357  0.00  0.00    +0.010 A 
ATOM     15  C   UNL     1       4.497   0.120  23.139  0.00  0.00    +0.068 A 
ATOM     16  C   UNL     1       4.145   0.801  22.834  0.00  0.00    +0.010 A 
ATOM     17  C   UNL     1       3.325   0.838  22.746  0.00  0.00    -0.002 A 
BRANCH  15  18
ATOM     18  C   UNL     1       5.317   0.084  23.226  0.00  0.00    +0.100 C 
ATOM     19  N   UNL     1       6.136   0.049  23.313  0.00  0.00    -0.191 NA
ENDBRANCH  15  18
ENDBRANCH  11  12
ENDBRANCH  10  11
ENDBRANCH   7   8
ENDBRANCH   6   7
BRANCH  23  24
ATOM     24  C   UNL     1      -2.717   0.243  24.702  0.00  0.00    +0.120 C 
BRANCH  24  25
ATOM     25  N   UNL     1      -3.297   0.811  24.854  0.00  0.00    -0.201 NA
ATOM     26  C   UNL     1      -4.096   0.607  24.809  0.00  0.00    +0.265 C 
ATOM     27  O   UNL     1      -4.314  -0.163  24.612  0.00  0.00    -0.268 OA
BRANCH  26  28
ATOM     28  C   UNL     1      -4.675   1.174  24.962  0.00  0.00    +0.055 A 
ATOM     29  C   UNL     1      -5.216   1.056  25.573  0.00  0.00    +0.005 A 
ATOM     30  C   UNL     1      -5.795   1.624  25.726  0.00  0.00    +0.000 A 
ATOM     31  C   UNL     1      -5.833   2.309  25.268  0.00  0.00    +0.000 A 
ATOM     32  C   UNL     1      -5.292   2.427  24.656  0.00  0.00    +0.000 A 
ATOM     33  C   UNL     1      -4.713   1.859  24.503  0.00  0.00    +0.005 A 
ENDBRANCH  26  28
ENDBRANCH  24  25
ENDBRANCH  23  24
TORSDOF 9
ENDMDL
MODEL 5
REMARK VINA RESULT:      -9.6      2.010      4.838
REMARK  Name = 
REMARK  9 active torsions:
REMARK  status: ('A' for Active; 'I' for Inactive)
REMARK    1  A    between atoms: C_2  and  C_4
REMARK    2  A    between atoms: C_6  and  C_7
REMARK    3  A    between atoms: C_7  and  C_8
REMARK    4  A    between atoms: N_10  and  C_11
REMARK    5  A    between atoms: C_11  and  C_12
REMARK    6  A    between atoms: C_15  and  C_18
REMARK    7  A    between atoms: C_23  and  C_24
REMARK    8  A    between atoms: C_24  and  N_25
REMARK    9  A    between atoms: C_26  and  C_28
REMARK                            x       y       z     vdW  Elec       q    Type
REMARK                         _______ _______ _______ _____ _____    ______ ____
ROOT
ATOM      4  C   UNL     1      -2.013   1.982  23.453  0.00  0.00    +0.006 C 
ATOM      5  C   UNL     1      -1.280   1.617  23.549  0.00  0.00    +0.005 C 
ATOM      6  C   UNL     1      -0.857   1.719  24.250  0.00  0.00    +0.027 C 
ATOM     20  C   UNL     1      -1.167   2.187  24.855  0.00  0.00    -0.048 C 
ATOM     21  C   UNL     1      -0.745   2.289  25.556  0.00  0.00    +0.026 C 
ATOM     22  C   UNL     1      -1.901   2.552  24.759  0.00  0.00    -0.033 C 
ATOM     23  C   UNL     1      -2.324   2.450  24.058  0.00  0.00    +0.043 C 
ENDROOT
BRANCH   4   2
ATOM      1  C   UNL     1      -2.913   1.214  22.652  0.00  0.00    +0.000 C 
ATOM      2  C   UNL     1      -2.435   1.880  22.752  0.00  0.00    +0.000 C 
ATOM      3  C   UNL     1      -2.380   2.442  22.151  0.00  0.00    +0.000 C 
ENDBRANCH   4   2
BRANCH   6   7
ATOM      7  C   UNL     1      -0.123   1.354  24.346  0.00  0.00    +0.091 C 
BRANCH   7   8
ATOM      8  C   UNL     1      -0.042   0.547  24.192  0.00  0.00    +0.242 C 
ATOM      9  O   UNL     1       0.431   0.292  23.566  0.00  0.00    -0.273 OA
ATOM     10  N   UNL     1      -0.434  -0.004  24.664  0.00  0.00    -0.201 NA
BRANCH  10  11
ATOM     11  C   UNL     1      -0.352  -0.811  24.509  0.00  0.00    +0.141 C 
BRANCH  11  12
ATOM     12  C   UNL     1      -0.999  -1.315  24.599  0.00  0.00    -0.001 A 
ATOM     13  C   UNL     1      -1.182  -1.863  24.010  0.00  0.00    -0.002 A 
ATOM     14  C   UNL     1      -1.829  -2.366  24.101  0.00  0.00    +0.010 A 
ATOM     15  C   UNL     1      -2.294  -2.322  24.780  0.00  0.00    +0.068 A 
ATOM     16  C   UNL     1      -2.112  -1.775  25.370  0.00  0.00    +0.010 A 
ATOM     17  C   UNL     1      -1.465  -1.271  25.280  0.00  0.00    -0.002 A 
BRANCH  15  18
ATOM     18  C   UNL     1      -2.941  -2.826  24.871  0.00  0.00    +0.100 C 
ATOM     19  N   UNL     1      -3.588  -3.329  24.962  0.00  0.00    -0.191 NA
ENDBRANCH  15  18
ENDBRANCH  11  12
ENDBRANCH  10  11
ENDBRANCH   7   8
ENDBRANCH   6   7
BRANCH  23  24
ATOM     24  C   UNL     1      -3.057   2.815  23.962  0.00  0.00    +0.120 C 
BRANCH  24  25
ATOM     25  N   UNL     1      -3.696   2.586  24.432  0.00  0.00    -0.201 NA
ATOM     26  C   UNL     1      -4.318   3.111  24.567  0.00  0.00    +0.265 C 
ATOM     27  O   UNL     1      -4.302   3.866  24.233  0.00  0.00    -0.268 OA
BRANCH  26  28
ATOM     28  C   UNL     1      -4.957   2.882  25.036  0.00  0.00    +0.055 A 
ATOM     29  C   UNL     1      -5.107   3.273  25.747  0.00  0.00    +0.005 A 
ATOM     30  C   UNL     1      -5.746   3.044  26.217  0.00  0.00    +0.000 A 
ATOM     31  C   UNL     1      -6.233   2.423  25.976  0.00  0.00    +0.000 A 
ATOM     32  C   UNL     1      -6.083   2.032  25.264  0.00  0.00    +0.000 A 
ATOM     33  C   UNL     1      -5.445   2.262  24.795  0.00  0.00    +0.005 A 
ENDBRANCH  26  28
ENDBRANCH  24  25
ENDBRANCH  23  24
TORSDOF 9
ENDMDL
MODEL 6
REMARK VINA RESULT:      -9.5      2.637      5.069
REMARK  Name = 
REMARK  9 active torsions:
REMARK  status: ('A' for Active; 'I' for Inactive)
REMARK    1  A    between atoms: C_2  and  C_4
REMARK    2  A    between atoms: C_6  and  C_7
REMARK    3  A    between atoms: C_7  and  C_8
REMARK    4  A    between atoms: N_10  and  C_11
REMARK    5  A    between atoms: C_11  and  C_12
REMARK    6  A    between atoms: C_15  and  C_18
REMARK    7  A    between atoms: C_23  and  C_24
REMARK    8  A    between atoms: C_24  and  N_25
REMARK    9  A    between atoms: C_26  and  C_28
REMARK                            x       y       z     vdW  Elec       q    Type
REMARK                         _______ _______ _______ _____ _____    ______ ____
ROOT
ATOM      4  C   UNL     1      -1.344   2.167  24.930  0.00  0.00    +0.006 C 
ATOM      5  C   UNL     1      -2.165   2.236  24.894  0.00  0.00    +0.005 C 
ATOM      6  C   UNL     1      -2.548   2.221  24.163  0.00  0.00    +0.027 C 
ATOM     20  C   UNL     1      -2.110   2.137  23.469  0.00  0.00    -0.048 C 
ATOM     21  C   UNL     1      -2.493   2.122  22.738  0.00  0.00    +0.026 C 
ATOM     22  C   UNL     1      -1.288   2.068  23.505  0.00  0.00    -0.033 C 
ATOM     23  C   UNL     1      -0.906   2.083  24.236  0.00  0.00    +0.043 C 
ENDROOT
BRANCH   4   2
ATOM      1  C   UNL     1      -0.804   1.476  26.058  0.00  0.00    +0.000 C 
ATOM      2  C   UNL     1      -0.961   2.182  25.661  0.00  0.00    +0.000 C 
ATOM      3  C   UNL     1      -0.737   2.902  25.995  0.00  0.00    +0.000 C 
ENDBRANCH   4   2
BRANCH   6   7
ATOM      7  C   UNL     1      -3.370   2.290  24.127  0.00  0.00    +0.091 C 
BRANCH   7   8
ATOM      8  C   UNL     1      -3.846   1.754  24.537  0.00  0.00    +0.242 C 
ATOM      9  O   UNL     1      -4.303   2.012  25.174  0.00  0.00    -0.273 OA
ATOM     10  N   UNL     1      -3.865   0.962  24.309  0.00  0.00    -0.201 NA
BRANCH  10  11
ATOM     11  C   UNL     1      -4.342   0.426  24.719  0.00  0.00    +0.141 C 
BRANCH  11  12
ATOM     12  C   UNL     1      -4.173  -0.381  24.690  0.00  0.00    -0.001 A 
ATOM     13  C   UNL     1      -4.363  -0.819  24.018  0.00  0.00    -0.002 A 
ATOM     14  C   UNL     1      -4.193  -1.626  23.990  0.00  0.00    +0.010 A 
ATOM     15  C   UNL     1      -3.835  -1.995  24.635  0.00  0.00    +0.068 A 
ATOM     16  C   UNL     1      -3.645  -1.557  25.307  0.00  0.00    +0.010 A 
ATOM     17  C   UNL     1      -3.814  -0.750  25.336  0.00  0.00    -0.002 A 
BRANCH  15  18
ATOM     18  C   UNL     1      -3.666  -2.802  24.607  0.00  0.00    +0.100 C 
ATOM     19  N   UNL     1      -3.496  -3.608  24.581  0.00  0.00    -0.191 NA
ENDBRANCH  15  18
ENDBRANCH  11  12
ENDBRANCH  10  11
ENDBRANCH   7   8
ENDBRANCH   6   7
BRANCH  23  24
ATOM     24  C   UNL     1      -0.084   2.015  24.272  0.00  0.00    +0.120 C 
BRANCH  24  25
ATOM     25  N   UNL     1       0.301   1.437  23.825  0.00  0.00    -0.201 NA
ATOM     26  C   UNL     1       1.119   1.472  23.723  0.00  0.00    +0.265 C 
ATOM     27  O   UNL     1       1.552   2.084  24.068  0.00  0.00    -0.268 OA
BRANCH  26  28
ATOM     28  C   UNL     1       1.504   0.895  23.276  0.00  0.00    +0.055 A 
ATOM     29  C   UNL     1       1.087   0.233  23.015  0.00  0.00    +0.005 A 
ATOM     30  C   UNL     1       1.472  -0.346  22.568  0.00  0.00    +0.000 A 
ATOM     31  C   UNL     1       2.271  -0.261  22.383  0.00  0.00    +0.000 A 
ATOM     32  C   UNL     1       2.687   0.403  22.645  0.00  0.00    +0.000 A 
ATOM     33  C   UNL     1       2.303   0.980  23.092  0.00  0.00    +0.005 A 
ENDBRANCH  26  28
ENDBRANCH  24  25
ENDBRANCH  23  24
TORSDOF 9
ENDMDL
MODEL 7
REMARK VINA RESULT:      -9.4      0.657      1.620
REMARK  Name = 
REMARK  9 active torsions:
REMARK  status: ('A' for Active; 'I' for Inactive)
REMARK    1  A    between atoms: C_2  and  C_4
REMARK    2  A    between atoms: C_6  and  C_7
REMARK    3  A    between atoms: C_7  and  C_8
REMARK    4  A    between atoms: N_10  and  C_11
REMARK    5  A    between atoms: C_11  and  C_12
REMARK    6  A    between atoms: C_15  and  C_18
REMARK    7  A    between atoms: C_23  and  C_24
REMARK    8  A    between atoms: C_24  and  N_25
REMARK    9  A    between atoms: C_26  and  C_28
REMARK                            x       y       z     vdW  Elec       q    Type
REMARK                         _______ _______ _______ _____ _____    ______ ____
ROOT
ATOM      4  C   UNL     1      -3.644   1.634  23.625  0.00  0.00    +0.006 C 
ATOM      5  C   UNL     1      -3.784   2.398  23.903  0.00  0.00    +0.005 C 
ATOM      6  C   UNL     1      -4.375   2.530  24.465  0.00  0.00    +0.027 C 
ATOM     20  C   UNL     1      -4.824   1.898  24.747  0.00  0.00    -0.048 C 
ATOM     21  C   UNL     1      -5.414   2.029  25.309  0.00  0.00    +0.026 C 
ATOM     22  C   UNL     1      -4.683   1.134  24.469  0.00  0.00    -0.033 C 
ATOM     23  C   UNL     1      -4.093   1.002  23.908  0.00  0.00    +0.043 C 
ENDROOT
BRANCH   4   2
ATOM      1  C   UNL     1      -2.306   1.246  23.304  0.00  0.00    +0.000 C 
ATOM      2  C   UNL     1      -3.053   1.503  23.064  0.00  0.00    +0.000 C 
ATOM      3  C   UNL     1      -3.209   1.628  22.264  0.00  0.00    +0.000 C 
ENDBRANCH   4   2
BRANCH   6   7
ATOM      7  C   UNL     1      -4.515   3.293  24.743  0.00  0.00    +0.091 C 
BRANCH   7   8
ATOM      8  C   UNL     1      -3.882   3.809  24.869  0.00  0.00    +0.242 C 
ATOM      9  O   UNL     1      -3.791   4.475  24.391  0.00  0.00    -0.273 OA
ATOM     10  N   UNL     1      -3.342   3.657  25.474  0.00  0.00    -0.201 NA
BRANCH  10  11
ATOM     11  C   UNL     1      -2.709   4.173  25.600  0.00  0.00    +0.141 C 
BRANCH  11  12
ATOM     12  C   UNL     1      -1.958   3.871  25.759  0.00  0.00    -0.001 A 
ATOM     13  C   UNL     1      -1.312   4.113  25.307  0.00  0.00    -0.002 A 
ATOM     14  C   UNL     1      -0.561   3.810  25.468  0.00  0.00    +0.010 A 
ATOM     15  C   UNL     1      -0.456   3.268  26.080  0.00  0.00    +0.068 A 
ATOM     16  C   UNL     1      -1.103   3.026  26.532  0.00  0.00    +0.010 A 
ATOM     17  C   UNL     1      -1.854   3.328  26.372  0.00  0.00    -0.002 A 
BRANCH  15  18
ATOM     18  C   UNL     1       0.295   2.966  26.240  0.00  0.00    +0.100 C 
ATOM     19  N   UNL     1       1.045   2.664  26.400  0.00  0.00    -0.191 NA
ENDBRANCH  15  18
ENDBRANCH  11  12
ENDBRANCH  10  11
ENDBRANCH   7   8
ENDBRANCH   6   7
BRANCH  23  24
ATOM     24  C   UNL     1      -3.953   0.239  23.629  0.00  0.00    +0.120 C 
BRANCH  24  25
ATOM     25  N   UNL     1      -3.751  -0.362  24.159  0.00  0.00    -0.201 NA
ATOM     26  C   UNL     1      -3.881  -1.152  23.955  0.00  0.00    +0.265 C 
ATOM     27  O   UNL     1      -4.212  -1.341  23.224  0.00  0.00    -0.268 OA
BRANCH  26  28
ATOM     28  C   UNL     1      -3.679  -1.752  24.484  0.00  0.00    +0.055 A 
ATOM     29  C   UNL     1      -3.669  -2.537  24.232  0.00  0.00    +0.005 A 
ATOM     30  C   UNL     1      -3.467  -3.138  24.761  0.00  0.00    +0.000 A 
ATOM     31  C   UNL     1      -3.275  -2.953  25.542  0.00  0.00    +0.000 A 
ATOM     32  C   UNL     1      -3.285  -2.167  25.794  0.00  0.00    +0.000 A 
ATOM     33  C   UNL     1      -3.487  -1.567  25.265  0.00  0.00    +0.005 A 
ENDBRANCH  26  28
ENDBRANCH  24  25
ENDBRANCH  23  24
TORSDOF 9
ENDMDL
MODEL 8
REMARK VINA RESULT:      -9.2      1.471      4.958
REMARK  Name = 
REMARK  9 active torsions:
REMARK  status: ('A' for Active; 'I' for Inactive)
REMARK    1  A    between atoms: C_2  and  C_4
REMARK    2  A    between atoms: C_6  and  C_7
REMARK    3  A    between atoms: C_7  and  C_8
REMARK    4  A    between atoms: N_10  and  C_11
REMARK    5  A    between atoms: C_11  and  C_12
REMARK    6  A    between atoms: C_15  and  C_18
REMARK    7  A    between atoms: C_23  and  C_24
REMARK    8  A    between atoms: C_24  and  N_25
REMARK    9  A    between atoms: C_26  and  C_28
REMARK                            x       y       z     vdW  Elec       q    Type
REMARK                         _______ _______ _______ _____ _____    ______ ____
ROOT
ATOM      4  C   UNL     1      -4.563   2.083  24.957  0.00  0.00    +0.006 C 
ATOM      5  C   UNL     1      -4.702   1.338  24.630  0.00  0.00    +0.005 C 
ATOM      6  C   UNL     1      -4.203   1.047  24.041  0.00  0.00    +0.027 C 
ATOM     20  C   UNL     1      -3.565   1.500  23.779  0.00  0.00    -0.048 C 
ATOM     21  C   UNL     1      -3.066   1.210  23.191  0.00  0.00    +0.026 C 
ATOM     22  C   UNL     1      -3.426   2.245  24.107  0.00  0.00    -0.033 C 
ATOM     23  C   UNL     1      -3.925   2.536  24.696  0.00  0.00    +0.043 C 
ENDROOT
BRANCH   4   2
ATOM      1  C   UNL     1      -5.681   2.883  25.347  0.00  0.00    +0.000 C 
ATOM      2  C   UNL     1      -5.062   2.373  25.546  0.00  0.00    +0.000 C 
ATOM      3  C   UNL     1      -4.944   2.155  26.333  0.00  0.00    +0.000 C 
ENDBRANCH   4   2
BRANCH   6   7
ATOM      7  C   UNL     1      -4.342   0.302  23.714  0.00  0.00    +0.091 C 
BRANCH   7   8
ATOM      8  C   UNL     1      -4.223  -0.376  24.169  0.00  0.00    +0.242 C 
ATOM      9  O   UNL     1      -4.860  -0.732  24.554  0.00  0.00    -0.273 OA
ATOM     10  N   UNL     1      -3.467  -0.698  24.239  0.00  0.00    -0.201 NA
BRANCH  10  11
ATOM     11  C   UNL     1      -3.348  -1.377  24.694  0.00  0.00    +0.141 C 
BRANCH  11  12
ATOM     12  C   UNL     1      -2.581  -1.627  24.867  0.00  0.00    -0.001 A 
ATOM     13  C   UNL     1      -2.237  -2.236  24.428  0.00  0.00    -0.002 A 
ATOM     14  C   UNL     1      -1.470  -2.486  24.602  0.00  0.00    +0.010 A 
ATOM     15  C   UNL     1      -1.048  -2.128  25.213  0.00  0.00    +0.068 A 
ATOM     16  C   UNL     1      -1.392  -1.520  25.652  0.00  0.00    +0.010 A 
ATOM     17  C   UNL     1      -2.159  -1.269  25.479  0.00  0.00    -0.002 A 
BRANCH  15  18
ATOM     18  C   UNL     1      -0.281  -2.378  25.387  0.00  0.00    +0.100 C 
ATOM     19  N   UNL     1       0.485  -2.629  25.561  0.00  0.00    -0.191 NA
ENDBRANCH  15  18
ENDBRANCH  11  12
ENDBRANCH  10  11
ENDBRANCH   7   8
ENDBRANCH   6   7
BRANCH  23  24
ATOM     24  C   UNL     1      -3.786   3.280  25.022  0.00  0.00    +0.120 C 
BRANCH  24  25
ATOM     25  N   UNL     1      -3.082   3.679  24.855  0.00  0.00    -0.201 NA
ATOM     26  C   UNL     1      -2.773   4.215  25.401  0.00  0.00    +0.265 C 
ATOM     27  O   UNL     1      -3.166   4.353  26.113  0.00  0.00    -0.268 OA
BRANCH  26  28
ATOM     28  C   UNL     1      -2.070   4.613  25.233  0.00  0.00    +0.055 A 
ATOM     29  C   UNL     1      -1.360   4.195  25.193  0.00  0.00    +0.005 A 
ATOM     30  C   UNL     1      -0.656   4.593  25.025  0.00  0.00    +0.000 A 
ATOM     31  C   UNL     1      -0.663   5.408  24.898  0.00  0.00    +0.000 A 
ATOM     32  C   UNL     1      -1.374   5.826  24.939  0.00  0.00    +0.000 A 
ATOM     33  C   UNL     1      -2.077   5.429  25.106  0.00  0.00    +0.005 A 
ENDBRANCH  26  28
ENDBRANCH  24  25
ENDBRANCH  23  24
TORSDOF 9
ENDMDL
MODEL 9
REMARK VINA RESULT:      -9.2      3.013      4.903
REMARK  Name = 
REMARK  9 active torsions:
REMARK  status: ('A' for Active; 'I' for Inactive)
REMARK    1  A    between atoms: C_2  and  C_4
REMARK    2  A    between atoms: C_6  and  C_7
REMARK    3  A    between atoms: C_7  and  C_8
REMARK    4  A    between atoms: N_10  and  C_11
REMARK    5  A    between atoms: C_11  and  C_12
REMARK    6  A    between atoms: C_15  and  C_18
REMARK    7  A    between atoms: C_23  and  C_24
REMARK    8  A    between atoms: C_24  and  N_25
REMARK    9  A    between atoms: C_26  and  C_28
REMARK                            x       y       z     vdW  Elec       q    Type
REMARK                         _______ _______ _______ _____ _____    ______ ____
ROOT
ATOM      4  C   UNL     1      -1.043   1.267  24.971  0.00  0.00    +0.006 C 
ATOM      5  C   UNL     1      -1.360   1.931  25.345  0.00  0.00    +0.005 C 
ATOM      6  C   UNL     1      -0.992   2.665  25.262  0.00  0.00    +0.027 C 
ATOM     20  C   UNL     1      -0.309   2.735  24.805  0.00  0.00    -0.048 C 
ATOM     21  C   UNL     1       0.059   3.469  24.722  0.00  0.00    +0.026 C 
ATOM     22  C   UNL     1       0.008   2.071  24.431  0.00  0.00    -0.033 C 
ATOM     23  C   UNL     1      -0.360   1.337  24.514  0.00  0.00    +0.043 C 
ENDROOT
BRANCH   4   2
ATOM      1  C   UNL     1      -1.234   0.055  25.703  0.00  0.00    +0.000 C 
ATOM      2  C   UNL     1      -1.411   0.534  25.054  0.00  0.00    +0.000 C 
ATOM      3  C   UNL     1      -1.956   0.278  24.490  0.00  0.00    +0.000 C 
ENDBRANCH   4   2
BRANCH   6   7
ATOM      7  C   UNL     1      -1.308   3.329  25.636  0.00  0.00    +0.091 C 
BRANCH   7   8
ATOM      8  C   UNL     1      -1.992   3.684  25.338  0.00  0.00    +0.242 C 
ATOM      9  O   UNL     1      -1.932   4.322  24.818  0.00  0.00    -0.273 OA
ATOM     10  N   UNL     1      -2.734   3.399  25.559  0.00  0.00    -0.201 NA
BRANCH  10  11
ATOM     11  C   UNL     1      -3.417   3.754  25.260  0.00  0.00    +0.141 C 
BRANCH  11  12
ATOM     12  C   UNL     1      -4.118   3.322  25.213  0.00  0.00    -0.001 A 
ATOM     13  C   UNL     1      -4.610   3.259  25.873  0.00  0.00    -0.002 A 
ATOM     14  C   UNL     1      -5.311   2.827  25.824  0.00  0.00    +0.010 A 
ATOM     15  C   UNL     1      -5.520   2.458  25.117  0.00  0.00    +0.068 A 
ATOM     16  C   UNL     1      -5.029   2.521  24.458  0.00  0.00    +0.010 A 
ATOM     17  C   UNL     1      -4.328   2.953  24.505  0.00  0.00    -0.002 A 
BRANCH  15  18
ATOM     18  C   UNL     1      -6.222   2.026  25.068  0.00  0.00    +0.100 C 
ATOM     19  N   UNL     1      -6.922   1.593  25.020  0.00  0.00    -0.191 NA
ENDBRANCH  15  18
ENDBRANCH  11  12
ENDBRANCH  10  11
ENDBRANCH   7   8
ENDBRANCH   6   7
BRANCH  23  24
ATOM     24  C   UNL     1      -0.043   0.674  24.140  0.00  0.00    +0.120 C 
BRANCH  24  25
ATOM     25  N   UNL     1       0.663   0.736  23.718  0.00  0.00    -0.201 NA
ATOM     26  C   UNL     1       0.974   0.075  23.334  0.00  0.00    +0.265 C 
ATOM     27  O   UNL     1       0.579  -0.648  23.371  0.00  0.00    -0.268 OA
BRANCH  26  28
ATOM     28  C   UNL     1       1.680   0.138  22.912  0.00  0.00    +0.055 A 
ATOM     29  C   UNL     1       1.729  -0.158  22.144  0.00  0.00    +0.005 A 
ATOM     30  C   UNL     1       2.436  -0.095  21.722  0.00  0.00    +0.000 A 
ATOM     31  C   UNL     1       3.093   0.264  22.068  0.00  0.00    +0.000 A 
ATOM     32  C   UNL     1       3.044   0.561  22.837  0.00  0.00    +0.000 A 
ATOM     33  C   UNL     1       2.337   0.498  23.258  0.00  0.00    +0.005 A 
ENDBRANCH  26  28
ENDBRANCH  24  25
ENDBRANCH  23  24
TORSDOF 9
ENDMDL
