MODEL 1
REMARK VINA RESULT:     -11.1      0.000      0.000
REMARK  Name = 
REMARK  7 active torsions:
REMARK  status: ('A' for Active; 'I' for Inactive)
REMARK    1  A    between atoms: C_4  and  C_15
REMARK    2  A    between atoms: C_6  and  C_8
REMARK    3  A    between atoms: C_22  and  C_23
REMARK    4  A    between atoms: C_23  and  N_24
REMARK    5  A    between atoms: C_25  and  C_27
REMARK    6  A    between atoms: C_27  and  O_28
REMARK    7  A    between atoms: O_28  and  C_29
REMARK                            x       y       z     vdW  Elec       q    Type
REMARK                         _______ _______ _______ _____ _____    ______ ____
ROOT
ATOM     15  C   UNL     1      -1.433   0.733  24.023  0.00  0.00    +0.056 C 
ATOM     16  C   UNL     1      -1.293   0.908  23.277  0.00  0.00    +0.078 C 
ATOM     17  N   UNL     1      -0.787   0.498  23.785  0.00  0.00    -0.272 NA
ATOM     18  C   UNL     1      -1.269   0.430  24.714  0.00  0.00    +0.072 C 
ATOM     19  C   UNL     1      -1.277   0.231  25.336  0.00  0.00    +0.018 C 
ATOM     20  C   UNL     1      -0.931   0.331  24.515  0.00  0.00    +0.010 C 
ATOM     21  C   UNL     1      -0.133  -0.013  24.388  0.00  0.00    +0.018 C 
ATOM     22  C   UNL     1       0.042   0.139  23.661  0.00  0.00    +0.079 C 
ENDROOT
BRANCH  15   4
ATOM      1  C   UNL     1      -4.094   0.131  24.878  0.00  0.00    +0.074 C 
ATOM      2  C   UNL     1      -3.485   0.678  24.767  0.00  0.00    +0.139 A 
ATOM      3  N   UNL     1      -2.764   0.432  24.451  0.00  0.00    -0.235 NA
ATOM      4  C   UNL     1      -2.155   0.979  24.340  0.00  0.00    +0.063 A 
ATOM      5  C   UNL     1      -2.267   1.769  24.545  0.00  0.00    +0.034 A 
ATOM      6  C   UNL     1      -2.988   2.014  24.862  0.00  0.00    +0.084 A 
ATOM      7  N   UNL     1      -3.597   1.469  24.973  0.00  0.00    -0.231 NA
BRANCH   6   8
ATOM      8  C   UNL     1      -3.101   2.805  25.068  0.00  0.00    +0.024 A 
ATOM      9  C   UNL     1      -3.529   3.304  24.569  0.00  0.00    +0.036 A 
ATOM     10 BR   UNL     1      -3.843   3.011  23.864  0.00  0.00    -0.049 Br
ATOM     11  C   UNL     1      -3.643   4.095  24.774  0.00  0.00    +0.007 A 
ATOM     12  C   UNL     1      -3.329   4.387  25.479  0.00  0.00    +0.001 A 
ATOM     13  C   UNL     1      -2.901   3.888  25.977  0.00  0.00    +0.000 A 
ATOM     14  C   UNL     1      -2.788   3.097  25.772  0.00  0.00    +0.002 A 
ENDBRANCH   6   8
ENDBRANCH  15   4
BRANCH  22  23
ATOM     23  C   UNL     1       0.634   0.037  23.095  0.00  0.00    +0.131 C 
BRANCH  23  24
ATOM     24  N   UNL     1       1.416   0.225  23.278  0.00  0.00    -0.201 NA
ATOM     25  C   UNL     1       2.007   0.119  22.712  0.00  0.00    +0.286 C 
ATOM     26  O   UNL     1       1.817  -0.174  21.965  0.00  0.00    -0.269 OA
BRANCH  25  27
ATOM     27  C   UNL     1       2.790   0.308  22.895  0.00  0.00    +0.291 C 
BRANCH  27  28
ATOM     28  O   UNL     1       3.389  -0.242  22.757  0.00  0.00    -0.466 OA
BRANCH  28  29
ATOM     29  C   UNL     1       4.120  -0.157  23.130  0.00  0.00    +0.139 A 
ATOM     30  C   UNL     1       4.546   0.544  23.049  0.00  0.00    +0.037 A 
ATOM     31  C   UNL     1       5.277   0.629  23.422  0.00  0.00    +0.003 A 
ATOM     32  C   UNL     1       5.582   0.011  23.876  0.00  0.00    +0.000 A 
ATOM     33  C   UNL     1       5.157  -0.691  23.957  0.00  0.00    +0.003 A 
ATOM     34  C   UNL     1       4.426  -0.775  23.584  0.00  0.00    +0.037 A 
ENDBRANCH  28  29
ENDBRANCH  27  28
ENDBRANCH  25  27
ENDBRANCH  23  24
ENDBRANCH  22  23
TORSDOF 7
ENDMDL
MODEL 2
REMARK VINA RESULT:     -10.8      0.928      1.554
REMARK  Name = 
REMARK  7 active torsions:
REMARK  status: ('A' for Active; 'I' for Inactive)
REMARK    1  A    between atoms: C_4  and  C_15
REMARK    2  A    between atoms: C_6  and  C_8
REMARK    3  A    between atoms: C_22  and  C_23
REMARK    4  A    between atoms: C_23  and  N_24
REMARK    5  A    between atoms: C_25  and  C_27
REMARK    6  A    between atoms: C_27  and  O_28
REMARK    7  A    between atoms: O_28  and  C_29
REMARK                            x       y       z     vdW  Elec       q    Type
REMARK                         _______ _______ _______ _____ _____    ______ ____
ROOT
ATOM     15  C   UNL     1      -1.108   1.554  24.302  0.00  0.00    +0.056 C 
ATOM     16  C   UNL     1      -0.934   1.729  23.564  0.00  0.00    +0.078 C 
ATOM     17  N   UNL     1      -0.592   1.129  24.018  0.00  0.00    -0.272 NA
ATOM     18  C   UNL     1      -1.046   1.158  24.962  0.00  0.00    +0.072 C 
ATOM     19  C   UNL     1      -1.108   0.926  25.570  0.00  0.00    +0.018 C 
ATOM     20  C   UNL     1      -0.768   0.964  24.741  0.00  0.00    +0.010 C 
ATOM     21  C   UNL     1      -0.146   0.375  24.551  0.00  0.00    +0.018 C 
ATOM     22  C   UNL     1       0.055   0.514  23.828  0.00  0.00    +0.079 C 
ENDROOT
BRANCH  15   4
ATOM      1  C   UNL     1      -1.844   3.780  25.938  0.00  0.00    +0.074 C 
ATOM      2  C   UNL     1      -2.058   3.122  25.488  0.00  0.00    +0.139 A 
ATOM      3  N   UNL     1      -1.477   2.667  25.121  0.00  0.00    -0.235 NA
ATOM      4  C   UNL     1      -1.691   2.009  24.671  0.00  0.00    +0.063 A 
ATOM      5  C   UNL     1      -2.486   1.806  24.589  0.00  0.00    +0.034 A 
ATOM      6  C   UNL     1      -3.067   2.261  24.957  0.00  0.00    +0.084 A 
ATOM      7  N   UNL     1      -2.854   2.919  25.407  0.00  0.00    -0.231 NA
BRANCH   6   8
ATOM      8  C   UNL     1      -3.863   2.059  24.876  0.00  0.00    +0.024 A 
ATOM      9  C   UNL     1      -4.351   2.499  24.377  0.00  0.00    +0.036 A 
ATOM     10 BR   UNL     1      -4.043   3.140  23.959  0.00  0.00    -0.049 Br
ATOM     11  C   UNL     1      -5.147   2.297  24.295  0.00  0.00    +0.007 A 
ATOM     12  C   UNL     1      -5.454   1.655  24.713  0.00  0.00    +0.001 A 
ATOM     13  C   UNL     1      -4.966   1.216  25.211  0.00  0.00    +0.000 A 
ATOM     14  C   UNL     1      -4.170   1.417  25.293  0.00  0.00    +0.002 A 
ENDBRANCH   6   8
ENDBRANCH  15   4
BRANCH  22  23
ATOM     23  C   UNL     1       0.560   0.259  23.229  0.00  0.00    +0.131 C 
BRANCH  23  24
ATOM     24  N   UNL     1       1.371   0.397  23.285  0.00  0.00    -0.201 NA
ATOM     25  C   UNL     1       1.877   0.124  22.693  0.00  0.00    +0.286 C 
ATOM     26  O   UNL     1       1.573  -0.286  22.046  0.00  0.00    -0.269 OA
BRANCH  25  27
ATOM     27  C   UNL     1       2.689   0.262  22.749  0.00  0.00    +0.291 C 
BRANCH  27  28
ATOM     28  O   UNL     1       3.211  -0.371  22.834  0.00  0.00    -0.466 OA
BRANCH  28  29
ATOM     29  C   UNL     1       3.970  -0.244  23.131  0.00  0.00    +0.139 A 
ATOM     30  C   UNL     1       4.369   0.455  22.957  0.00  0.00    +0.037 A 
ATOM     31  C   UNL     1       5.129   0.583  23.253  0.00  0.00    +0.003 A 
ATOM     32  C   UNL     1       5.488   0.009  23.725  0.00  0.00    +0.000 A 
ATOM     33  C   UNL     1       5.089  -0.692  23.899  0.00  0.00    +0.003 A 
ATOM     34  C   UNL     1       4.330  -0.818  23.602  0.00  0.00    +0.037 A 
ENDBRANCH  28  29
ENDBRANCH  27  28
ENDBRANCH  25  27
ENDBRANCH  23  24
ENDBRANCH  22  23
TORSDOF 7
ENDMDL
MODEL 3
REMARK VINA RESULT:     -10.5      2.129      3.009
REMARK  Name = 
REMARK  7 active torsions:
REMARK  status: ('A' for Active; 'I' for Inactive)
REMARK    1  A    between atoms: C_4  and  C_15
REMARK    2  A    between atoms: C_6  and  C_8
REMARK    3  A    between atoms: C_22  and  C_23
REMARK    4  A    between atoms: C_23  and  N_24
REMARK    5  A    between atoms: C_25  and  C_27
REMARK    6  A    between atoms: C_27  and  O_28
REMARK    7  A    between atoms: O_28  and  C_29
REMARK                            x       y       z     vdW  Elec       q    Type
REMARK                         _______ _______ _______ _____ _____    ______ ____
ROOT
ATOM     15  C   UNL     1      -0.517  -0.448  24.165  0.00  0.00    +0.056 C 
ATOM     16  C   UNL     1      -0.091  -1.016  23.846  0.00  0.00    +0.078 C 
ATOM     17  N   UNL     1       0.013  -0.205  23.731  0.00  0.00    -0.272 NA
ATOM     18  C   UNL     1      -0.720   0.285  24.298  0.00  0.00    +0.072 C 
ATOM     19  C   UNL     1      -1.005   0.835  24.504  0.00  0.00    +0.018 C 
ATOM     20  C   UNL     1      -0.409   0.346  24.047  0.00  0.00    +0.010 C 
ATOM     21  C   UNL     1       0.171   0.795  23.565  0.00  0.00    +0.018 C 
ATOM     22  C   UNL     1       0.613   0.269  23.232  0.00  0.00    +0.079 C 
ENDROOT
BRANCH  15   4
ATOM      1  C   UNL     1      -1.566  -0.779  26.803  0.00  0.00    +0.074 C 
ATOM      2  C   UNL     1      -1.657  -0.840  25.985  0.00  0.00    +0.139 A 
ATOM      3  N   UNL     1      -1.042  -0.614  25.484  0.00  0.00    -0.235 NA
ATOM      4  C   UNL     1      -1.133  -0.674  24.666  0.00  0.00    +0.063 A 
ATOM      5  C   UNL     1      -1.839  -0.960  24.350  0.00  0.00    +0.034 A 
ATOM      6  C   UNL     1      -2.454  -1.186  24.851  0.00  0.00    +0.084 A 
ATOM      7  N   UNL     1      -2.363  -1.126  25.669  0.00  0.00    -0.231 NA
BRANCH   6   8
ATOM      8  C   UNL     1      -3.160  -1.472  24.535  0.00  0.00    +0.024 A 
ATOM      9  C   UNL     1      -3.275  -2.285  24.452  0.00  0.00    +0.036 A 
ATOM     10 BR   UNL     1      -2.684  -2.810  24.685  0.00  0.00    -0.049 Br
ATOM     11  C   UNL     1      -3.982  -2.572  24.136  0.00  0.00    +0.007 A 
ATOM     12  C   UNL     1      -4.573  -2.045  23.903  0.00  0.00    +0.001 A 
ATOM     13  C   UNL     1      -4.458  -1.233  23.986  0.00  0.00    +0.000 A 
ATOM     14  C   UNL     1      -3.751  -0.946  24.302  0.00  0.00    +0.002 A 
ENDBRANCH   6   8
ENDBRANCH  15   4
BRANCH  22  23
ATOM     23  C   UNL     1       1.255   0.181  22.722  0.00  0.00    +0.131 C 
BRANCH  23  24
ATOM     24  N   UNL     1       2.019   0.342  22.988  0.00  0.00    -0.201 NA
ATOM     25  C   UNL     1       2.659   0.261  22.475  0.00  0.00    +0.286 C 
ATOM     26  O   UNL     1       2.536   0.018  21.696  0.00  0.00    -0.269 OA
BRANCH  25  27
ATOM     27  C   UNL     1       3.423   0.423  22.741  0.00  0.00    +0.291 C 
BRANCH  27  28
ATOM     28  O   UNL     1       3.990  -0.177  22.758  0.00  0.00    -0.466 OA
BRANCH  28  29
ATOM     29  C   UNL     1       4.629  -0.126  23.277  0.00  0.00    +0.139 A 
ATOM     30  C   UNL     1       4.845  -0.780  23.730  0.00  0.00    +0.037 A 
ATOM     31  C   UNL     1       5.484  -0.730  24.250  0.00  0.00    +0.003 A 
ATOM     32  C   UNL     1       5.906  -0.024  24.317  0.00  0.00    +0.000 A 
ATOM     33  C   UNL     1       5.690   0.631  23.864  0.00  0.00    +0.003 A 
ATOM     34  C   UNL     1       5.051   0.579  23.344  0.00  0.00    +0.037 A 
ENDBRANCH  28  29
ENDBRANCH  27  28
ENDBRANCH  25  27
ENDBRANCH  23  24
ENDBRANCH  22  23
TORSDOF 7
ENDMDL
MODEL 4
REMARK VINA RESULT:     -10.5      2.878      4.538
REMARK  Name = 
REMARK  7 active torsions:
REMARK  status: ('A' for Active; 'I' for Inactive)
REMARK    1  A    between atoms: C_4  and  C_15
REMARK    2  A    between atoms: C_6  and  C_8
REMARK    3  A    between atoms: C_22  and  C_23
REMARK    4  A    between atoms: C_23  and  N_24
REMARK    5  A    between atoms: C_25  and  C_27
REMARK    6  A    between atoms: C_27  and  O_28
REMARK    7  A    between atoms: O_28  and  C_29
REMARK                            x       y       z     vdW  Elec       q    Type
REMARK                         _______ _______ _______ _____ _____    ______ ____
ROOT
ATOM     15  C   UNL     1      -1.298   2.148  24.990  0.00  0.00    +0.056 C 
ATOM     16  C   UNL     1      -1.487   1.703  24.380  0.00  0.00    +0.078 C 
ATOM     17  N   UNL     1      -0.971   1.499  24.991  0.00  0.00    -0.272 NA
ATOM     18  C   UNL     1      -0.934   2.313  25.651  0.00  0.00    +0.072 C 
ATOM     19  C   UNL     1      -0.707   2.593  26.196  0.00  0.00    +0.018 C 
ATOM     20  C   UNL     1      -0.791   1.941  25.586  0.00  0.00    +0.010 C 
ATOM     21  C   UNL     1      -0.324   1.213  25.734  0.00  0.00    +0.018 C 
ATOM     22  C   UNL     1      -0.483   0.745  25.152  0.00  0.00    +0.079 C 
ENDROOT
BRANCH  15   4
ATOM      1  C   UNL     1      -1.061   4.996  24.901  0.00  0.00    +0.074 C 
ATOM      2  C   UNL     1      -1.526   4.320  24.989  0.00  0.00    +0.139 A 
ATOM      3  N   UNL     1      -1.180   3.573  24.946  0.00  0.00    -0.235 NA
ATOM      4  C   UNL     1      -1.645   2.897  25.034  0.00  0.00    +0.063 A 
ATOM      5  C   UNL     1      -2.456   2.968  25.165  0.00  0.00    +0.034 A 
ATOM      6  C   UNL     1      -2.802   3.715  25.209  0.00  0.00    +0.084 A 
ATOM      7  N   UNL     1      -2.338   4.391  25.121  0.00  0.00    -0.231 NA
BRANCH   6   8
ATOM      8  C   UNL     1      -3.613   3.787  25.340  0.00  0.00    +0.024 A 
ATOM      9  C   UNL     1      -4.135   3.800  24.701  0.00  0.00    +0.036 A 
ATOM     10 BR   UNL     1      -3.845   3.741  23.931  0.00  0.00    -0.049 Br
ATOM     11  C   UNL     1      -4.947   3.872  24.832  0.00  0.00    +0.007 A 
ATOM     12  C   UNL     1      -5.236   3.931  25.602  0.00  0.00    +0.001 A 
ATOM     13  C   UNL     1      -4.715   3.918  26.241  0.00  0.00    +0.000 A 
ATOM     14  C   UNL     1      -3.903   3.846  26.110  0.00  0.00    +0.002 A 
ENDBRANCH   6   8
ENDBRANCH  15   4
BRANCH  22  23
ATOM     23  C   UNL     1      -0.312  -0.002  24.848  0.00  0.00    +0.131 C 
BRANCH  23  24
ATOM     24  N   UNL     1      -0.925  -0.500  24.608  0.00  0.00    -0.201 NA
ATOM     25  C   UNL     1      -0.873  -1.312  24.744  0.00  0.00    +0.286 C 
ATOM     26  O   UNL     1      -0.209  -1.626  25.120  0.00  0.00    -0.269 OA
BRANCH  25  27
ATOM     27  C   UNL     1      -1.486  -1.810  24.505  0.00  0.00    +0.291 C 
BRANCH  27  28
ATOM     28  O   UNL     1      -2.170  -1.871  24.962  0.00  0.00    -0.466 OA
BRANCH  28  29
ATOM     29  C   UNL     1      -2.885  -2.083  24.608  0.00  0.00    +0.139 A 
ATOM     30  C   UNL     1      -3.425  -1.501  24.387  0.00  0.00    +0.037 A 
ATOM     31  C   UNL     1      -4.140  -1.714  24.034  0.00  0.00    +0.003 A 
ATOM     32  C   UNL     1      -4.313  -2.509  23.901  0.00  0.00    +0.000 A 
ATOM     33  C   UNL     1      -3.773  -3.092  24.121  0.00  0.00    +0.003 A 
ATOM     34  C   UNL     1      -3.058  -2.879  24.475  0.00  0.00    +0.037 A 
ENDBRANCH  28  29
ENDBRANCH  27  28
ENDBRANCH  25  27
ENDBRANCH  23  24
ENDBRANCH  22  23
TORSDOF 7
ENDMDL
MODEL 5
REMARK VINA RESULT:      -9.4      3.611      5.770
REMARK  Name = 
REMARK  7 active torsions:
REMARK  status: ('A' for Active; 'I' for Inactive)
REMARK    1  A    between atoms: C_4  and  C_15
REMARK    2  A    between atoms: C_6  and  C_8
REMARK    3  A    between atoms: C_22  and  C_23
REMARK    4  A    between atoms: C_23  and  N_24
REMARK    5  A    between atoms: C_25  and  C_27
REMARK    6  A    between atoms: C_27  and  O_28
REMARK    7  A    between atoms: O_28  and  C_29
REMARK                            x       y       z     vdW  Elec       q    Type
REMARK                         _______ _______ _______ _____ _____    ______ ____
ROOT
ATOM     15  C   UNL     1      -3.958   0.402  24.454  0.00  0.00    +0.056 C 
ATOM     16  C   UNL     1      -3.696   0.964  23.982  0.00  0.00    +0.078 C 
ATOM     17  N   UNL     1      -4.248   1.055  24.590  0.00  0.00    -0.272 NA
ATOM     18  C   UNL     1      -4.383   0.113  25.030  0.00  0.00    +0.072 C 
ATOM     19  C   UNL     1      -4.668  -0.270  25.475  0.00  0.00    +0.018 C 
ATOM     20  C   UNL     1      -4.499   0.500  25.048  0.00  0.00    +0.010 C 
ATOM     21  C   UNL     1      -4.935   1.205  25.336  0.00  0.00    +0.018 C 
ATOM     22  C   UNL     1      -4.704   1.784  24.895  0.00  0.00    +0.079 C 
ENDROOT
BRANCH  15   4
ATOM      1  C   UNL     1      -4.333  -2.306  23.620  0.00  0.00    +0.074 C 
ATOM      2  C   UNL     1      -3.846  -1.712  23.921  0.00  0.00    +0.139 A 
ATOM      3  N   UNL     1      -4.146  -0.953  24.037  0.00  0.00    -0.235 NA
ATOM      4  C   UNL     1      -3.658  -0.359  24.338  0.00  0.00    +0.063 A 
ATOM      5  C   UNL     1      -2.872  -0.524  24.524  0.00  0.00    +0.034 A 
ATOM      6  C   UNL     1      -2.573  -1.284  24.408  0.00  0.00    +0.084 A 
ATOM      7  N   UNL     1      -3.059  -1.878  24.107  0.00  0.00    -0.231 NA
BRANCH   6   8
ATOM      8  C   UNL     1      -1.787  -1.451  24.594  0.00  0.00    +0.024 A 
ATOM      9  C   UNL     1      -1.607  -2.064  25.116  0.00  0.00    +0.036 A 
ATOM     10 BR   UNL     1      -2.214  -2.510  25.452  0.00  0.00    -0.049 Br
ATOM     11  C   UNL     1      -0.821  -2.231  25.302  0.00  0.00    +0.007 A 
ATOM     12  C   UNL     1      -0.214  -1.785  24.966  0.00  0.00    +0.001 A 
ATOM     13  C   UNL     1      -0.393  -1.172  24.444  0.00  0.00    +0.000 A 
ATOM     14  C   UNL     1      -1.179  -1.005  24.258  0.00  0.00    +0.002 A 
ENDBRANCH   6   8
ENDBRANCH  15   4
BRANCH  22  23
ATOM     23  C   UNL     1      -4.807   2.592  24.769  0.00  0.00    +0.131 C 
BRANCH  23  24
ATOM     24  N   UNL     1      -4.151   3.090  24.727  0.00  0.00    -0.201 NA
ATOM     25  C   UNL     1      -4.187   3.848  25.051  0.00  0.00    +0.286 C 
ATOM     26  O   UNL     1      -4.879   4.107  25.419  0.00  0.00    -0.269 OA
BRANCH  25  27
ATOM     27  C   UNL     1      -3.531   4.346  25.008  0.00  0.00    +0.291 C 
BRANCH  27  28
ATOM     28  O   UNL     1      -2.918   4.270  25.556  0.00  0.00    -0.466 OA
BRANCH  28  29
ATOM     29  C   UNL     1      -2.147   4.472  25.343  0.00  0.00    +0.139 A 
ATOM     30  C   UNL     1      -1.962   5.254  25.158  0.00  0.00    +0.037 A 
ATOM     31  C   UNL     1      -1.191   5.456  24.946  0.00  0.00    +0.003 A 
ATOM     32  C   UNL     1      -0.605   4.876  24.918  0.00  0.00    +0.000 A 
ATOM     33  C   UNL     1      -0.790   4.093  25.103  0.00  0.00    +0.003 A 
ATOM     34  C   UNL     1      -1.562   3.892  25.315  0.00  0.00    +0.037 A 
ENDBRANCH  28  29
ENDBRANCH  27  28
ENDBRANCH  25  27
ENDBRANCH  23  24
ENDBRANCH  22  23
TORSDOF 7
ENDMDL
MODEL 6
REMARK VINA RESULT:      -9.0      3.129      6.046
REMARK  Name = 
REMARK  7 active torsions:
REMARK  status: ('A' for Active; 'I' for Inactive)
REMARK    1  A    between atoms: C_4  and  C_15
REMARK    2  A    between atoms: C_6  and  C_8
REMARK    3  A    between atoms: C_22  and  C_23
REMARK    4  A    between atoms: C_23  and  N_24
REMARK    5  A    between atoms: C_25  and  C_27
REMARK    6  A    between atoms: C_27  and  O_28
REMARK    7  A    between atoms: O_28  and  C_29
REMARK                            x       y       z     vdW  Elec       q    Type
REMARK                         _______ _______ _______ _____ _____    ______ ____
ROOT
ATOM     15  C   UNL     1      -1.039   0.313  24.906  0.00  0.00    +0.056 C 
ATOM     16  C   UNL     1      -1.440   0.729  25.426  0.00  0.00    +0.078 C 
ATOM     17  N   UNL     1      -0.970   1.031  24.819  0.00  0.00    -0.272 NA
ATOM     18  C   UNL     1      -0.570   0.212  24.300  0.00  0.00    +0.072 C 
ATOM     19  C   UNL     1      -0.199  -0.030  23.820  0.00  0.00    +0.018 C 
ATOM     20  C   UNL     1      -0.579   0.616  24.312  0.00  0.00    +0.010 C 
ATOM     21  C   UNL     1      -0.394   1.441  24.076  0.00  0.00    +0.018 C 
ATOM     22  C   UNL     1      -0.773   1.886  24.567  0.00  0.00    +0.079 C 
ENDROOT
BRANCH  15   4
ATOM      1  C   UNL     1       0.184  -2.199  25.512  0.00  0.00    +0.074 C 
ATOM      2  C   UNL     1      -0.474  -1.766  25.266  0.00  0.00    +0.139 A 
ATOM      3  N   UNL     1      -0.428  -0.944  25.209  0.00  0.00    -0.235 NA
ATOM      4  C   UNL     1      -1.085  -0.510  24.963  0.00  0.00    +0.063 A 
ATOM      5  C   UNL     1      -1.788  -0.897  24.774  0.00  0.00    +0.034 A 
ATOM      6  C   UNL     1      -1.834  -1.719  24.832  0.00  0.00    +0.084 A 
ATOM      7  N   UNL     1      -1.177  -2.153  25.077  0.00  0.00    -0.231 NA
BRANCH   6   8
ATOM      8  C   UNL     1      -2.537  -2.107  24.643  0.00  0.00    +0.024 A 
ATOM      9  C   UNL     1      -3.147  -2.148  25.198  0.00  0.00    +0.036 A 
ATOM     10 BR   UNL     1      -3.053  -1.801  25.940  0.00  0.00    -0.049 Br
ATOM     11  C   UNL     1      -3.850  -2.537  25.010  0.00  0.00    +0.007 A 
ATOM     12  C   UNL     1      -3.944  -2.884  24.267  0.00  0.00    +0.001 A 
ATOM     13  C   UNL     1      -3.335  -2.842  23.713  0.00  0.00    +0.000 A 
ATOM     14  C   UNL     1      -2.631  -2.454  23.901  0.00  0.00    +0.002 A 
ENDBRANCH   6   8
ENDBRANCH  15   4
BRANCH  22  23
ATOM     23  C   UNL     1      -0.918   2.674  24.757  0.00  0.00    +0.131 C 
BRANCH  23  24
ATOM     24  N   UNL     1      -1.683   2.920  24.943  0.00  0.00    -0.201 NA
ATOM     25  C   UNL     1      -1.853   3.725  25.011  0.00  0.00    +0.286 C 
ATOM     26  O   UNL     1      -1.257   4.283  24.893  0.00  0.00    -0.269 OA
BRANCH  25  27
ATOM     27  C   UNL     1      -2.618   3.971  25.197  0.00  0.00    +0.291 C 
BRANCH  27  28
ATOM     28  O   UNL     1      -3.234   3.842  24.663  0.00  0.00    -0.466 OA
BRANCH  28  29
ATOM     29  C   UNL     1      -3.981   3.627  24.939  0.00  0.00    +0.139 A 
ATOM     30  C   UNL     1      -4.356   4.082  25.514  0.00  0.00    +0.037 A 
ATOM     31  C   UNL     1      -5.103   3.867  25.790  0.00  0.00    +0.003 A 
ATOM     32  C   UNL     1      -5.475   3.194  25.490  0.00  0.00    +0.000 A 
ATOM     33  C   UNL     1      -5.100   2.738  24.914  0.00  0.00    +0.003 A 
ATOM     34  C   UNL     1      -4.353   2.954  24.638  0.00  0.00    +0.037 A 
ENDBRANCH  28  29
ENDBRANCH  27  28
ENDBRANCH  25  27
ENDBRANCH  23  24
ENDBRANCH  22  23
TORSDOF 7
ENDMDL
