MODEL 1
REMARK VINA RESULT:      -9.2      0.000      0.000
REMARK  Name = 
REMARK  6 active torsions:
REMARK  status: ('A' for Active; 'I' for Inactive)
REMARK    1  A    between atoms: C_2  and  N_3
REMARK    2  A    between atoms: C_12  and  N_14
REMARK    3  A    between atoms: C_15  and  C_17
REMARK    4  A    between atoms: C_20  and  O_21
REMARK    5  A    between atoms: O_21  and  C_22
REMARK    6  A    between atoms: C_22  and  C_23
REMARK                            x       y       z     vdW  Elec       q    Type
REMARK                         _______ _______ _______ _____ _____    ______ ____
ROOT
ATOM     14  N   UNL     1      -4.205   1.655  25.270  0.00  0.00    -0.199 NA
ATOM     15  C   UNL     1      -3.986   1.265  24.577  0.00  0.00    +0.265 C 
ATOM     16  O   UNL     1      -3.768   1.699  23.910  0.00  0.00    -0.268 OA
ENDROOT
BRANCH  14  12
ATOM      3  N   UNL     1      -2.240   4.621  25.262  0.00  0.00    -0.188 NA
ATOM      4  C   UNL     1      -2.481   3.831  25.250  0.00  0.00    +0.323 C 
ATOM      5  O   UNL     1      -1.920   3.229  25.201  0.00  0.00    -0.251 OA
ATOM      6  N   UNL     1      -3.284   3.645  25.285  0.00  0.00    -0.261 N 
ATOM      7  C   UNL     1      -3.799   4.288  25.333  0.00  0.00    +0.095 C 
ATOM      8  C   UNL     1      -4.623   4.285  25.375  0.00  0.00    +0.024 C 
ATOM      9  C   UNL     1      -5.135   3.638  25.381  0.00  0.00    +0.037 C 
ATOM     10  C   UNL     1      -4.951   2.835  25.346  0.00  0.00    +0.174 C 
ATOM     11  O   UNL     1      -5.594   2.318  25.363  0.00  0.00    -0.221 OA
ATOM     12  C   UNL     1      -4.207   2.479  25.296  0.00  0.00    +0.146 C 
ATOM     13  C   UNL     1      -3.466   2.840  25.269  0.00  0.00    +0.119 C 
BRANCH   3   2
ATOM      1  C   UNL     1      -1.198   5.552  24.964  0.00  0.00    +0.025 C 
ATOM      2  C   UNL     1      -1.438   4.806  25.226  0.00  0.00    +0.117 C 
ENDBRANCH   3   2
ENDBRANCH  14  12
BRANCH  15  17
ATOM     17  C   UNL     1      -3.984   0.441  24.550  0.00  0.00    +0.055 A 
ATOM     18  C   UNL     1      -3.902   0.006  25.246  0.00  0.00    +0.008 A 
ATOM     19  C   UNL     1      -3.900  -0.818  25.220  0.00  0.00    +0.037 A 
ATOM     20  C   UNL     1      -3.981  -1.209  24.498  0.00  0.00    +0.139 A 
ATOM     26  C   UNL     1      -4.063  -0.773  23.801  0.00  0.00    +0.037 A 
ATOM     27  C   UNL     1      -4.065   0.051  23.827  0.00  0.00    +0.008 A 
BRANCH  20  21
ATOM     21  O   UNL     1      -3.979  -2.033  24.471  0.00  0.00    -0.466 OA
BRANCH  21  22
ATOM     22  C   UNL     1      -3.339  -2.454  24.776  0.00  0.00    +0.293 C 
BRANCH  22  23
ATOM     23  C   UNL     1      -3.141  -3.190  24.461  0.00  0.00    +0.305 C 
ATOM     24  N   UNL     1      -2.358  -3.357  24.261  0.00  0.00    -0.085 NA
ATOM     25  O   UNL     1      -3.726  -3.760  24.344  0.00  0.00    -0.268 OA
ENDBRANCH  22  23
ENDBRANCH  21  22
ENDBRANCH  20  21
ENDBRANCH  15  17
TORSDOF 6
ENDMDL
MODEL 2
REMARK VINA RESULT:      -9.0      2.827      5.066
REMARK  Name = 
REMARK  6 active torsions:
REMARK  status: ('A' for Active; 'I' for Inactive)
REMARK    1  A    between atoms: C_2  and  N_3
REMARK    2  A    between atoms: C_12  and  N_14
REMARK    3  A    between atoms: C_15  and  C_17
REMARK    4  A    between atoms: C_20  and  O_21
REMARK    5  A    between atoms: O_21  and  C_22
REMARK    6  A    between atoms: C_22  and  C_23
REMARK                            x       y       z     vdW  Elec       q    Type
REMARK                         _______ _______ _______ _____ _____    ______ ____
ROOT
ATOM     14  N   UNL     1      -2.165   0.405  25.063  0.00  0.00    -0.199 NA
ATOM     15  C   UNL     1      -2.770   0.469  24.505  0.00  0.00    +0.265 C 
ATOM     16  O   UNL     1      -2.754   0.003  23.824  0.00  0.00    -0.268 OA
ENDROOT
BRANCH  14  12
ATOM      3  N   UNL     1       0.837  -0.274  23.278  0.00  0.00    -0.188 NA
ATOM      4  C   UNL     1       0.149   0.082  23.561  0.00  0.00    +0.323 C 
ATOM      5  O   UNL     1      -0.085   0.817  23.271  0.00  0.00    -0.251 OA
ATOM      6  N   UNL     1      -0.305  -0.298  24.135  0.00  0.00    -0.261 N 
ATOM      7  C   UNL     1      -0.023  -1.031  24.389  0.00  0.00    +0.095 C 
ATOM      8  C   UNL     1      -0.348  -1.542  24.949  0.00  0.00    +0.024 C 
ATOM      9  C   UNL     1      -1.035  -1.446  25.395  0.00  0.00    +0.037 C 
ATOM     10  C   UNL     1      -1.568  -0.816  25.391  0.00  0.00    +0.174 C 
ATOM     11  O   UNL     1      -2.209  -0.885  25.906  0.00  0.00    -0.221 OA
ATOM     12  C   UNL     1      -1.545  -0.125  24.939  0.00  0.00    +0.146 C 
ATOM     13  C   UNL     1      -0.983   0.105  24.381  0.00  0.00    +0.119 C 
BRANCH   3   2
ATOM      1  C   UNL     1       2.034  -0.194  22.501  0.00  0.00    +0.025 C 
ATOM      2  C   UNL     1       1.291   0.106  22.704  0.00  0.00    +0.117 C 
ENDBRANCH   3   2
ENDBRANCH  14  12
BRANCH  15  17
ATOM     17  C   UNL     1      -3.390   0.998  24.628  0.00  0.00    +0.055 A 
ATOM     18  C   UNL     1      -4.136   0.718  24.836  0.00  0.00    +0.008 A 
ATOM     19  C   UNL     1      -4.757   1.248  24.959  0.00  0.00    +0.037 A 
ATOM     20  C   UNL     1      -4.630   2.058  24.875  0.00  0.00    +0.139 A 
ATOM     26  C   UNL     1      -3.882   2.339  24.667  0.00  0.00    +0.037 A 
ATOM     27  C   UNL     1      -3.262   1.809  24.543  0.00  0.00    +0.008 A 
BRANCH  20  21
ATOM     21  O   UNL     1      -5.250   2.588  24.998  0.00  0.00    -0.466 OA
BRANCH  21  22
ATOM     22  C   UNL     1      -5.173   3.190  25.556  0.00  0.00    +0.293 C 
BRANCH  22  23
ATOM     23  C   UNL     1      -5.833   3.632  25.781  0.00  0.00    +0.305 C 
ATOM     24  N   UNL     1      -5.883   4.431  25.579  0.00  0.00    -0.085 NA
ATOM     25  O   UNL     1      -6.443   3.275  26.206  0.00  0.00    -0.268 OA
ENDBRANCH  22  23
ENDBRANCH  21  22
ENDBRANCH  20  21
ENDBRANCH  15  17
TORSDOF 6
ENDMDL
MODEL 3
REMARK VINA RESULT:      -8.9      3.346      4.137
REMARK  Name = 
REMARK  6 active torsions:
REMARK  status: ('A' for Active; 'I' for Inactive)
REMARK    1  A    between atoms: C_2  and  N_3
REMARK    2  A    between atoms: C_12  and  N_14
REMARK    3  A    between atoms: C_15  and  C_17
REMARK    4  A    between atoms: C_20  and  O_21
REMARK    5  A    between atoms: O_21  and  C_22
REMARK    6  A    between atoms: C_22  and  C_23
REMARK                            x       y       z     vdW  Elec       q    Type
REMARK                         _______ _______ _______ _____ _____    ______ ____
ROOT
ATOM     14  N   UNL     1      -2.428   0.288  24.037  0.00  0.00    -0.199 NA
ATOM     15  C   UNL     1      -1.764   0.321  24.525  0.00  0.00    +0.265 C 
ATOM     16  O   UNL     1      -1.847   0.502  25.325  0.00  0.00    -0.268 OA
ENDROOT
BRANCH  14  12
ATOM      3  N   UNL     1      -4.711   2.748  25.218  0.00  0.00    -0.188 NA
ATOM      4  C   UNL     1      -4.045   2.369  24.911  0.00  0.00    +0.323 C 
ATOM      5  O   UNL     1      -3.382   2.811  24.698  0.00  0.00    -0.251 OA
ATOM      6  N   UNL     1      -4.043   1.550  24.819  0.00  0.00    -0.261 N 
ATOM      7  C   UNL     1      -4.734   1.161  25.050  0.00  0.00    +0.095 C 
ATOM      8  C   UNL     1      -4.902   0.354  25.027  0.00  0.00    +0.024 C 
ATOM      9  C   UNL     1      -4.422  -0.264  24.767  0.00  0.00    +0.037 C 
ATOM     10  C   UNL     1      -3.654  -0.229  24.466  0.00  0.00    +0.174 C 
ATOM     11  O   UNL     1      -3.319  -0.952  24.253  0.00  0.00    -0.221 OA
ATOM     12  C   UNL     1      -3.177   0.435  24.351  0.00  0.00    +0.146 C 
ATOM     13  C   UNL     1      -3.350   1.226  24.508  0.00  0.00    +0.119 C 
BRANCH   3   2
ATOM      1  C   UNL     1      -5.392   3.950  25.581  0.00  0.00    +0.025 C 
ATOM      2  C   UNL     1      -4.713   3.568  25.310  0.00  0.00    +0.117 C 
ENDBRANCH   3   2
ENDBRANCH  14  12
BRANCH  15  17
ATOM     17  C   UNL     1      -1.015   0.174  24.212  0.00  0.00    +0.055 A 
ATOM     18  C   UNL     1      -0.603   0.777  23.828  0.00  0.00    +0.008 A 
ATOM     19  C   UNL     1       0.146   0.629  23.515  0.00  0.00    +0.037 A 
ATOM     20  C   UNL     1       0.483  -0.121  23.585  0.00  0.00    +0.139 A 
ATOM     26  C   UNL     1       0.070  -0.724  23.968  0.00  0.00    +0.037 A 
ATOM     27  C   UNL     1      -0.679  -0.576  24.282  0.00  0.00    +0.008 A 
BRANCH  20  21
ATOM     21  O   UNL     1       1.231  -0.268  23.271  0.00  0.00    -0.466 OA
BRANCH  21  22
ATOM     22  C   UNL     1       1.586   0.285  22.773  0.00  0.00    +0.293 C 
BRANCH  22  23
ATOM     23  C   UNL     1       2.291   0.100  22.387  0.00  0.00    +0.305 C 
ATOM     24  N   UNL     1       3.014   0.214  22.769  0.00  0.00    -0.085 NA
ATOM     25  O   UNL     1       2.274  -0.198  21.618  0.00  0.00    -0.268 OA
ENDBRANCH  22  23
ENDBRANCH  21  22
ENDBRANCH  20  21
ENDBRANCH  15  17
TORSDOF 6
ENDMDL
MODEL 4
REMARK VINA RESULT:      -8.6      3.306      4.232
REMARK  Name = 
REMARK  6 active torsions:
REMARK  status: ('A' for Active; 'I' for Inactive)
REMARK    1  A    between atoms: C_2  and  N_3
REMARK    2  A    between atoms: C_12  and  N_14
REMARK    3  A    between atoms: C_15  and  C_17
REMARK    4  A    between atoms: C_20  and  O_21
REMARK    5  A    between atoms: O_21  and  C_22
REMARK    6  A    between atoms: C_22  and  C_23
REMARK                            x       y       z     vdW  Elec       q    Type
REMARK                         _______ _______ _______ _____ _____    ______ ____
ROOT
ATOM     14  N   UNL     1      -1.526   2.502  24.476  0.00  0.00    -0.199 NA
ATOM     15  C   UNL     1      -1.224   1.805  24.798  0.00  0.00    +0.265 C 
ATOM     16  O   UNL     1      -1.501   1.532  25.525  0.00  0.00    -0.268 OA
ENDROOT
BRANCH  14  12
ATOM      3  N   UNL     1      -4.943   2.661  25.453  0.00  0.00    -0.188 NA
ATOM      4  C   UNL     1      -4.225   2.423  25.124  0.00  0.00    +0.323 C 
ATOM      5  O   UNL     1      -4.182   1.724  24.689  0.00  0.00    -0.251 OA
ATOM      6  N   UNL     1      -3.550   2.885  25.230  0.00  0.00    -0.261 N 
ATOM      7  C   UNL     1      -3.652   3.573  25.673  0.00  0.00    +0.095 C 
ATOM      8  C   UNL     1      -3.092   4.144  25.875  0.00  0.00    +0.024 C 
ATOM      9  C   UNL     1      -2.290   4.167  25.683  0.00  0.00    +0.037 C 
ATOM     10  C   UNL     1      -1.850   3.626  25.241  0.00  0.00    +0.174 C 
ATOM     11  O   UNL     1      -1.051   3.808  25.145  0.00  0.00    -0.221 OA
ATOM     12  C   UNL     1      -2.104   2.927  24.883  0.00  0.00    +0.146 C 
ATOM     13  C   UNL     1      -2.860   2.598  24.878  0.00  0.00    +0.119 C 
BRANCH   3   2
ATOM      1  C   UNL     1      -6.258   2.280  25.862  0.00  0.00    +0.025 C 
ATOM      2  C   UNL     1      -5.618   2.199  25.347  0.00  0.00    +0.117 C 
ENDBRANCH   3   2
ENDBRANCH  14  12
BRANCH  15  17
ATOM     17  C   UNL     1      -0.646   1.380  24.391  0.00  0.00    +0.055 A 
ATOM     18  C   UNL     1      -0.851   0.698  23.976  0.00  0.00    +0.008 A 
ATOM     19  C   UNL     1      -0.272   0.273  23.570  0.00  0.00    +0.037 A 
ATOM     20  C   UNL     1       0.511   0.530  23.578  0.00  0.00    +0.139 A 
ATOM     26  C   UNL     1       0.716   1.213  23.994  0.00  0.00    +0.037 A 
ATOM     27  C   UNL     1       0.138   1.638  24.401  0.00  0.00    +0.008 A 
BRANCH  20  21
ATOM     21  O   UNL     1       1.090   0.105  23.171  0.00  0.00    -0.466 OA
BRANCH  21  22
ATOM     22  C   UNL     1       1.765   0.489  22.896  0.00  0.00    +0.293 C 
BRANCH  22  23
ATOM     23  C   UNL     1       2.305   0.084  22.422  0.00  0.00    +0.305 C 
ATOM     24  N   UNL     1       3.075  -0.045  22.690  0.00  0.00    -0.085 NA
ATOM     25  O   UNL     1       2.077  -0.193  21.679  0.00  0.00    -0.268 OA
ENDBRANCH  22  23
ENDBRANCH  21  22
ENDBRANCH  20  21
ENDBRANCH  15  17
TORSDOF 6
ENDMDL
MODEL 5
REMARK VINA RESULT:      -8.3      2.091      5.466
REMARK  Name = 
REMARK  6 active torsions:
REMARK  status: ('A' for Active; 'I' for Inactive)
REMARK    1  A    between atoms: C_2  and  N_3
REMARK    2  A    between atoms: C_12  and  N_14
REMARK    3  A    between atoms: C_15  and  C_17
REMARK    4  A    between atoms: C_20  and  O_21
REMARK    5  A    between atoms: O_21  and  C_22
REMARK    6  A    between atoms: C_22  and  C_23
REMARK                            x       y       z     vdW  Elec       q    Type
REMARK                         _______ _______ _______ _____ _____    ______ ____
ROOT
ATOM     14  N   UNL     1      -3.867  -0.344  24.333  0.00  0.00    -0.199 NA
ATOM     15  C   UNL     1      -4.081   0.024  25.039  0.00  0.00    +0.265 C 
ATOM     16  O   UNL     1      -3.939  -0.350  25.760  0.00  0.00    -0.268 OA
ENDROOT
BRANCH  14  12
ATOM      3  N   UNL     1      -0.913  -2.199  25.035  0.00  0.00    -0.188 NA
ATOM      4  C   UNL     1      -1.460  -1.588  24.941  0.00  0.00    +0.323 C 
ATOM      5  O   UNL     1      -1.244  -0.811  25.115  0.00  0.00    -0.251 OA
ATOM      6  N   UNL     1      -2.222  -1.755  24.673  0.00  0.00    -0.261 N 
ATOM      7  C   UNL     1      -2.381  -2.549  24.516  0.00  0.00    +0.095 C 
ATOM      8  C   UNL     1      -3.082  -2.890  24.244  0.00  0.00    +0.024 C 
ATOM      9  C   UNL     1      -3.797  -2.520  24.064  0.00  0.00    +0.037 C 
ATOM     10  C   UNL     1      -3.988  -1.719  24.109  0.00  0.00    +0.174 C 
ATOM     11  O   UNL     1      -4.758  -1.521  23.888  0.00  0.00    -0.221 OA
ATOM     12  C   UNL     1      -3.511  -1.088  24.348  0.00  0.00    +0.146 C 
ATOM     13  C   UNL     1      -2.726  -1.105  24.598  0.00  0.00    +0.119 C 
BRANCH   3   2
ATOM      1  C   UNL     1       0.387  -2.646  25.423  0.00  0.00    +0.025 C 
ATOM      2  C   UNL     1      -0.151  -2.032  25.303  0.00  0.00    +0.117 C 
ENDBRANCH   3   2
ENDBRANCH  14  12
BRANCH  15  17
ATOM     17  C   UNL     1      -4.437   0.768  25.024  0.00  0.00    +0.055 A 
ATOM     18  C   UNL     1      -4.055   1.400  24.658  0.00  0.00    +0.008 A 
ATOM     19  C   UNL     1      -4.411   2.145  24.643  0.00  0.00    +0.037 A 
ATOM     20  C   UNL     1      -5.149   2.257  24.995  0.00  0.00    +0.139 A 
ATOM     26  C   UNL     1      -5.531   1.623  25.362  0.00  0.00    +0.037 A 
ATOM     27  C   UNL     1      -5.175   0.879  25.377  0.00  0.00    +0.008 A 
BRANCH  20  21
ATOM     21  O   UNL     1      -5.505   3.001  24.980  0.00  0.00    -0.466 OA
BRANCH  21  22
ATOM     22  C   UNL     1      -5.416   3.513  25.620  0.00  0.00    +0.293 C 
BRANCH  22  23
ATOM     23  C   UNL     1      -5.607   4.311  25.538  0.00  0.00    +0.305 C 
ATOM     24  N   UNL     1      -6.354   4.582  25.764  0.00  0.00    -0.085 NA
ATOM     25  O   UNL     1      -5.052   4.839  25.232  0.00  0.00    -0.268 OA
ENDBRANCH  22  23
ENDBRANCH  21  22
ENDBRANCH  20  21
ENDBRANCH  15  17
TORSDOF 6
ENDMDL
MODEL 6
REMARK VINA RESULT:      -7.9      2.163      6.165
REMARK  Name = 
REMARK  6 active torsions:
REMARK  status: ('A' for Active; 'I' for Inactive)
REMARK    1  A    between atoms: C_2  and  N_3
REMARK    2  A    between atoms: C_12  and  N_14
REMARK    3  A    between atoms: C_15  and  C_17
REMARK    4  A    between atoms: C_20  and  O_21
REMARK    5  A    between atoms: O_21  and  C_22
REMARK    6  A    between atoms: C_22  and  C_23
REMARK                            x       y       z     vdW  Elec       q    Type
REMARK                         _______ _______ _______ _____ _____    ______ ____
ROOT
ATOM     14  N   UNL     1      -1.452   0.185  25.238  0.00  0.00    -0.199 NA
ATOM     15  C   UNL     1      -1.373   0.728  24.621  0.00  0.00    +0.265 C 
ATOM     16  O   UNL     1      -1.402   0.470  23.839  0.00  0.00    -0.268 OA
ENDROOT
BRANCH  14  12
ATOM      3  N   UNL     1      -3.696  -2.326  24.093  0.00  0.00    -0.188 NA
ATOM      4  C   UNL     1      -3.365  -1.605  24.320  0.00  0.00    +0.323 C 
ATOM      5  O   UNL     1      -3.816  -0.916  24.286  0.00  0.00    -0.251 OA
ATOM      6  N   UNL     1      -2.583  -1.575  24.580  0.00  0.00    -0.261 N 
ATOM      7  C   UNL     1      -2.181  -2.295  24.592  0.00  0.00    +0.095 C 
ATOM      8  C   UNL     1      -1.403  -2.447  24.821  0.00  0.00    +0.024 C 
ATOM      9  C   UNL     1      -0.835  -1.915  25.094  0.00  0.00    +0.037 C 
ATOM     10  C   UNL     1      -0.903  -1.100  25.206  0.00  0.00    +0.174 C 
ATOM     11  O   UNL     1      -0.228  -0.719  25.489  0.00  0.00    -0.221 OA
ATOM     12  C   UNL     1      -1.558  -0.616  25.072  0.00  0.00    +0.146 C 
ATOM     13  C   UNL     1      -2.306  -0.827  24.793  0.00  0.00    +0.119 C 
BRANCH   3   2
ATOM      1  C   UNL     1      -4.764  -3.037  23.464  0.00  0.00    +0.025 C 
ATOM      2  C   UNL     1      -4.478  -2.356  23.833  0.00  0.00    +0.117 C 
ENDBRANCH   3   2
ENDBRANCH  14  12
BRANCH  15  17
ATOM     17  C   UNL     1      -1.266   1.528  24.788  0.00  0.00    +0.055 A 
ATOM     18  C   UNL     1      -0.557   1.899  24.592  0.00  0.00    +0.008 A 
ATOM     19  C   UNL     1      -0.450   2.700  24.758  0.00  0.00    +0.037 A 
ATOM     20  C   UNL     1      -1.053   3.130  25.121  0.00  0.00    +0.139 A 
ATOM     26  C   UNL     1      -1.764   2.759  25.318  0.00  0.00    +0.037 A 
ATOM     27  C   UNL     1      -1.870   1.958  25.151  0.00  0.00    +0.008 A 
BRANCH  20  21
ATOM     21  O   UNL     1      -0.946   3.931  25.288  0.00  0.00    -0.466 OA
BRANCH  21  22
ATOM     22  C   UNL     1      -1.279   4.502  24.795  0.00  0.00    +0.293 C 
BRANCH  22  23
ATOM     23  C   UNL     1      -1.178   5.303  24.966  0.00  0.00    +0.305 C 
ATOM     24  N   UNL     1      -1.796   5.733  25.306  0.00  0.00    -0.085 NA
ATOM     25  O   UNL     1      -0.462   5.675  24.797  0.00  0.00    -0.268 OA
ENDBRANCH  22  23
ENDBRANCH  21  22
ENDBRANCH  20  21
ENDBRANCH  15  17
TORSDOF 6
ENDMDL
