REMARK  Name = 
REMARK  5 active torsions:
REMARK  status: ('A' for Active; 'I' for Inactive)
REMARK    1  A    between atoms: O_2  and  C_3
REMARK    2  A    between atoms: C_3  and  C_4
REMARK    3  A    between atoms: N_6  and  C_7
REMARK    4  A    between atoms: C_10  and  C_13
REMARK    5  A    between atoms: C_13  and  C_15
REMARK                            x       y       z     vdW  Elec       q    Type
REMARK                         _______ _______ _______ _____ _____    ______ ____
ROOT
ATOM      7  C   UNL     1      -0.715  -4.537   0.000  0.00  0.00    +0.073 A 
ATOM      8  C   UNL     1       0.000  -4.125   0.000  0.00  0.00    +0.016 A 
ATOM      9  C   UNL     1       0.715  -4.537   0.000  0.00  0.00    -0.000 A 
ATOM     10  C   UNL     1       0.715  -5.362   0.000  0.00  0.00    +0.010 A 
ATOM     11  C   UNL     1       0.000  -5.775   0.000  0.00  0.00    -0.000 A 
ATOM     12  C   UNL     1      -0.715  -5.362   0.000  0.00  0.00    +0.016 A 
ENDROOT
BRANCH   7   6
ATOM      4  C   UNL     1      -2.143  -4.537   0.000  0.00  0.00    +0.276 C 
ATOM      5  O   UNL     1      -2.143  -5.362   0.000  0.00  0.00    -0.270 OA
ATOM      6  N   UNL     1      -1.429  -4.125   0.000  0.00  0.00    -0.177 NA
BRANCH   4   3
ATOM      3  C   UNL     1      -2.858  -4.125   0.000  0.00  0.00    +0.229 C 
BRANCH   3   2
ATOM      1  C   UNL     1      -4.287  -4.125   0.000  0.00  0.00    +0.175 C 
ATOM      2  O   UNL     1      -3.572  -4.537   0.000  0.00  0.00    -0.342 OA
ENDBRANCH   3   2
ENDBRANCH   4   3
ENDBRANCH   7   6
BRANCH  10  13
ATOM     13  C   UNL     1       1.429  -5.775   0.000  0.00  0.00    +0.195 C 
ATOM     14  O   UNL     1       1.429  -6.600   0.000  0.00  0.00    -0.216 OA
BRANCH  13  15
ATOM     15  C   UNL     1       2.143  -5.362   0.000  0.00  0.00    +0.139 C 
ATOM     16  C   UNL     1       2.143  -4.537   0.000  0.00  0.00    +0.165 C 
ATOM     17  O   UNL     1       2.858  -4.125   0.000  0.00  0.00    -0.343 OA
ATOM     18  C   UNL     1       3.572  -4.537   0.000  0.00  0.00    +0.227 C 
ATOM     19  C   UNL     1       3.572  -5.362   0.000  0.00  0.00    +0.256 C 
ATOM     20  O   UNL     1       4.287  -5.775   0.000  0.00  0.00    -0.272 OA
ATOM     21  N   UNL     1       2.858  -5.775   0.000  0.00  0.00    -0.272 N 
ATOM     22  C   UNL     1       2.858  -6.600   0.000  0.00  0.00    +0.115 C 
ENDBRANCH  13  15
ENDBRANCH  10  13
TORSDOF 5
