REMARK  Name = 
REMARK  10 active torsions:
REMARK  status: ('A' for Active; 'I' for Inactive)
REMARK    1  A    between atoms: S_2  and  C_3
REMARK    2  A    between atoms: C_3  and  C_4
REMARK    3  A    between atoms: C_9  and  N_10
REMARK    4  A    between atoms: N_13  and  C_14
REMARK    5  A    between atoms: C_14  and  C_15
REMARK    6  A    between atoms: C_17  and  C_18
REMARK    7  A    between atoms: N_20  and  C_21
REMARK    8  A    between atoms: C_21  and  C_22
REMARK    9  A    between atoms: C_21  and  C_28
REMARK   10  A    between atoms: C_22  and  C_23
REMARK                            x       y       z     vdW  Elec       q    Type
REMARK                         _______ _______ _______ _____ _____    ______ ____
ROOT
ATOM      4  C   UNL     1      -0.987  -3.015   0.000  0.00  0.00    +0.237 C 
ATOM      5  O   UNL     1      -1.472  -2.348   0.000  0.00  0.00    -0.274 OA
ATOM      6  N   UNL     1      -0.167  -2.929   0.000  0.00  0.00    -0.271 N 
ATOM      7  C   UNL     1       0.246  -2.215   0.000  0.00  0.00    +0.096 C 
ATOM      8  C   UNL     1       1.053  -2.386   0.000  0.00  0.00    +0.045 C 
ATOM      9  C   UNL     1       1.139  -3.207   0.000  0.00  0.00    +0.126 C 
ATOM     17  C   UNL     1       0.385  -3.542   0.000  0.00  0.00    +0.174 C 
ENDROOT
BRANCH   9  10
ATOM     10  N   UNL     1       1.853  -3.619   0.000  0.00  0.00    -0.187 NA
ATOM     11  C   UNL     1       2.568  -3.207   0.000  0.00  0.00    +0.340 C 
ATOM     12  O   UNL     1       2.568  -2.382   0.000  0.00  0.00    -0.249 OA
ATOM     13  N   UNL     1       3.282  -3.619   0.000  0.00  0.00    -0.182 NA
BRANCH  13  14
ATOM     14  C   UNL     1       3.997  -3.207   0.000  0.00  0.00    +0.143 C 
BRANCH  14  15
ATOM     15  C   UNL     1       4.711  -3.619   0.000  0.00  0.00    -0.003 C 
ATOM     16  C   UNL     1       5.426  -3.207   0.000  0.00  0.00    -0.003 C 
ENDBRANCH  14  15
ENDBRANCH  13  14
ENDBRANCH   9  10
BRANCH  17  18
ATOM     18  C   UNL     1       0.214  -4.349   0.000  0.00  0.00    +0.262 C 
ATOM     19  O   UNL     1      -0.571  -4.604   0.000  0.00  0.00    -0.271 OA
ATOM     20  N   UNL     1       0.827  -4.901   0.000  0.00  0.00    -0.196 NA
BRANCH  20  21
ATOM     21  C   UNL     1       0.655  -5.708   0.000  0.00  0.00    +0.179 C 
BRANCH  21  28
ATOM     28  C   UNL     1      -0.129  -5.963   0.000  0.00  0.00    +0.281 C 
ATOM     29  N   UNL     1      -0.301  -6.770   0.000  0.00  0.00    -0.086 NA
ATOM     30  O   UNL     1      -0.742  -5.411   0.000  0.00  0.00    -0.270 OA
ENDBRANCH  21  28
BRANCH  21  22
ATOM     22  C   UNL     1       1.268  -6.260   0.000  0.00  0.00    +0.064 C 
BRANCH  22  23
ATOM     23  C   UNL     1       1.097  -7.067   0.000  0.00  0.00    +0.010 A 
ATOM     24  C   UNL     1       1.649  -7.680   0.000  0.00  0.00    +0.003 A 
ATOM     25  C   UNL     1       1.236  -8.395   0.000  0.00  0.00    +0.007 A 
ATOM     26  C   UNL     1       0.429  -8.223   0.000  0.00  0.00    +0.035 A 
ATOM     27  S   UNL     1       0.343  -7.403   0.000  0.00  0.00    -0.091 S 
ENDBRANCH  22  23
ENDBRANCH  21  22
ENDBRANCH  20  21
ENDBRANCH  17  18
BRANCH   4   3
ATOM      3  C   UNL     1      -1.323  -3.769   0.000  0.00  0.00    +0.143 C 
BRANCH   3   2
ATOM      1  C   UNL     1      -2.479  -4.609   0.000  0.00  0.00    +0.070 C 
ATOM      2  S   UNL     1      -2.143  -3.855   0.000  0.00  0.00    -0.130 S 
ENDBRANCH   3   2
ENDBRANCH   4   3
TORSDOF 10
