MODEL 1
REMARK VINA RESULT:     -10.9      0.000      0.000
REMARK  Name = 
REMARK  6 active torsions:
REMARK  status: ('A' for Active; 'I' for Inactive)
REMARK    1  A    between atoms: C_1  and  N_2
REMARK    2  A    between atoms: C_1  and  C_25
REMARK    3  A    between atoms: C_6  and  C_7
REMARK    4  A    between atoms: C_9  and  C_12
REMARK    5  A    between atoms: C_15  and  O_16
REMARK    6  A    between atoms: O_16  and  C_17
REMARK                            x       y       z     vdW  Elec       q    Type
REMARK                         _______ _______ _______ _____ _____    ______ ____
ROOT
ATOM      7  C   UNL     1      -0.975   2.737  25.485  0.00  0.00    +0.251 A 
ATOM      8  N   UNL     1      -1.314   2.050  25.181  0.00  0.00    -0.190 NA
ATOM      9  C   UNL     1      -0.875   1.406  25.450  0.00  0.00    +0.205 A 
ATOM     10  N   UNL     1      -0.262   1.696  25.921  0.00  0.00    -0.056 NA
ATOM     11  O   UNL     1      -0.324   2.518  25.943  0.00  0.00    -0.336 OA
ENDROOT
BRANCH   9  12
ATOM     12  C   UNL     1      -1.021   0.613  25.279  0.00  0.00    +0.058 A 
ATOM     13  C   UNL     1      -1.141   0.074  25.893  0.00  0.00    +0.010 A 
ATOM     14  C   UNL     1      -1.287  -0.719  25.724  0.00  0.00    +0.058 A 
ATOM     15  C   UNL     1      -1.312  -0.975  24.940  0.00  0.00    +0.225 A 
ATOM     23  N   UNL     1      -1.192  -0.438  24.326  0.00  0.00    -0.210 NA
ATOM     24  C   UNL     1      -1.046   0.356  24.496  0.00  0.00    +0.105 A 
BRANCH  15  16
ATOM     16  O   UNL     1      -1.458  -1.770  24.770  0.00  0.00    -0.464 OA
BRANCH  16  17
ATOM     17  C   UNL     1      -2.234  -2.042  24.706  0.00  0.00    +0.168 C 
ATOM     18  C   UNL     1      -2.630  -1.995  23.983  0.00  0.00    +0.044 C 
ATOM     19  C   UNL     1      -3.406  -2.267  23.919  0.00  0.00    +0.004 C 
ATOM     20  C   UNL     1      -3.786  -2.587  24.578  0.00  0.00    +0.000 C 
ATOM     21  C   UNL     1      -3.391  -2.633  25.301  0.00  0.00    +0.004 C 
ATOM     22  C   UNL     1      -2.615  -2.361  25.365  0.00  0.00    +0.044 C 
ENDBRANCH  16  17
ENDBRANCH  15  16
ENDBRANCH   9  12
BRANCH   7   6
ATOM      2  N   UNL     1      -2.009   3.782  25.462  0.00  0.00    -0.260 NA
ATOM      3  C   UNL     1      -2.023   4.584  25.269  0.00  0.00    +0.073 C 
ATOM      4  C   UNL     1      -1.261   4.805  25.042  0.00  0.00    +0.019 C 
ATOM      5  C   UNL     1      -0.775   4.140  25.096  0.00  0.00    +0.027 C 
ATOM      6  C   UNL     1      -1.238   3.507  25.356  0.00  0.00    +0.138 C 
BRANCH   2   1
ATOM      1  C   UNL     1      -2.651   3.334  25.718  0.00  0.00    +0.139 C 
BRANCH   1  25
ATOM     25  C   UNL     1      -3.418   3.553  25.506  0.00  0.00    +0.155 A 
ATOM     26  N   UNL     1      -3.767   3.444  24.766  0.00  0.00    -0.226 NA
ATOM     27  C   UNL     1      -4.535   3.744  24.801  0.00  0.00    +0.121 A 
ATOM     28  C   UNL     1      -4.661   4.038  25.562  0.00  0.00    +0.121 A 
ATOM     29  N   UNL     1      -3.970   3.920  25.998  0.00  0.00    -0.226 NA
ENDBRANCH   1  25
ENDBRANCH   2   1
ENDBRANCH   7   6
TORSDOF 6
ENDMDL
MODEL 2
REMARK VINA RESULT:     -10.9      1.847      2.824
REMARK  Name = 
REMARK  6 active torsions:
REMARK  status: ('A' for Active; 'I' for Inactive)
REMARK    1  A    between atoms: C_1  and  N_2
REMARK    2  A    between atoms: C_1  and  C_25
REMARK    3  A    between atoms: C_6  and  C_7
REMARK    4  A    between atoms: C_9  and  C_12
REMARK    5  A    between atoms: C_15  and  O_16
REMARK    6  A    between atoms: O_16  and  C_17
REMARK                            x       y       z     vdW  Elec       q    Type
REMARK                         _______ _______ _______ _____ _____    ______ ____
ROOT
ATOM      7  C   UNL     1      -3.928   2.935  25.131  0.00  0.00    +0.251 A 
ATOM      8  N   UNL     1      -3.720   2.136  25.149  0.00  0.00    -0.190 NA
ATOM      9  C   UNL     1      -4.137   1.750  24.552  0.00  0.00    +0.205 A 
ATOM     10  N   UNL     1      -4.603   2.310  24.164  0.00  0.00    -0.056 NA
ATOM     11  O   UNL     1      -4.474   3.042  24.522  0.00  0.00    -0.336 OA
ENDROOT
BRANCH   9  12
ATOM     12  C   UNL     1      -4.097   0.946  24.373  0.00  0.00    +0.058 A 
ATOM     13  C   UNL     1      -4.604   0.414  24.749  0.00  0.00    +0.010 A 
ATOM     14  C   UNL     1      -4.565  -0.390  24.571  0.00  0.00    +0.058 A 
ATOM     15  C   UNL     1      -4.017  -0.663  24.017  0.00  0.00    +0.225 A 
ATOM     23  N   UNL     1      -3.510  -0.132  23.641  0.00  0.00    -0.210 NA
ATOM     24  C   UNL     1      -3.550   0.672  23.820  0.00  0.00    +0.105 A 
BRANCH  15  16
ATOM     16  O   UNL     1      -3.978  -1.468  23.838  0.00  0.00    -0.464 OA
BRANCH  16  17
ATOM     17  C   UNL     1      -3.460  -1.958  24.254  0.00  0.00    +0.168 C 
ATOM     18  C   UNL     1      -3.728  -2.376  24.914  0.00  0.00    +0.044 C 
ATOM     19  C   UNL     1      -3.210  -2.866  25.329  0.00  0.00    +0.004 C 
ATOM     20  C   UNL     1      -2.425  -2.937  25.086  0.00  0.00    +0.000 C 
ATOM     21  C   UNL     1      -2.157  -2.518  24.427  0.00  0.00    +0.004 C 
ATOM     22  C   UNL     1      -2.675  -2.029  24.011  0.00  0.00    +0.044 C 
ENDBRANCH  16  17
ENDBRANCH  15  16
ENDBRANCH   9  12
BRANCH   7   6
ATOM      2  N   UNL     1      -2.963   3.977  25.510  0.00  0.00    -0.260 NA
ATOM      3  C   UNL     1      -2.885   4.495  26.147  0.00  0.00    +0.073 C 
ATOM      4  C   UNL     1      -3.514   4.360  26.664  0.00  0.00    +0.019 C 
ATOM      5  C   UNL     1      -3.981   3.759  26.346  0.00  0.00    +0.027 C 
ATOM      6  C   UNL     1      -3.641   3.522  25.633  0.00  0.00    +0.138 C 
BRANCH   2   1
ATOM      1  C   UNL     1      -2.454   3.923  24.864  0.00  0.00    +0.139 C 
BRANCH   1  25
ATOM     25  C   UNL     1      -1.700   4.255  24.904  0.00  0.00    +0.155 A 
ATOM     26  N   UNL     1      -1.519   5.058  24.841  0.00  0.00    -0.226 NA
ATOM     27  C   UNL     1      -0.701   5.141  24.912  0.00  0.00    +0.121 A 
ATOM     28  C   UNL     1      -0.376   4.389  25.019  0.00  0.00    +0.121 A 
ATOM     29  N   UNL     1      -0.994   3.842  25.015  0.00  0.00    -0.226 NA
ENDBRANCH   1  25
ENDBRANCH   2   1
ENDBRANCH   7   6
TORSDOF 6
ENDMDL
MODEL 3
REMARK VINA RESULT:     -10.2      1.745      4.810
REMARK  Name = 
REMARK  6 active torsions:
REMARK  status: ('A' for Active; 'I' for Inactive)
REMARK    1  A    between atoms: C_1  and  N_2
REMARK    2  A    between atoms: C_1  and  C_25
REMARK    3  A    between atoms: C_6  and  C_7
REMARK    4  A    between atoms: C_9  and  C_12
REMARK    5  A    between atoms: C_15  and  O_16
REMARK    6  A    between atoms: O_16  and  C_17
REMARK                            x       y       z     vdW  Elec       q    Type
REMARK                         _______ _______ _______ _____ _____    ______ ____
ROOT
ATOM      7  C   UNL     1      -0.428   1.282  23.983  0.00  0.00    +0.251 A 
ATOM      8  N   UNL     1      -1.248   1.370  23.982  0.00  0.00    -0.190 NA
ATOM      9  C   UNL     1      -1.425   2.123  24.265  0.00  0.00    +0.205 A 
ATOM     10  N   UNL     1      -0.713   2.503  24.442  0.00  0.00    -0.056 NA
ATOM     11  O   UNL     1      -0.097   1.982  24.268  0.00  0.00    -0.336 OA
ENDROOT
BRANCH   9  12
ATOM     12  C   UNL     1      -2.180   2.444  24.356  0.00  0.00    +0.058 A 
ATOM     13  C   UNL     1      -2.717   2.417  23.730  0.00  0.00    +0.010 A 
ATOM     14  C   UNL     1      -3.472   2.737  23.820  0.00  0.00    +0.058 A 
ATOM     15  C   UNL     1      -3.690   3.084  24.536  0.00  0.00    +0.225 A 
ATOM     23  N   UNL     1      -3.153   3.110  25.163  0.00  0.00    -0.210 NA
ATOM     24  C   UNL     1      -2.398   2.790  25.072  0.00  0.00    +0.105 A 
BRANCH  15  16
ATOM     16  O   UNL     1      -4.445   3.404  24.627  0.00  0.00    -0.464 OA
BRANCH  16  17
ATOM     17  C   UNL     1      -5.034   2.970  25.007  0.00  0.00    +0.168 C 
ATOM     18  C   UNL     1      -5.410   2.349  24.613  0.00  0.00    +0.044 C 
ATOM     19  C   UNL     1      -5.999   1.915  24.993  0.00  0.00    +0.004 C 
ATOM     20  C   UNL     1      -6.213   2.101  25.768  0.00  0.00    +0.000 C 
ATOM     21  C   UNL     1      -5.838   2.722  26.162  0.00  0.00    +0.004 C 
ATOM     22  C   UNL     1      -5.249   3.156  25.782  0.00  0.00    +0.044 C 
ENDBRANCH  16  17
ENDBRANCH  15  16
ENDBRANCH   9  12
BRANCH   7   6
ATOM      2  N   UNL     1      -0.071  -0.142  24.073  0.00  0.00    -0.260 NA
ATOM      3  C   UNL     1       0.443  -0.640  23.663  0.00  0.00    +0.073 C 
ATOM      4  C   UNL     1       0.821  -0.195  23.080  0.00  0.00    +0.019 C 
ATOM      5  C   UNL     1       0.540   0.580  23.129  0.00  0.00    +0.027 C 
ATOM      6  C   UNL     1      -0.011   0.613  23.743  0.00  0.00    +0.138 C 
BRANCH   2   1
ATOM      1  C   UNL     1      -0.558  -0.358  24.701  0.00  0.00    +0.139 C 
BRANCH   1  25
ATOM     25  C   UNL     1      -0.791  -1.144  24.791  0.00  0.00    +0.155 A 
ATOM     26  N   UNL     1      -1.433  -1.506  24.420  0.00  0.00    -0.226 NA
ATOM     27  C   UNL     1      -1.461  -2.292  24.668  0.00  0.00    +0.121 A 
ATOM     28  C   UNL     1      -0.836  -2.417  25.193  0.00  0.00    +0.121 A 
ATOM     29  N   UNL     1      -0.422  -1.707  25.269  0.00  0.00    -0.226 NA
ENDBRANCH   1  25
ENDBRANCH   2   1
ENDBRANCH   7   6
TORSDOF 6
ENDMDL
MODEL 4
REMARK VINA RESULT:     -10.2      1.808      5.802
REMARK  Name = 
REMARK  6 active torsions:
REMARK  status: ('A' for Active; 'I' for Inactive)
REMARK    1  A    between atoms: C_1  and  N_2
REMARK    2  A    between atoms: C_1  and  C_25
REMARK    3  A    between atoms: C_6  and  C_7
REMARK    4  A    between atoms: C_9  and  C_12
REMARK    5  A    between atoms: C_15  and  O_16
REMARK    6  A    between atoms: O_16  and  C_17
REMARK                            x       y       z     vdW  Elec       q    Type
REMARK                         _______ _______ _______ _____ _____    ______ ____
ROOT
ATOM      7  C   UNL     1      -4.127  -0.407  24.640  0.00  0.00    +0.251 A 
ATOM      8  N   UNL     1      -3.731   0.272  24.388  0.00  0.00    -0.190 NA
ATOM      9  C   UNL     1      -4.080   0.923  24.753  0.00  0.00    +0.205 A 
ATOM     10  N   UNL     1      -4.693   0.648  25.232  0.00  0.00    -0.056 NA
ATOM     11  O   UNL     1      -4.722  -0.174  25.162  0.00  0.00    -0.336 OA
ENDROOT
BRANCH   9  12
ATOM     12  C   UNL     1      -3.856   1.711  24.657  0.00  0.00    +0.058 A 
ATOM     13  C   UNL     1      -3.558   1.970  23.933  0.00  0.00    +0.010 A 
ATOM     14  C   UNL     1      -3.334   2.758  23.836  0.00  0.00    +0.058 A 
ATOM     15  C   UNL     1      -3.409   3.288  24.464  0.00  0.00    +0.225 A 
ATOM     23  N   UNL     1      -3.708   3.030  25.189  0.00  0.00    -0.210 NA
ATOM     24  C   UNL     1      -3.931   2.241  25.285  0.00  0.00    +0.105 A 
BRANCH  15  16
ATOM     16  O   UNL     1      -3.186   4.076  24.368  0.00  0.00    -0.464 OA
BRANCH  16  17
ATOM     17  C   UNL     1      -2.439   4.326  24.614  0.00  0.00    +0.168 C 
ATOM     18  C   UNL     1      -1.774   4.151  24.158  0.00  0.00    +0.044 C 
ATOM     19  C   UNL     1      -1.027   4.401  24.404  0.00  0.00    +0.004 C 
ATOM     20  C   UNL     1      -0.946   4.826  25.106  0.00  0.00    +0.000 C 
ATOM     21  C   UNL     1      -1.611   5.002  25.562  0.00  0.00    +0.004 C 
ATOM     22  C   UNL     1      -2.358   4.752  25.316  0.00  0.00    +0.044 C 
ENDBRANCH  16  17
ENDBRANCH  15  16
ENDBRANCH   9  12
BRANCH   7   6
ATOM      2  N   UNL     1      -3.309  -1.628  24.653  0.00  0.00    -0.260 NA
ATOM      3  C   UNL     1      -3.361  -2.368  24.291  0.00  0.00    +0.073 C 
ATOM      4  C   UNL     1      -4.043  -2.378  23.827  0.00  0.00    +0.019 C 
ATOM      5  C   UNL     1      -4.413  -1.644  23.901  0.00  0.00    +0.027 C 
ATOM      6  C   UNL     1      -3.959  -1.180  24.411  0.00  0.00    +0.138 C 
BRANCH   2   1
ATOM      1  C   UNL     1      -2.713  -1.379  25.164  0.00  0.00    +0.139 C 
BRANCH   1  25
ATOM     25  C   UNL     1      -1.935  -1.625  25.043  0.00  0.00    +0.155 A 
ATOM     26  N   UNL     1      -1.617  -2.355  25.261  0.00  0.00    -0.226 NA
ATOM     27  C   UNL     1      -0.824  -2.365  25.035  0.00  0.00    +0.121 A 
ATOM     28  C   UNL     1      -0.652  -1.641  24.676  0.00  0.00    +0.121 A 
ATOM     29  N   UNL     1      -1.338  -1.184  24.682  0.00  0.00    -0.226 NA
ENDBRANCH   1  25
ENDBRANCH   2   1
ENDBRANCH   7   6
TORSDOF 6
ENDMDL
MODEL 5
REMARK VINA RESULT:      -9.9      1.626      5.249
REMARK  Name = 
REMARK  6 active torsions:
REMARK  status: ('A' for Active; 'I' for Inactive)
REMARK    1  A    between atoms: C_1  and  N_2
REMARK    2  A    between atoms: C_1  and  C_25
REMARK    3  A    between atoms: C_6  and  C_7
REMARK    4  A    between atoms: C_9  and  C_12
REMARK    5  A    between atoms: C_15  and  O_16
REMARK    6  A    between atoms: O_16  and  C_17
REMARK                            x       y       z     vdW  Elec       q    Type
REMARK                         _______ _______ _______ _____ _____    ______ ____
ROOT
ATOM      7  C   UNL     1      -0.729  -0.645  24.513  0.00  0.00    +0.251 A 
ATOM      8  N   UNL     1      -0.871   0.067  24.905  0.00  0.00    -0.190 NA
ATOM      9  C   UNL     1      -0.400   0.648  24.559  0.00  0.00    +0.205 A 
ATOM     10  N   UNL     1       0.034   0.296  23.951  0.00  0.00    -0.056 NA
ATOM     11  O   UNL     1      -0.170  -0.503  23.923  0.00  0.00    -0.336 OA
ENDROOT
BRANCH   9  12
ATOM     12  C   UNL     1      -0.367   1.443  24.780  0.00  0.00    +0.058 A 
ATOM     13  C   UNL     1      -0.322   1.647  25.578  0.00  0.00    +0.010 A 
ATOM     14  C   UNL     1      -0.289   2.440  25.800  0.00  0.00    +0.058 A 
ATOM     15  C   UNL     1      -0.301   3.030  25.224  0.00  0.00    +0.225 A 
ATOM     23  N   UNL     1      -0.346   2.827  24.426  0.00  0.00    -0.210 NA
ATOM     24  C   UNL     1      -0.379   2.033  24.204  0.00  0.00    +0.105 A 
BRANCH  15  16
ATOM     16  O   UNL     1      -0.269   3.824  25.446  0.00  0.00    -0.464 OA
BRANCH  16  17
ATOM     17  C   UNL     1      -0.941   4.298  25.384  0.00  0.00    +0.168 C 
ATOM     18  C   UNL     1      -0.919   4.988  24.931  0.00  0.00    +0.044 C 
ATOM     19  C   UNL     1      -1.591   5.462  24.869  0.00  0.00    +0.004 C 
ATOM     20  C   UNL     1      -2.285   5.246  25.258  0.00  0.00    +0.000 C 
ATOM     21  C   UNL     1      -2.307   4.556  25.711  0.00  0.00    +0.004 C 
ATOM     22  C   UNL     1      -1.635   4.082  25.773  0.00  0.00    +0.044 C 
ENDBRANCH  16  17
ENDBRANCH  15  16
ENDBRANCH   9  12
BRANCH   7   6
ATOM      2  N   UNL     1      -1.870  -1.572  24.531  0.00  0.00    -0.260 NA
ATOM      3  C   UNL     1      -1.985  -2.349  24.784  0.00  0.00    +0.073 C 
ATOM      4  C   UNL     1      -1.270  -2.627  25.088  0.00  0.00    +0.019 C 
ATOM      5  C   UNL     1      -0.712  -2.022  25.023  0.00  0.00    +0.027 C 
ATOM      6  C   UNL     1      -1.083  -1.370  24.679  0.00  0.00    +0.138 C 
BRANCH   2   1
ATOM      1  C   UNL     1      -2.439  -1.084  24.191  0.00  0.00    +0.139 C 
BRANCH   1  25
ATOM     25  C   UNL     1      -3.231  -1.315  24.185  0.00  0.00    +0.155 A 
ATOM     26  N   UNL     1      -3.580  -1.839  23.652  0.00  0.00    -0.226 NA
ATOM     27  C   UNL     1      -4.378  -1.910  23.850  0.00  0.00    +0.121 A 
ATOM     28  C   UNL     1      -4.522  -1.429  24.505  0.00  0.00    +0.121 A 
ATOM     29  N   UNL     1      -3.814  -1.061  24.713  0.00  0.00    -0.226 NA
ENDBRANCH   1  25
ENDBRANCH   2   1
ENDBRANCH   7   6
TORSDOF 6
ENDMDL
MODEL 6
REMARK VINA RESULT:      -9.6      2.465      5.284
REMARK  Name = 
REMARK  6 active torsions:
REMARK  status: ('A' for Active; 'I' for Inactive)
REMARK    1  A    between atoms: C_1  and  N_2
REMARK    2  A    between atoms: C_1  and  C_25
REMARK    3  A    between atoms: C_6  and  C_7
REMARK    4  A    between atoms: C_9  and  C_12
REMARK    5  A    between atoms: C_15  and  O_16
REMARK    6  A    between atoms: O_16  and  C_17
REMARK                            x       y       z     vdW  Elec       q    Type
REMARK                         _______ _______ _______ _____ _____    ______ ____
ROOT
ATOM      7  C   UNL     1      -1.960  -1.262  24.636  0.00  0.00    +0.251 A 
ATOM      8  N   UNL     1      -2.351  -0.551  24.787  0.00  0.00    -0.190 NA
ATOM      9  C   UNL     1      -3.132  -0.630  24.536  0.00  0.00    +0.205 A 
ATOM     10  N   UNL     1      -3.226  -1.390  24.230  0.00  0.00    -0.056 NA
ATOM     11  O   UNL     1      -2.502  -1.781  24.292  0.00  0.00    -0.336 OA
ENDROOT
BRANCH   9  12
ATOM     12  C   UNL     1      -3.718  -0.051  24.583  0.00  0.00    +0.058 A 
ATOM     13  C   UNL     1      -4.265  -0.067  25.201  0.00  0.00    +0.010 A 
ATOM     14  C   UNL     1      -4.851   0.511  25.248  0.00  0.00    +0.058 A 
ATOM     15  C   UNL     1      -4.891   1.106  24.678  0.00  0.00    +0.225 A 
ATOM     23  N   UNL     1      -4.344   1.123  24.060  0.00  0.00    -0.210 NA
ATOM     24  C   UNL     1      -3.758   0.544  24.013  0.00  0.00    +0.105 A 
BRANCH  15  16
ATOM     16  O   UNL     1      -5.477   1.685  24.725  0.00  0.00    -0.464 OA
BRANCH  16  17
ATOM     17  C   UNL     1      -5.304   2.422  25.052  0.00  0.00    +0.168 C 
ATOM     18  C   UNL     1      -5.545   2.600  25.821  0.00  0.00    +0.044 C 
ATOM     19  C   UNL     1      -5.372   3.338  26.147  0.00  0.00    +0.004 C 
ATOM     20  C   UNL     1      -4.957   3.897  25.704  0.00  0.00    +0.000 C 
ATOM     21  C   UNL     1      -4.715   3.719  24.935  0.00  0.00    +0.004 C 
ATOM     22  C   UNL     1      -4.889   2.981  24.609  0.00  0.00    +0.044 C 
ENDBRANCH  16  17
ENDBRANCH  15  16
ENDBRANCH   9  12
BRANCH   7   6
ATOM      2  N   UNL     1      -0.516  -1.098  24.419  0.00  0.00    -0.260 NA
ATOM      3  C   UNL     1       0.165  -1.417  24.758  0.00  0.00    +0.073 C 
ATOM      4  C   UNL     1      -0.068  -1.944  25.350  0.00  0.00    +0.019 C 
ATOM      5  C   UNL     1      -0.893  -1.949  25.376  0.00  0.00    +0.027 C 
ATOM      6  C   UNL     1      -1.170  -1.426  24.800  0.00  0.00    +0.138 C 
BRANCH   2   1
ATOM      1  C   UNL     1      -0.539  -0.547  23.806  0.00  0.00    +0.139 C 
BRANCH   1  25
ATOM     25  C   UNL     1       0.155  -0.175  23.558  0.00  0.00    +0.155 A 
ATOM     26  N   UNL     1       0.700  -0.477  23.016  0.00  0.00    -0.226 NA
ATOM     27  C   UNL     1       1.307   0.076  22.933  0.00  0.00    +0.121 A 
ATOM     28  C   UNL     1       1.137   0.718  23.423  0.00  0.00    +0.121 A 
ATOM     29  N   UNL     1       0.425   0.563  23.810  0.00  0.00    -0.226 NA
ENDBRANCH   1  25
ENDBRANCH   2   1
ENDBRANCH   7   6
TORSDOF 6
ENDMDL
