MODEL 1
REMARK VINA RESULT:      -8.7      0.000      0.000
REMARK  Name = 
REMARK  5 active torsions:
REMARK  status: ('A' for Active; 'I' for Inactive)
REMARK    1  A    between atoms: C_2  and  C_31
REMARK    2  A    between atoms: N_3  and  C_4
REMARK    3  A    between atoms: C_8  and  N_12
REMARK    4  A    between atoms: C_15  and  C_19
REMARK    5  A    between atoms: C_22  and  C_25
REMARK                            x       y       z     vdW  Elec       q    Type
REMARK                         _______ _______ _______ _____ _____    ______ ____
ROOT
ATOM     12  N   UNL     1      -0.047   0.580  23.282  0.00  0.00    -0.200 NA
ATOM     13  C   UNL     1      -0.538   0.331  23.897  0.00  0.00    +0.237 A 
ATOM     14  N   UNL     1      -1.281   0.674  23.996  0.00  0.00    -0.212 NA
ATOM     15  C   UNL     1      -1.772   0.425  24.611  0.00  0.00    +0.086 A 
ATOM     16  C   UNL     1      -1.519  -0.167  25.126  0.00  0.00    +0.040 A 
ATOM     17  C   UNL     1      -0.775  -0.510  25.028  0.00  0.00    +0.103 A 
ATOM     18  N   UNL     1      -0.284  -0.261  24.413  0.00  0.00    -0.211 NA
ENDROOT
BRANCH  12   8
ATOM      4  C   UNL     1       2.738   0.483  23.049  0.00  0.00    +0.155 C 
ATOM      5  C   UNL     1       2.585   1.287  23.153  0.00  0.00    +0.166 C 
ATOM      6  O   UNL     1       1.769   1.382  23.229  0.00  0.00    -0.350 OA
ATOM      7  C   UNL     1       1.418   0.639  23.172  0.00  0.00    +0.166 C 
ATOM      8  C   UNL     1       0.698   0.237  23.183  0.00  0.00    +0.154 C 
ATOM      9  C   UNL     1       0.851  -0.566  23.079  0.00  0.00    +0.166 C 
ATOM     10  O   UNL     1       1.666  -0.662  23.003  0.00  0.00    -0.350 OA
ATOM     11  C   UNL     1       2.017   0.083  23.060  0.00  0.00    +0.166 C 
BRANCH   4   3
ATOM      1  O   UNL     1       4.083   1.249  23.621  0.00  0.00    -0.265 OA
ATOM      2  C   UNL     1       4.154   0.523  23.236  0.00  0.00    +0.300 C 
ATOM      3  N   UNL     1       3.482   0.140  22.950  0.00  0.00    -0.196 NA
BRANCH   2  31
ATOM     31  C   UNL     1       4.898   0.181  23.137  0.00  0.00    +0.200 A 
ATOM     32  C   UNL     1       5.350  -0.177  23.728  0.00  0.00    +0.046 A 
ATOM     33  C   UNL     1       6.052  -0.443  23.386  0.00  0.00    +0.044 A 
ATOM     34  C   UNL     1       6.034  -0.251  22.584  0.00  0.00    +0.180 A 
ATOM     35  O   UNL     1       5.321   0.135  22.430  0.00  0.00    -0.446 OA
ENDBRANCH   2  31
ENDBRANCH   4   3
ENDBRANCH  12   8
BRANCH  15  19
ATOM     19  C   UNL     1      -2.515   0.767  24.710  0.00  0.00    +0.018 A 
ATOM     20  C   UNL     1      -3.196   0.340  24.517  0.00  0.00    +0.001 A 
ATOM     21  C   UNL     1      -3.939   0.682  24.616  0.00  0.00    +0.000 A 
ATOM     22  C   UNL     1      -4.004   1.451  24.907  0.00  0.00    +0.000 A 
ATOM     23  C   UNL     1      -3.325   1.878  25.100  0.00  0.00    +0.000 A 
ATOM     24  C   UNL     1      -2.581   1.535  25.001  0.00  0.00    +0.001 A 
BRANCH  22  25
ATOM     25  C   UNL     1      -4.748   1.794  25.006  0.00  0.00    +0.000 A 
ATOM     26  C   UNL     1      -5.420   1.317  25.035  0.00  0.00    +0.000 A 
ATOM     27  C   UNL     1      -6.165   1.660  25.134  0.00  0.00    +0.000 A 
ATOM     28  C   UNL     1      -6.236   2.479  25.204  0.00  0.00    +0.000 A 
ATOM     29  C   UNL     1      -5.563   2.955  25.175  0.00  0.00    +0.000 A 
ATOM     30  C   UNL     1      -4.819   2.613  25.076  0.00  0.00    +0.000 A 
ENDBRANCH  22  25
ENDBRANCH  15  19
TORSDOF 5
ENDMDL
MODEL 2
REMARK VINA RESULT:      -6.0      2.056      7.786
REMARK  Name = 
REMARK  5 active torsions:
REMARK  status: ('A' for Active; 'I' for Inactive)
REMARK    1  A    between atoms: C_2  and  C_31
REMARK    2  A    between atoms: N_3  and  C_4
REMARK    3  A    between atoms: C_8  and  N_12
REMARK    4  A    between atoms: C_15  and  C_19
REMARK    5  A    between atoms: C_22  and  C_25
REMARK                            x       y       z     vdW  Elec       q    Type
REMARK                         _______ _______ _______ _____ _____    ______ ____
ROOT
ATOM     12  N   UNL     1      -0.262   0.736  24.425  0.00  0.00    -0.200 NA
ATOM     13  C   UNL     1       0.164   0.447  23.780  0.00  0.00    +0.237 A 
ATOM     14  N   UNL     1       0.988   0.442  23.799  0.00  0.00    -0.212 NA
ATOM     15  C   UNL     1       1.414   0.153  23.154  0.00  0.00    +0.086 A 
ATOM     16  C   UNL     1       1.015  -0.132  22.491  0.00  0.00    +0.040 A 
ATOM     17  C   UNL     1       0.190  -0.127  22.472  0.00  0.00    +0.103 A 
ATOM     18  N   UNL     1      -0.235   0.162  23.117  0.00  0.00    -0.211 NA
ENDROOT
BRANCH  12   8
ATOM      4  C   UNL     1      -2.841   1.792  24.649  0.00  0.00    +0.155 C 
ATOM      5  C   UNL     1      -2.357   2.434  24.833  0.00  0.00    +0.166 C 
ATOM      6  O   UNL     1      -1.573   2.183  24.784  0.00  0.00    -0.350 OA
ATOM      7  C   UNL     1      -1.572   1.388  24.570  0.00  0.00    +0.166 C 
ATOM      8  C   UNL     1      -1.087   0.740  24.407  0.00  0.00    +0.154 C 
ATOM      9  C   UNL     1      -1.571   0.098  24.222  0.00  0.00    +0.166 C 
ATOM     10  O   UNL     1      -2.355   0.349  24.271  0.00  0.00    -0.350 OA
ATOM     11  C   UNL     1      -2.356   1.145  24.486  0.00  0.00    +0.166 C 
BRANCH   4   3
ATOM      1  O   UNL     1      -3.686   2.758  25.686  0.00  0.00    -0.265 OA
ATOM      2  C   UNL     1      -4.088   2.279  25.149  0.00  0.00    +0.300 C 
ATOM      3  N   UNL     1      -3.666   1.796  24.630  0.00  0.00    -0.196 NA
BRANCH   2  31
ATOM     31  C   UNL     1      -4.913   2.283  25.130  0.00  0.00    +0.200 A 
ATOM     32  C   UNL     1      -5.407   2.718  25.628  0.00  0.00    +0.046 A 
ATOM     33  C   UNL     1      -6.188   2.557  25.416  0.00  0.00    +0.044 A 
ATOM     34  C   UNL     1      -6.177   2.022  24.787  0.00  0.00    +0.180 A 
ATOM     35  O   UNL     1      -5.389   1.853  24.611  0.00  0.00    -0.446 OA
ENDBRANCH   2  31
ENDBRANCH   4   3
ENDBRANCH  12   8
BRANCH  15  19
ATOM     19  C   UNL     1       2.239   0.149  23.172  0.00  0.00    +0.018 A 
ATOM     20  C   UNL     1       2.658   0.850  23.046  0.00  0.00    +0.001 A 
ATOM     21  C   UNL     1       3.482   0.846  23.065  0.00  0.00    +0.000 A 
ATOM     22  C   UNL     1       3.889   0.142  23.208  0.00  0.00    +0.000 A 
ATOM     23  C   UNL     1       3.470  -0.558  23.334  0.00  0.00    +0.000 A 
ATOM     24  C   UNL     1       2.645  -0.554  23.315  0.00  0.00    +0.001 A 
BRANCH  22  25
ATOM     25  C   UNL     1       4.713   0.138  23.226  0.00  0.00    +0.000 A 
ATOM     26  C   UNL     1       5.137  -0.206  22.608  0.00  0.00    +0.000 A 
ATOM     27  C   UNL     1       5.962  -0.210  22.626  0.00  0.00    +0.000 A 
ATOM     28  C   UNL     1       6.362   0.129  23.263  0.00  0.00    +0.000 A 
ATOM     29  C   UNL     1       5.938   0.472  23.881  0.00  0.00    +0.000 A 
ATOM     30  C   UNL     1       5.114   0.476  23.863  0.00  0.00    +0.000 A 
ENDBRANCH  22  25
ENDBRANCH  15  19
TORSDOF 5
ENDMDL
MODEL 3
REMARK VINA RESULT:      -5.3     15.897     18.118
REMARK  Name = 
REMARK  5 active torsions:
REMARK  status: ('A' for Active; 'I' for Inactive)
REMARK    1  A    between atoms: C_2  and  C_31
REMARK    2  A    between atoms: N_3  and  C_4
REMARK    3  A    between atoms: C_8  and  N_12
REMARK    4  A    between atoms: C_15  and  C_19
REMARK    5  A    between atoms: C_22  and  C_25
REMARK                            x       y       z     vdW  Elec       q    Type
REMARK                         _______ _______ _______ _____ _____    ______ ____
ROOT
ATOM     12  N   UNL     1      -2.685  -8.992  10.174  0.00  0.00    -0.200 NA
ATOM     13  C   UNL     1      -2.136  -9.218  10.747  0.00  0.00    +0.237 A 
ATOM     14  N   UNL     1      -1.455  -8.769  10.866  0.00  0.00    -0.212 NA
ATOM     15  C   UNL     1      -0.906  -8.995  11.439  0.00  0.00    +0.086 A 
ATOM     16  C   UNL     1      -1.038  -9.671  11.893  0.00  0.00    +0.040 A 
ATOM     17  C   UNL     1      -1.720 -10.121  11.773  0.00  0.00    +0.103 A 
ATOM     18  N   UNL     1      -2.268  -9.894  11.200  0.00  0.00    -0.211 NA
ENDROOT
BRANCH  12   8
ATOM      4  C   UNL     1      -5.386  -9.495   9.655  0.00  0.00    +0.155 C 
ATOM      5  C   UNL     1      -5.339  -8.672   9.635  0.00  0.00    +0.166 C 
ATOM      6  O   UNL     1      -4.557  -8.457   9.783  0.00  0.00    -0.350 OA
ATOM      7  C   UNL     1      -4.120  -9.147   9.894  0.00  0.00    +0.166 C 
ATOM      8  C   UNL     1      -3.366  -9.442  10.054  0.00  0.00    +0.154 C 
ATOM      9  C   UNL     1      -3.412 -10.266  10.074  0.00  0.00    +0.166 C 
ATOM     10  O   UNL     1      -4.195 -10.480   9.926  0.00  0.00    -0.350 OA
ATOM     11  C   UNL     1      -4.632  -9.789   9.815  0.00  0.00    +0.166 C 
BRANCH   4   3
ATOM      1  O   UNL     1      -6.867  -8.767   9.655  0.00  0.00    -0.265 OA
ATOM      2  C   UNL     1      -6.807  -9.581   9.536  0.00  0.00    +0.300 C 
ATOM      3  N   UNL     1      -6.067  -9.945   9.535  0.00  0.00    -0.196 NA
BRANCH   2  31
ATOM     31  C   UNL     1      -7.489 -10.031   9.416  0.00  0.00    +0.200 A 
ATOM     32  C   UNL     1      -7.834 -10.203   8.687  0.00  0.00    +0.046 A 
ATOM     33  C   UNL     1      -8.503 -10.667   8.825  0.00  0.00    +0.044 A 
ATOM     34  C   UNL     1      -8.570 -10.781   9.640  0.00  0.00    +0.180 A 
ATOM     35  O   UNL     1      -7.944 -10.388  10.005  0.00  0.00    -0.446 OA
ENDBRANCH   2  31
ENDBRANCH   4   3
ENDBRANCH  12   8
BRANCH  15  19
ATOM     19  C   UNL     1      -0.226  -8.545  11.559  0.00  0.00    +0.018 A 
ATOM     20  C   UNL     1       0.409  -8.608  11.034  0.00  0.00    +0.001 A 
ATOM     21  C   UNL     1       1.089  -8.159  11.153  0.00  0.00    +0.000 A 
ATOM     22  C   UNL     1       1.138  -7.646  11.797  0.00  0.00    +0.000 A 
ATOM     23  C   UNL     1       0.504  -7.582  12.322  0.00  0.00    +0.000 A 
ATOM     24  C   UNL     1      -0.177  -8.032  12.203  0.00  0.00    +0.001 A 
BRANCH  22  25
ATOM     25  C   UNL     1       1.818  -7.196  11.917  0.00  0.00    +0.000 A 
ATOM     26  C   UNL     1       2.561  -7.532  11.793  0.00  0.00    +0.000 A 
ATOM     27  C   UNL     1       3.243  -7.082  11.912  0.00  0.00    +0.000 A 
ATOM     28  C   UNL     1       3.180  -6.296  12.157  0.00  0.00    +0.000 A 
ATOM     29  C   UNL     1       2.437  -5.961  12.281  0.00  0.00    +0.000 A 
ATOM     30  C   UNL     1       1.757  -6.410  12.161  0.00  0.00    +0.000 A 
ENDBRANCH  22  25
ENDBRANCH  15  19
TORSDOF 5
ENDMDL
