MODEL 1
REMARK VINA RESULT:     -12.8      0.000      0.000
REMARK  Name = 
REMARK  5 active torsions:
REMARK  status: ('A' for Active; 'I' for Inactive)
REMARK    1  A    between atoms: C_5  and  C_6
REMARK    2  A    between atoms: C_6  and  N_7
REMARK    3  A    between atoms: C_12  and  C_13
REMARK    4  A    between atoms: C_15  and  C_16
REMARK    5  A    between atoms: C_16  and  C_17
REMARK                            x       y       z     vdW  Elec       q    Type
REMARK                         _______ _______ _______ _____ _____    ______ ____
ROOT
ATOM      7  N   UNL     1      -4.484   1.461  24.741  0.00  0.00    -0.260 NA
ATOM      8  C   UNL     1      -5.237   1.141  24.851  0.00  0.00    +0.106 C 
ATOM      9  C   UNL     1      -5.753   1.760  25.030  0.00  0.00    +0.170 C 
ATOM     10  O   UNL     1      -6.560   1.690  25.182  0.00  0.00    -0.222 OA
ATOM     11  C   UNL     1      -5.318   2.462  25.031  0.00  0.00    +0.060 C 
ATOM     12  C   UNL     1      -4.534   2.277  24.852  0.00  0.00    +0.140 C 
ENDROOT
BRANCH  12  13
ATOM     13  C   UNL     1      -3.910   2.814  24.795  0.00  0.00    +0.251 A 
ATOM     14  N   UNL     1      -3.393   3.023  25.402  0.00  0.00    -0.193 NA
ATOM     15  C   UNL     1      -2.857   3.574  25.103  0.00  0.00    +0.185 A 
ATOM     23  N   UNL     1      -3.043   3.705  24.309  0.00  0.00    -0.060 NA
ATOM     24  O   UNL     1      -3.693   3.235  24.119  0.00  0.00    -0.336 OA
BRANCH  15  16
ATOM     16  C   UNL     1      -2.244   3.931  25.522  0.00  0.00    +0.095 C 
BRANCH  16  17
ATOM     17  C   UNL     1      -1.496   3.582  25.539  0.00  0.00    -0.014 A 
ATOM     18  C   UNL     1      -0.941   3.768  24.958  0.00  0.00    -0.004 A 
ATOM     19  C   UNL     1      -0.194   3.418  24.975  0.00  0.00    -0.000 A 
ATOM     20  C   UNL     1      -0.002   2.882  25.572  0.00  0.00    -0.000 A 
ATOM     21  C   UNL     1      -0.558   2.696  26.153  0.00  0.00    -0.000 A 
ATOM     22  C   UNL     1      -1.305   3.045  26.136  0.00  0.00    -0.004 A 
ENDBRANCH  16  17
ENDBRANCH  15  16
ENDBRANCH  12  13
BRANCH   7   6
ATOM      6  C   UNL     1      -3.800   1.038  24.553  0.00  0.00    +0.100 C 
BRANCH   6   5
ATOM      1  C   UNL     1      -3.831  -2.261  24.628  0.00  0.00    +0.031 C 
ATOM      2  C   UNL     1      -3.823  -1.437  24.610  0.00  0.00    -0.022 A 
ATOM      3  C   UNL     1      -4.005  -1.038  23.910  0.00  0.00    -0.005 A 
ATOM      4  C   UNL     1      -3.997  -0.213  23.892  0.00  0.00    -0.003 A 
ATOM      5  C   UNL     1      -3.808   0.213  24.571  0.00  0.00    -0.006 A 
ATOM     25  C   UNL     1      -3.626  -0.185  25.271  0.00  0.00    -0.003 A 
ATOM     26  C   UNL     1      -3.634  -1.009  25.290  0.00  0.00    -0.005 A 
ENDBRANCH   6   5
ENDBRANCH   7   6
TORSDOF 5
ENDMDL
MODEL 2
REMARK VINA RESULT:     -12.3      2.354      5.389
REMARK  Name = 
REMARK  5 active torsions:
REMARK  status: ('A' for Active; 'I' for Inactive)
REMARK    1  A    between atoms: C_5  and  C_6
REMARK    2  A    between atoms: C_6  and  N_7
REMARK    3  A    between atoms: C_12  and  C_13
REMARK    4  A    between atoms: C_15  and  C_16
REMARK    5  A    between atoms: C_16  and  C_17
REMARK                            x       y       z     vdW  Elec       q    Type
REMARK                         _______ _______ _______ _____ _____    ______ ____
ROOT
ATOM      7  N   UNL     1      -0.817   1.257  24.933  0.00  0.00    -0.260 NA
ATOM      8  C   UNL     1      -0.239   1.517  24.404  0.00  0.00    +0.106 C 
ATOM      9  C   UNL     1       0.019   0.866  23.968  0.00  0.00    +0.170 C 
ATOM     10  O   UNL     1       0.595   0.877  23.377  0.00  0.00    -0.222 OA
ATOM     11  C   UNL     1      -0.399   0.204  24.226  0.00  0.00    +0.060 C 
ATOM     12  C   UNL     1      -0.916   0.445  24.822  0.00  0.00    +0.140 C 
ENDROOT
BRANCH  12  13
ATOM     13  C   UNL     1      -1.440  -0.040  25.236  0.00  0.00    +0.251 A 
ATOM     14  N   UNL     1      -2.229  -0.178  25.041  0.00  0.00    -0.193 NA
ATOM     15  C   UNL     1      -2.544  -0.696  25.602  0.00  0.00    +0.185 A 
ATOM     23  N   UNL     1      -1.948  -0.878  26.143  0.00  0.00    -0.060 NA
ATOM     24  O   UNL     1      -1.266  -0.473  25.917  0.00  0.00    -0.336 OA
BRANCH  15  16
ATOM     16  C   UNL     1      -3.317  -0.981  25.618  0.00  0.00    +0.095 C 
BRANCH  16  17
ATOM     17  C   UNL     1      -3.574  -1.512  25.041  0.00  0.00    -0.014 A 
ATOM     18  C   UNL     1      -3.382  -2.312  25.101  0.00  0.00    -0.004 A 
ATOM     19  C   UNL     1      -3.638  -2.842  24.524  0.00  0.00    -0.000 A 
ATOM     20  C   UNL     1      -4.087  -2.573  23.886  0.00  0.00    -0.000 A 
ATOM     21  C   UNL     1      -4.279  -1.773  23.826  0.00  0.00    -0.000 A 
ATOM     22  C   UNL     1      -4.022  -1.242  24.403  0.00  0.00    -0.004 A 
ENDBRANCH  16  17
ENDBRANCH  15  16
ENDBRANCH  12  13
BRANCH   7   6
ATOM      6  C   UNL     1      -1.225   1.726  25.476  0.00  0.00    +0.100 C 
BRANCH   6   5
ATOM      1  C   UNL     1      -1.315   5.001  25.082  0.00  0.00    +0.031 C 
ATOM      2  C   UNL     1      -1.293   4.183  25.180  0.00  0.00    -0.022 A 
ATOM      3  C   UNL     1      -0.668   3.833  25.593  0.00  0.00    -0.005 A 
ATOM      4  C   UNL     1      -0.646   3.014  25.691  0.00  0.00    -0.003 A 
ATOM      5  C   UNL     1      -1.247   2.545  25.378  0.00  0.00    -0.006 A 
ATOM     25  C   UNL     1      -1.871   2.894  24.965  0.00  0.00    -0.003 A 
ATOM     26  C   UNL     1      -1.894   3.712  24.867  0.00  0.00    -0.005 A 
ENDBRANCH   6   5
ENDBRANCH   7   6
TORSDOF 5
ENDMDL
MODEL 3
REMARK VINA RESULT:     -12.0      2.077      3.308
REMARK  Name = 
REMARK  5 active torsions:
REMARK  status: ('A' for Active; 'I' for Inactive)
REMARK    1  A    between atoms: C_5  and  C_6
REMARK    2  A    between atoms: C_6  and  N_7
REMARK    3  A    between atoms: C_12  and  C_13
REMARK    4  A    between atoms: C_15  and  C_16
REMARK    5  A    between atoms: C_16  and  C_17
REMARK                            x       y       z     vdW  Elec       q    Type
REMARK                         _______ _______ _______ _____ _____    ______ ____
ROOT
ATOM      7  N   UNL     1      -1.468   0.053  24.773  0.00  0.00    -0.260 NA
ATOM      8  C   UNL     1      -1.061  -0.557  24.394  0.00  0.00    +0.106 C 
ATOM      9  C   UNL     1      -0.335  -0.259  24.139  0.00  0.00    +0.170 C 
ATOM     10  O   UNL     1       0.246  -0.681  23.734  0.00  0.00    -0.222 OA
ATOM     11  C   UNL     1      -0.293   0.534  24.361  0.00  0.00    +0.060 C 
ATOM     12  C   UNL     1      -0.993   0.727  24.753  0.00  0.00    +0.140 C 
ENDROOT
BRANCH  12  13
ATOM     13  C   UNL     1      -1.185   1.465  25.069  0.00  0.00    +0.251 A 
ATOM     14  N   UNL     1      -1.582   2.072  24.676  0.00  0.00    -0.193 NA
ATOM     15  C   UNL     1      -1.656   2.708  25.197  0.00  0.00    +0.185 A 
ATOM     23  N   UNL     1      -1.305   2.493  25.913  0.00  0.00    -0.060 NA
ATOM     24  O   UNL     1      -1.014   1.725  25.833  0.00  0.00    -0.336 OA
BRANCH  15  16
ATOM     16  C   UNL     1      -2.017   3.430  25.033  0.00  0.00    +0.095 C 
BRANCH  16  17
ATOM     17  C   UNL     1      -2.839   3.497  25.061  0.00  0.00    -0.014 A 
ATOM     18  C   UNL     1      -3.216   3.658  25.776  0.00  0.00    -0.004 A 
ATOM     19  C   UNL     1      -4.038   3.724  25.804  0.00  0.00    -0.000 A 
ATOM     20  C   UNL     1      -4.483   3.630  25.115  0.00  0.00    -0.000 A 
ATOM     21  C   UNL     1      -4.105   3.469  24.399  0.00  0.00    -0.000 A 
ATOM     22  C   UNL     1      -3.284   3.403  24.372  0.00  0.00    -0.004 A 
ENDBRANCH  16  17
ENDBRANCH  15  16
ENDBRANCH  12  13
BRANCH   7   6
ATOM      6  C   UNL     1      -2.218  -0.002  25.113  0.00  0.00    +0.100 C 
BRANCH   6   5
ATOM      1  C   UNL     1      -4.341  -2.297  24.056  0.00  0.00    +0.031 C 
ATOM      2  C   UNL     1      -3.811  -1.723  24.320  0.00  0.00    -0.022 A 
ATOM      3  C   UNL     1      -3.280  -1.901  24.928  0.00  0.00    -0.005 A 
ATOM      4  C   UNL     1      -2.750  -1.326  25.192  0.00  0.00    -0.003 A 
ATOM      5  C   UNL     1      -2.748  -0.577  24.849  0.00  0.00    -0.006 A 
ATOM     25  C   UNL     1      -3.279  -0.399  24.241  0.00  0.00    -0.003 A 
ATOM     26  C   UNL     1      -3.809  -0.973  23.977  0.00  0.00    -0.005 A 
ENDBRANCH   6   5
ENDBRANCH   7   6
TORSDOF 5
ENDMDL
MODEL 4
REMARK VINA RESULT:     -11.9      1.242      4.151
REMARK  Name = 
REMARK  5 active torsions:
REMARK  status: ('A' for Active; 'I' for Inactive)
REMARK    1  A    between atoms: C_5  and  C_6
REMARK    2  A    between atoms: C_6  and  N_7
REMARK    3  A    between atoms: C_12  and  C_13
REMARK    4  A    between atoms: C_15  and  C_16
REMARK    5  A    between atoms: C_16  and  C_17
REMARK                            x       y       z     vdW  Elec       q    Type
REMARK                         _______ _______ _______ _____ _____    ______ ____
ROOT
ATOM      7  N   UNL     1      -4.178   2.203  25.071  0.00  0.00    -0.260 NA
ATOM      8  C   UNL     1      -4.615   2.858  25.319  0.00  0.00    +0.106 C 
ATOM      9  C   UNL     1      -5.371   2.598  25.523  0.00  0.00    +0.170 C 
ATOM     10  O   UNL     1      -5.987   3.071  25.800  0.00  0.00    -0.222 OA
ATOM     11  C   UNL     1      -5.402   1.783  25.400  0.00  0.00    +0.060 C 
ATOM     12  C   UNL     1      -4.665   1.539  25.121  0.00  0.00    +0.140 C 
ENDROOT
BRANCH  12  13
ATOM     13  C   UNL     1      -4.451   0.766  24.926  0.00  0.00    +0.251 A 
ATOM     14  N   UNL     1      -4.183   0.190  25.451  0.00  0.00    -0.193 NA
ATOM     15  C   UNL     1      -4.035  -0.499  25.021  0.00  0.00    +0.185 A 
ATOM     23  N   UNL     1      -4.212  -0.348  24.230  0.00  0.00    -0.060 NA
ATOM     24  O   UNL     1      -4.470   0.434  24.170  0.00  0.00    -0.336 OA
BRANCH  15  16
ATOM     16  C   UNL     1      -3.758  -1.212  25.329  0.00  0.00    +0.095 C 
BRANCH  16  17
ATOM     17  C   UNL     1      -3.004  -1.483  25.129  0.00  0.00    -0.014 A 
ATOM     18  C   UNL     1      -2.338  -1.144  25.477  0.00  0.00    -0.004 A 
ATOM     19  C   UNL     1      -1.585  -1.416  25.277  0.00  0.00    -0.000 A 
ATOM     20  C   UNL     1      -1.499  -2.027  24.729  0.00  0.00    -0.000 A 
ATOM     21  C   UNL     1      -2.166  -2.366  24.382  0.00  0.00    -0.000 A 
ATOM     22  C   UNL     1      -2.919  -2.095  24.582  0.00  0.00    -0.004 A 
ENDBRANCH  16  17
ENDBRANCH  15  16
ENDBRANCH  12  13
BRANCH   7   6
ATOM      6  C   UNL     1      -3.393   2.211  24.817  0.00  0.00    +0.100 C 
BRANCH   6   5
ATOM      1  C   UNL     1      -1.540   4.902  25.282  0.00  0.00    +0.031 C 
ATOM      2  C   UNL     1      -2.003   4.230  25.166  0.00  0.00    -0.022 A 
ATOM      3  C   UNL     1      -2.488   4.173  24.500  0.00  0.00    -0.005 A 
ATOM      4  C   UNL     1      -2.951   3.500  24.384  0.00  0.00    -0.003 A 
ATOM      5  C   UNL     1      -2.930   2.885  24.933  0.00  0.00    -0.006 A 
ATOM     25  C   UNL     1      -2.445   2.942  25.599  0.00  0.00    -0.003 A 
ATOM     26  C   UNL     1      -1.982   3.614  25.715  0.00  0.00    -0.005 A 
ENDBRANCH   6   5
ENDBRANCH   7   6
TORSDOF 5
ENDMDL
