MODEL 1
REMARK VINA RESULT:     -12.8      0.000      0.000
REMARK  Name = 
REMARK  3 active torsions:
REMARK  status: ('A' for Active; 'I' for Inactive)
REMARK    1  A    between atoms: C_7  and  C_8
REMARK    2  A    between atoms: N_10  and  C_11
REMARK    3  A    between atoms: C_17  and  C_18
REMARK                            x       y       z     vdW  Elec       q    Type
REMARK                         _______ _______ _______ _____ _____    ______ ____
ROOT
ATOM     11  C   UNL     1      -4.336   1.271  24.563  0.00  0.00    +0.133 C 
ATOM     12  C   UNL     1      -5.026   1.533  24.931  0.00  0.00    +0.202 C 
ATOM     13  O   UNL     1      -5.665   1.062  25.155  0.00  0.00    -0.219 OA
ATOM     14  C   UNL     1      -4.965   2.349  25.035  0.00  0.00    +0.184 C 
ATOM     15  O   UNL     1      -5.533   2.838  25.381  0.00  0.00    -0.220 OA
ATOM     16  C   UNL     1      -4.237   2.591  24.731  0.00  0.00    +0.042 C 
ATOM     17  C   UNL     1      -3.848   1.924  24.440  0.00  0.00    +0.049 C 
ENDROOT
BRANCH  17  18
ATOM     18  C   UNL     1      -3.102   1.915  24.087  0.00  0.00    -0.002 A 
ATOM     19  C   UNL     1      -3.032   1.859  23.268  0.00  0.00    -0.001 A 
ATOM     20  C   UNL     1      -2.287   1.849  22.915  0.00  0.00    +0.020 A 
ATOM     21  C   UNL     1      -1.609   1.896  23.384  0.00  0.00    +0.099 A 
ATOM     22  N   UNL     1      -1.678   1.951  24.204  0.00  0.00    -0.243 NA
ATOM     23  C   UNL     1      -2.424   1.961  24.557  0.00  0.00    +0.095 A 
ENDBRANCH  17  18
BRANCH  11  10
ATOM      8  C   UNL     1      -4.210  -0.107  24.922  0.00  0.00    +0.265 C 
ATOM      9  O   UNL     1      -4.429   0.075  25.695  0.00  0.00    -0.268 OA
ATOM     10  N   UNL     1      -4.163   0.490  24.355  0.00  0.00    -0.200 NA
BRANCH   8   7
ATOM      1  C   UNL     1      -3.308  -1.049  25.932  0.00  0.00    +0.031 C 
ATOM      2  C   UNL     1      -3.586  -1.358  25.219  0.00  0.00    -0.017 A 
ATOM      3  C   UNL     1      -3.414  -2.137  25.011  0.00  0.00    -0.004 A 
ATOM      4  C   UNL     1      -3.692  -2.445  24.298  0.00  0.00    -0.000 A 
ATOM      5  C   UNL     1      -4.142  -1.974  23.794  0.00  0.00    +0.000 A 
ATOM      6  C   UNL     1      -4.315  -1.195  24.001  0.00  0.00    +0.004 A 
ATOM      7  C   UNL     1      -4.037  -0.886  24.714  0.00  0.00    +0.051 A 
ENDBRANCH   8   7
ENDBRANCH  11  10
TORSDOF 3
ENDMDL
MODEL 2
REMARK VINA RESULT:     -11.6      1.401      2.352
REMARK  Name = 
REMARK  3 active torsions:
REMARK  status: ('A' for Active; 'I' for Inactive)
REMARK    1  A    between atoms: C_7  and  C_8
REMARK    2  A    between atoms: N_10  and  C_11
REMARK    3  A    between atoms: C_17  and  C_18
REMARK                            x       y       z     vdW  Elec       q    Type
REMARK                         _______ _______ _______ _____ _____    ______ ____
ROOT
ATOM     11  C   UNL     1      -3.555   1.474  24.191  0.00  0.00    +0.133 C 
ATOM     12  C   UNL     1      -2.854   1.766  23.871  0.00  0.00    +0.202 C 
ATOM     13  O   UNL     1      -2.266   1.320  23.501  0.00  0.00    -0.219 OA
ATOM     14  C   UNL     1      -2.842   2.583  23.984  0.00  0.00    +0.184 C 
ATOM     15  O   UNL     1      -2.242   3.098  23.749  0.00  0.00    -0.220 OA
ATOM     16  C   UNL     1      -3.537   2.796  24.375  0.00  0.00    +0.042 C 
ATOM     17  C   UNL     1      -3.978   2.109  24.503  0.00  0.00    +0.049 C 
ENDROOT
BRANCH  17  18
ATOM     18  C   UNL     1      -4.712   2.068  24.877  0.00  0.00    -0.002 A 
ATOM     19  C   UNL     1      -5.392   1.909  24.438  0.00  0.00    -0.001 A 
ATOM     20  C   UNL     1      -6.125   1.868  24.812  0.00  0.00    +0.020 A 
ATOM     21  C   UNL     1      -6.180   1.987  25.626  0.00  0.00    +0.099 A 
ATOM     22  N   UNL     1      -5.500   2.146  26.066  0.00  0.00    -0.243 NA
ATOM     23  C   UNL     1      -4.766   2.187  25.692  0.00  0.00    +0.095 A 
ENDBRANCH  17  18
BRANCH  11  10
ATOM      8  C   UNL     1      -3.284   0.103  24.488  0.00  0.00    +0.265 C 
ATOM      9  O   UNL     1      -2.539   0.311  24.772  0.00  0.00    -0.268 OA
ATOM     10  N   UNL     1      -3.793   0.683  24.198  0.00  0.00    -0.200 NA
BRANCH   8   7
ATOM      1  C   UNL     1      -2.931  -0.854  25.786  0.00  0.00    +0.031 C 
ATOM      2  C   UNL     1      -3.345  -1.166  25.144  0.00  0.00    -0.017 A 
ATOM      3  C   UNL     1      -3.583  -1.955  25.151  0.00  0.00    -0.004 A 
ATOM      4  C   UNL     1      -3.997  -2.268  24.510  0.00  0.00    -0.000 A 
ATOM      5  C   UNL     1      -4.173  -1.789  23.861  0.00  0.00    +0.000 A 
ATOM      6  C   UNL     1      -3.936  -1.000  23.854  0.00  0.00    +0.004 A 
ATOM      7  C   UNL     1      -3.522  -0.687  24.495  0.00  0.00    +0.051 A 
ENDBRANCH   8   7
ENDBRANCH  11  10
TORSDOF 3
ENDMDL
