MODEL 1
REMARK VINA RESULT:     -12.4      0.000      0.000
REMARK  Name = 
REMARK  6 active torsions:
REMARK  status: ('A' for Active; 'I' for Inactive)
REMARK    1  A    between atoms: C_2  and  C_3
REMARK    2  A    between atoms: C_5  and  C_6
REMARK    3  A    between atoms: C_6  and  N_7
REMARK    4  A    between atoms: C_8  and  C_10
REMARK    5  A    between atoms: C_17  and  N_20
REMARK    6  A    between atoms: N_23  and  C_26
REMARK                            x       y       z     vdW  Elec       q    Type
REMARK                         _______ _______ _______ _____ _____    ______ ____
ROOT
ATOM      3  C   UNL     1      -5.845   1.945  25.158  0.00  0.00    +0.180 C 
ATOM      4  O   UNL     1      -5.406   1.273  24.971  0.00  0.00    -0.350 OA
ATOM      5  C   UNL     1      -4.616   1.496  24.892  0.00  0.00    +0.154 C 
ATOM     17  C   UNL     1      -4.566   2.308  25.030  0.00  0.00    +0.120 C 
ATOM     18  C   UNL     1      -5.325   2.586  25.195  0.00  0.00    +0.198 C 
ATOM     19  O   UNL     1      -5.529   3.367  25.366  0.00  0.00    -0.219 OA
ENDROOT
BRANCH  17  20
ATOM     20  N   UNL     1      -3.878   2.762  25.008  0.00  0.00    -0.267 NA
ATOM     21  C   UNL     1      -3.427   2.861  25.692  0.00  0.00    +0.094 C 
ATOM     22  C   UNL     1      -2.738   3.316  25.671  0.00  0.00    +0.108 C 
ATOM     23  N   UNL     1      -2.501   3.671  24.964  0.00  0.00    -0.305 N 
ATOM     24  C   UNL     1      -2.952   3.572  24.281  0.00  0.00    +0.108 C 
ATOM     25  C   UNL     1      -3.640   3.118  24.303  0.00  0.00    +0.094 C 
BRANCH  23  26
ATOM     26  C   UNL     1      -1.812   4.126  24.943  0.00  0.00    +0.048 A 
ATOM     27  C   UNL     1      -1.853   4.941  25.058  0.00  0.00    +0.015 A 
ATOM     28  C   UNL     1      -1.165   5.396  25.037  0.00  0.00    +0.001 A 
ATOM     29  C   UNL     1      -0.435   5.034  24.900  0.00  0.00    +0.000 A 
ATOM     30  C   UNL     1      -0.396   4.218  24.784  0.00  0.00    +0.001 A 
ATOM     31  C   UNL     1      -1.084   3.764  24.806  0.00  0.00    +0.015 A 
ENDBRANCH  23  26
ENDBRANCH  17  20
BRANCH   3   2
ATOM      1  O   UNL     1      -7.172   1.595  24.762  0.00  0.00    -0.218 OA
ATOM      2  C   UNL     1      -6.658   1.974  25.286  0.00  0.00    +0.214 C 
ENDBRANCH   3   2
BRANCH   5   6
ATOM      6  C   UNL     1      -3.987   0.996  24.707  0.00  0.00    +0.146 C 
BRANCH   6   7
ATOM      7  N   UNL     1      -4.100   0.180  24.688  0.00  0.00    -0.199 NA
ATOM      8  C   UNL     1      -3.476  -0.319  24.483  0.00  0.00    +0.266 C 
ATOM      9  O   UNL     1      -2.739  -0.002  24.295  0.00  0.00    -0.268 OA
BRANCH   8  10
ATOM     10  C   UNL     1      -3.590  -1.137  24.464  0.00  0.00    +0.066 A 
ATOM     11  C   UNL     1      -3.279  -1.610  25.063  0.00  0.00    +0.062 A 
ATOM     12 CL   UNL     1      -2.852  -1.268  25.681  0.00  0.00    -0.082 Cl
ATOM     13  C   UNL     1      -3.393  -2.428  25.045  0.00  0.00    +0.012 A 
ATOM     14  C   UNL     1      -3.820  -2.770  24.427  0.00  0.00    +0.001 A 
ATOM     15  C   UNL     1      -4.132  -2.295  23.827  0.00  0.00    +0.000 A 
ATOM     16  C   UNL     1      -4.017  -1.479  23.846  0.00  0.00    +0.005 A 
ENDBRANCH   8  10
ENDBRANCH   6   7
ENDBRANCH   5   6
TORSDOF 6
ENDMDL
MODEL 2
REMARK VINA RESULT:     -12.2      1.250      4.965
REMARK  Name = 
REMARK  6 active torsions:
REMARK  status: ('A' for Active; 'I' for Inactive)
REMARK    1  A    between atoms: C_2  and  C_3
REMARK    2  A    between atoms: C_5  and  C_6
REMARK    3  A    between atoms: C_6  and  N_7
REMARK    4  A    between atoms: C_8  and  C_10
REMARK    5  A    between atoms: C_17  and  N_20
REMARK    6  A    between atoms: N_23  and  C_26
REMARK                            x       y       z     vdW  Elec       q    Type
REMARK                         _______ _______ _______ _____ _____    ______ ____
ROOT
ATOM      3  C   UNL     1      -5.322   2.944  25.296  0.00  0.00    +0.180 C 
ATOM      4  O   UNL     1      -4.523   3.144  25.323  0.00  0.00    -0.350 OA
ATOM      5  C   UNL     1      -4.083   2.457  25.193  0.00  0.00    +0.154 C 
ATOM     17  C   UNL     1      -4.612   1.833  25.086  0.00  0.00    +0.120 C 
ATOM     18  C   UNL     1      -5.378   2.134  25.149  0.00  0.00    +0.198 C 
ATOM     19  O   UNL     1      -6.077   1.700  25.078  0.00  0.00    -0.219 OA
ENDROOT
BRANCH  17  20
ATOM     20  N   UNL     1      -4.411   1.047  24.941  0.00  0.00    -0.267 NA
ATOM     21  C   UNL     1      -4.405   0.501  25.560  0.00  0.00    +0.094 C 
ATOM     22  C   UNL     1      -4.204  -0.286  25.416  0.00  0.00    +0.108 C 
ATOM     23  N   UNL     1      -4.008  -0.527  24.651  0.00  0.00    -0.305 N 
ATOM     24  C   UNL     1      -4.013   0.018  24.032  0.00  0.00    +0.108 C 
ATOM     25  C   UNL     1      -4.215   0.805  24.177  0.00  0.00    +0.094 C 
BRANCH  23  26
ATOM     26  C   UNL     1      -3.806  -1.314  24.506  0.00  0.00    +0.048 A 
ATOM     27  C   UNL     1      -3.159  -1.651  24.890  0.00  0.00    +0.015 A 
ATOM     28  C   UNL     1      -2.958  -2.439  24.745  0.00  0.00    +0.001 A 
ATOM     29  C   UNL     1      -3.404  -2.888  24.216  0.00  0.00    +0.000 A 
ATOM     30  C   UNL     1      -4.052  -2.550  23.833  0.00  0.00    +0.001 A 
ATOM     31  C   UNL     1      -4.253  -1.764  23.978  0.00  0.00    +0.015 A 
ENDBRANCH  23  26
ENDBRANCH  17  20
BRANCH   3   2
ATOM      1  O   UNL     1      -5.833   4.199  25.751  0.00  0.00    -0.218 OA
ATOM      2  C   UNL     1      -5.955   3.463  25.397  0.00  0.00    +0.214 C 
ENDBRANCH   3   2
BRANCH   5   6
ATOM      6  C   UNL     1      -3.260   2.405  25.174  0.00  0.00    +0.146 C 
BRANCH   6   7
ATOM      7  N   UNL     1      -2.808   3.076  25.019  0.00  0.00    -0.199 NA
ATOM      8  C   UNL     1      -2.011   3.095  25.234  0.00  0.00    +0.266 C 
ATOM      9  O   UNL     1      -1.667   2.443  25.603  0.00  0.00    -0.268 OA
BRANCH   8  10
ATOM     10  C   UNL     1      -1.558   3.768  25.079  0.00  0.00    +0.066 A 
ATOM     11  C   UNL     1      -0.858   3.703  24.649  0.00  0.00    +0.062 A 
ATOM     12 CL   UNL     1      -0.609   2.966  24.373  0.00  0.00    -0.082 Cl
ATOM     13  C   UNL     1      -0.405   4.376  24.493  0.00  0.00    +0.012 A 
ATOM     14  C   UNL     1      -0.654   5.113  24.769  0.00  0.00    +0.001 A 
ATOM     15  C   UNL     1      -1.356   5.177  25.200  0.00  0.00    +0.000 A 
ATOM     16  C   UNL     1      -1.807   4.505  25.355  0.00  0.00    +0.005 A 
ENDBRANCH   8  10
ENDBRANCH   6   7
ENDBRANCH   5   6
TORSDOF 6
ENDMDL
MODEL 3
REMARK VINA RESULT:     -11.7      2.220      3.708
REMARK  Name = 
REMARK  6 active torsions:
REMARK  status: ('A' for Active; 'I' for Inactive)
REMARK    1  A    between atoms: C_2  and  C_3
REMARK    2  A    between atoms: C_5  and  C_6
REMARK    3  A    between atoms: C_6  and  N_7
REMARK    4  A    between atoms: C_8  and  C_10
REMARK    5  A    between atoms: C_17  and  N_20
REMARK    6  A    between atoms: N_23  and  C_26
REMARK                            x       y       z     vdW  Elec       q    Type
REMARK                         _______ _______ _______ _____ _____    ______ ____
ROOT
ATOM      3  C   UNL     1       0.390  -0.005  23.656  0.00  0.00    +0.180 C 
ATOM      4  O   UNL     1      -0.289  -0.375  23.942  0.00  0.00    -0.350 OA
ATOM      5  C   UNL     1      -0.782   0.205  24.261  0.00  0.00    +0.154 C 
ATOM     17  C   UNL     1      -0.406   0.935  24.173  0.00  0.00    +0.120 C 
ATOM     18  C   UNL     1       0.318   0.805  23.799  0.00  0.00    +0.198 C 
ATOM     19  O   UNL     1       0.873   1.383  23.602  0.00  0.00    -0.219 OA
ENDROOT
BRANCH  17  20
ATOM     20  N   UNL     1      -0.702   1.665  24.415  0.00  0.00    -0.267 NA
ATOM     21  C   UNL     1      -1.174   2.109  23.903  0.00  0.00    +0.094 C 
ATOM     22  C   UNL     1      -1.471   2.840  24.145  0.00  0.00    +0.108 C 
ATOM     23  N   UNL     1      -1.295   3.127  24.899  0.00  0.00    -0.305 N 
ATOM     24  C   UNL     1      -0.823   2.684  25.410  0.00  0.00    +0.108 C 
ATOM     25  C   UNL     1      -0.527   1.952  25.168  0.00  0.00    +0.094 C 
BRANCH  23  26
ATOM     26  C   UNL     1      -1.591   3.858  25.141  0.00  0.00    +0.048 A 
ATOM     27  C   UNL     1      -1.191   4.551  24.942  0.00  0.00    +0.015 A 
ATOM     28  C   UNL     1      -1.488   5.283  25.184  0.00  0.00    +0.001 A 
ATOM     29  C   UNL     1      -2.185   5.320  25.625  0.00  0.00    +0.000 A 
ATOM     30  C   UNL     1      -2.584   4.626  25.823  0.00  0.00    +0.001 A 
ATOM     31  C   UNL     1      -2.288   3.896  25.581  0.00  0.00    +0.015 A 
ENDBRANCH  23  26
ENDBRANCH  17  20
BRANCH   3   2
ATOM      1  O   UNL     1       0.937  -0.719  22.547  0.00  0.00    -0.218 OA
ATOM      2  C   UNL     1       1.029  -0.378  23.293  0.00  0.00    +0.214 C 
ENDBRANCH   3   2
BRANCH   5   6
ATOM      6  C   UNL     1      -1.519   0.079  24.607  0.00  0.00    +0.146 C 
BRANCH   6   7
ATOM      7  N   UNL     1      -1.962  -0.586  24.403  0.00  0.00    -0.199 NA
ATOM      8  C   UNL     1      -2.675  -0.742  24.789  0.00  0.00    +0.266 C 
ATOM      9  O   UNL     1      -2.944  -0.233  25.379  0.00  0.00    -0.268 OA
BRANCH   8  10
ATOM     10  C   UNL     1      -3.118  -1.407  24.584  0.00  0.00    +0.066 A 
ATOM     11  C   UNL     1      -3.801  -1.325  24.129  0.00  0.00    +0.062 A 
ATOM     12 CL   UNL     1      -4.042  -0.576  23.878  0.00  0.00    -0.082 Cl
ATOM     13  C   UNL     1      -4.244  -1.991  23.924  0.00  0.00    +0.012 A 
ATOM     14  C   UNL     1      -4.002  -2.739  24.175  0.00  0.00    +0.001 A 
ATOM     15  C   UNL     1      -3.319  -2.821  24.630  0.00  0.00    +0.000 A 
ATOM     16  C   UNL     1      -2.877  -2.156  24.835  0.00  0.00    +0.005 A 
ENDBRANCH   8  10
ENDBRANCH   6   7
ENDBRANCH   5   6
TORSDOF 6
ENDMDL
MODEL 4
REMARK VINA RESULT:     -10.2      1.919      5.405
REMARK  Name = 
REMARK  6 active torsions:
REMARK  status: ('A' for Active; 'I' for Inactive)
REMARK    1  A    between atoms: C_2  and  C_3
REMARK    2  A    between atoms: C_5  and  C_6
REMARK    3  A    between atoms: C_6  and  N_7
REMARK    4  A    between atoms: C_8  and  C_10
REMARK    5  A    between atoms: C_17  and  N_20
REMARK    6  A    between atoms: N_23  and  C_26
REMARK                            x       y       z     vdW  Elec       q    Type
REMARK                         _______ _______ _______ _____ _____    ______ ____
ROOT
ATOM      3  C   UNL     1      -0.742   1.961  25.557  0.00  0.00    +0.180 C 
ATOM      4  O   UNL     1      -1.362   2.374  25.203  0.00  0.00    -0.350 OA
ATOM      5  C   UNL     1      -1.919   1.825  24.940  0.00  0.00    +0.154 C 
ATOM     17  C   UNL     1      -1.643   1.071  25.131  0.00  0.00    +0.120 C 
ATOM     18  C   UNL     1      -0.915   1.155  25.512  0.00  0.00    +0.198 C 
ATOM     19  O   UNL     1      -0.444   0.540  25.798  0.00  0.00    -0.219 OA
ENDROOT
BRANCH  17  20
ATOM     20  N   UNL     1      -2.026   0.359  24.969  0.00  0.00    -0.267 NA
ATOM     21  C   UNL     1      -2.482  -0.005  25.552  0.00  0.00    +0.094 C 
ATOM     22  C   UNL     1      -2.866  -0.718  25.391  0.00  0.00    +0.108 C 
ATOM     23  N   UNL     1      -2.793  -1.066  24.646  0.00  0.00    -0.305 N 
ATOM     24  C   UNL     1      -2.337  -0.702  24.063  0.00  0.00    +0.108 C 
ATOM     25  C   UNL     1      -1.954   0.011  24.225  0.00  0.00    +0.094 C 
BRANCH  23  26
ATOM     26  C   UNL     1      -3.177  -1.779  24.484  0.00  0.00    +0.048 A 
ATOM     27  C   UNL     1      -2.863  -2.488  24.765  0.00  0.00    +0.015 A 
ATOM     28  C   UNL     1      -3.247  -3.201  24.603  0.00  0.00    +0.001 A 
ATOM     29  C   UNL     1      -3.944  -3.203  24.161  0.00  0.00    +0.000 A 
ATOM     30  C   UNL     1      -4.257  -2.493  23.881  0.00  0.00    +0.001 A 
ATOM     31  C   UNL     1      -3.873  -1.781  24.043  0.00  0.00    +0.015 A 
ENDBRANCH  23  26
ENDBRANCH  17  20
BRANCH   3   2
ATOM      1  O   UNL     1      -0.007   3.113  25.973  0.00  0.00    -0.218 OA
ATOM      2  C   UNL     1      -0.068   2.293  25.895  0.00  0.00    +0.214 C 
ENDBRANCH   3   2
BRANCH   5   6
ATOM      6  C   UNL     1      -2.627   1.999  24.554  0.00  0.00    +0.146 C 
BRANCH   6   7
ATOM      7  N   UNL     1      -3.218   2.419  24.946  0.00  0.00    -0.199 NA
ATOM      8  C   UNL     1      -3.886   2.674  24.534  0.00  0.00    +0.266 C 
ATOM      9  O   UNL     1      -3.962   2.509  23.730  0.00  0.00    -0.268 OA
BRANCH   8  10
ATOM     10  C   UNL     1      -4.477   3.095  24.927  0.00  0.00    +0.066 A 
ATOM     11  C   UNL     1      -5.194   2.729  25.107  0.00  0.00    +0.062 A 
ATOM     12 CL   UNL     1      -5.320   1.941  24.894  0.00  0.00    -0.082 Cl
ATOM     13  C   UNL     1      -5.785   3.149  25.500  0.00  0.00    +0.012 A 
ATOM     14  C   UNL     1      -5.659   3.937  25.713  0.00  0.00    +0.001 A 
ATOM     15  C   UNL     1      -4.941   4.303  25.533  0.00  0.00    +0.000 A 
ATOM     16  C   UNL     1      -4.351   3.882  25.140  0.00  0.00    +0.005 A 
ENDBRANCH   8  10
ENDBRANCH   6   7
ENDBRANCH   5   6
TORSDOF 6
ENDMDL
MODEL 5
REMARK VINA RESULT:     -10.2      2.844      6.250
REMARK  Name = 
REMARK  6 active torsions:
REMARK  status: ('A' for Active; 'I' for Inactive)
REMARK    1  A    between atoms: C_2  and  C_3
REMARK    2  A    between atoms: C_5  and  C_6
REMARK    3  A    between atoms: C_6  and  N_7
REMARK    4  A    between atoms: C_8  and  C_10
REMARK    5  A    between atoms: C_17  and  N_20
REMARK    6  A    between atoms: N_23  and  C_26
REMARK                            x       y       z     vdW  Elec       q    Type
REMARK                         _______ _______ _______ _____ _____    ______ ____
ROOT
ATOM      3  C   UNL     1       1.133   1.023  23.550  0.00  0.00    +0.180 C 
ATOM      4  O   UNL     1       0.832   1.596  24.061  0.00  0.00    -0.350 OA
ATOM      5  C   UNL     1       0.142   1.296  24.402  0.00  0.00    +0.154 C 
ATOM     17  C   UNL     1       0.017   0.538  24.100  0.00  0.00    +0.120 C 
ATOM     18  C   UNL     1       0.630   0.369  23.574  0.00  0.00    +0.198 C 
ATOM     19  O   UNL     1       0.723  -0.331  23.146  0.00  0.00    -0.219 OA
ENDROOT
BRANCH  17  20
ATOM     20  N   UNL     1      -0.609   0.037  24.292  0.00  0.00    -0.267 NA
ATOM     21  C   UNL     1      -0.513  -0.539  24.875  0.00  0.00    +0.094 C 
ATOM     22  C   UNL     1      -1.139  -1.041  25.067  0.00  0.00    +0.108 C 
ATOM     23  N   UNL     1      -1.862  -0.965  24.675  0.00  0.00    -0.305 N 
ATOM     24  C   UNL     1      -1.958  -0.390  24.094  0.00  0.00    +0.108 C 
ATOM     25  C   UNL     1      -1.332   0.112  23.902  0.00  0.00    +0.094 C 
BRANCH  23  26
ATOM     26  C   UNL     1      -2.489  -1.467  24.867  0.00  0.00    +0.048 A 
ATOM     27  C   UNL     1      -2.567  -2.194  24.485  0.00  0.00    +0.015 A 
ATOM     28  C   UNL     1      -3.194  -2.696  24.677  0.00  0.00    +0.001 A 
ATOM     29  C   UNL     1      -3.742  -2.470  25.252  0.00  0.00    +0.000 A 
ATOM     30  C   UNL     1      -3.663  -1.743  25.633  0.00  0.00    +0.001 A 
ATOM     31  C   UNL     1      -3.037  -1.242  25.441  0.00  0.00    +0.015 A 
ENDBRANCH  23  26
ENDBRANCH  17  20
BRANCH   3   2
ATOM      1  O   UNL     1       2.482   1.471  23.403  0.00  0.00    -0.218 OA
ATOM      2  C   UNL     1       1.816   1.092  23.094  0.00  0.00    +0.214 C 
ENDBRANCH   3   2
BRANCH   5   6
ATOM      6  C   UNL     1      -0.338   1.686  24.947  0.00  0.00    +0.146 C 
BRANCH   6   7
ATOM      7  N   UNL     1      -0.553   2.472  24.820  0.00  0.00    -0.199 NA
ATOM      8  C   UNL     1      -0.854   2.924  25.442  0.00  0.00    +0.266 C 
ATOM      9  O   UNL     1      -0.939   2.589  26.191  0.00  0.00    -0.268 OA
BRANCH   8  10
ATOM     10  C   UNL     1      -1.069   3.710  25.314  0.00  0.00    +0.066 A 
ATOM     11  C   UNL     1      -1.841   3.956  25.463  0.00  0.00    +0.062 A 
ATOM     12 CL   UNL     1      -2.400   3.416  25.741  0.00  0.00    -0.082 Cl
ATOM     13  C   UNL     1      -2.056   4.743  25.335  0.00  0.00    +0.012 A 
ATOM     14  C   UNL     1      -1.497   5.283  25.057  0.00  0.00    +0.001 A 
ATOM     15  C   UNL     1      -0.724   5.036  24.907  0.00  0.00    +0.000 A 
ATOM     16  C   UNL     1      -0.510   4.250  25.036  0.00  0.00    +0.005 A 
ENDBRANCH   8  10
ENDBRANCH   6   7
ENDBRANCH   5   6
TORSDOF 6
ENDMDL
