MODEL 1
REMARK VINA RESULT:     -13.0      0.000      0.000
REMARK  Name = 
REMARK  8 active torsions:
REMARK  status: ('A' for Active; 'I' for Inactive)
REMARK    1  A    between atoms: C_2  and  N_4
REMARK    2  A    between atoms: C_5  and  O_7
REMARK    3  A    between atoms: O_7  and  C_8
REMARK    4  A    between atoms: C_13  and  C_14
REMARK    5  A    between atoms: C_14  and  C_15
REMARK    6  A    between atoms: N_17  and  C_18
REMARK    7  A    between atoms: C_18  and  C_19
REMARK    8  A    between atoms: C_30  and  C_32
REMARK                            x       y       z     vdW  Elec       q    Type
REMARK                         _______ _______ _______ _____ _____    ______ ____
ROOT
ATOM      8  C   UNL     1      -2.630   3.364  24.924  0.00  0.00    +0.173 C 
ATOM      9  C   UNL     1      -2.857   2.641  24.596  0.00  0.00    +0.044 C 
ATOM     10  C   UNL     1      -2.287   2.072  24.418  0.00  0.00    +0.004 C 
ATOM     11  C   UNL     1      -1.491   2.224  24.569  0.00  0.00    +0.003 C 
ATOM     12  C   UNL     1      -1.717   1.502  24.241  0.00  0.00    +0.000 C 
ATOM     13  C   UNL     1      -0.920   1.654  24.392  0.00  0.00    +0.040 C 
ATOM     25  C   UNL     1      -0.124   1.807  24.543  0.00  0.00    +0.152 C 
ATOM     26  O   UNL     1       0.446   1.238  24.365  0.00  0.00    -0.223 OA
ATOM     27  C   UNL     1       0.103   2.529  24.870  0.00  0.00    +0.033 C 
ATOM     28  C   UNL     1      -0.467   3.099  25.048  0.00  0.00    +0.003 C 
ATOM     29  C   UNL     1      -1.263   2.946  24.897  0.00  0.00    +0.006 C 
ATOM     30  C   UNL     1      -1.833   3.516  25.075  0.00  0.00    +0.068 C 
ATOM     31  C   UNL     1      -1.263   4.041  25.357  0.00  0.00    +0.006 C 
ENDROOT
BRANCH  30  32
ATOM     32  C   UNL     1      -2.004   4.267  25.371  0.00  0.00    +0.185 C 
ATOM     33  O   UNL     1      -1.423   4.852  25.371  0.00  0.00    -0.220 OA
ENDBRANCH  30  32
BRANCH   8   7
ATOM      7  O   UNL     1      -3.200   3.932  25.101  0.00  0.00    -0.437 OA
BRANCH   7   5
ATOM      4  N   UNL     1      -4.459   3.685  25.727  0.00  0.00    -0.170 NA
ATOM      5  C   UNL     1      -4.001   3.747  25.043  0.00  0.00    +0.421 C 
ATOM      6  O   UNL     1      -4.345   3.622  24.304  0.00  0.00    -0.225 OA
BRANCH   4   2
ATOM      1  C   UNL     1      -5.517   2.728  25.816  0.00  0.00    +0.024 C 
ATOM      2  C   UNL     1      -5.261   3.499  25.670  0.00  0.00    +0.099 C 
ATOM      3  C   UNL     1      -5.807   4.084  25.467  0.00  0.00    +0.024 C 
ENDBRANCH   4   2
ENDBRANCH   7   5
ENDBRANCH   8   7
BRANCH  13  14
ATOM     14  C   UNL     1      -1.147   0.932  24.064  0.00  0.00    +0.089 C 
BRANCH  14  15
ATOM     15  C   UNL     1      -1.083   0.240  24.507  0.00  0.00    +0.242 C 
ATOM     16  O   UNL     1      -0.438   0.130  25.011  0.00  0.00    -0.273 OA
ATOM     17  N   UNL     1      -1.663  -0.344  24.447  0.00  0.00    -0.201 NA
BRANCH  17  18
ATOM     18  C   UNL     1      -1.600  -1.037  24.890  0.00  0.00    +0.141 C 
BRANCH  18  19
ATOM     19  C   UNL     1      -2.217  -1.584  24.892  0.00  0.00    -0.001 A 
ATOM     20  C   UNL     1      -2.189  -2.238  24.391  0.00  0.00    -0.003 A 
ATOM     21  C   UNL     1      -2.807  -2.786  24.392  0.00  0.00    -0.000 A 
ATOM     22  C   UNL     1      -3.451  -2.678  24.895  0.00  0.00    -0.000 A 
ATOM     23  C   UNL     1      -3.479  -2.023  25.397  0.00  0.00    -0.000 A 
ATOM     24  C   UNL     1      -2.861  -1.477  25.395  0.00  0.00    -0.003 A 
ENDBRANCH  18  19
ENDBRANCH  17  18
ENDBRANCH  14  15
ENDBRANCH  13  14
TORSDOF 8
ENDMDL
MODEL 2
REMARK VINA RESULT:     -12.9      1.754      3.363
REMARK  Name = 
REMARK  8 active torsions:
REMARK  status: ('A' for Active; 'I' for Inactive)
REMARK    1  A    between atoms: C_2  and  N_4
REMARK    2  A    between atoms: C_5  and  O_7
REMARK    3  A    between atoms: O_7  and  C_8
REMARK    4  A    between atoms: C_13  and  C_14
REMARK    5  A    between atoms: C_14  and  C_15
REMARK    6  A    between atoms: N_17  and  C_18
REMARK    7  A    between atoms: C_18  and  C_19
REMARK    8  A    between atoms: C_30  and  C_32
REMARK                            x       y       z     vdW  Elec       q    Type
REMARK                         _______ _______ _______ _____ _____    ______ ____
ROOT
ATOM      8  C   UNL     1      -3.754   3.473  25.100  0.00  0.00    +0.173 C 
ATOM      9  C   UNL     1      -3.324   2.839  24.796  0.00  0.00    +0.044 C 
ATOM     10  C   UNL     1      -3.691   2.108  24.682  0.00  0.00    +0.004 C 
ATOM     11  C   UNL     1      -4.487   2.013  24.872  0.00  0.00    +0.003 C 
ATOM     12  C   UNL     1      -4.057   1.378  24.568  0.00  0.00    +0.000 C 
ATOM     13  C   UNL     1      -4.854   1.281  24.757  0.00  0.00    +0.040 C 
ATOM     25  C   UNL     1      -5.651   1.186  24.947  0.00  0.00    +0.152 C 
ATOM     26  O   UNL     1      -6.018   0.456  24.833  0.00  0.00    -0.223 OA
ATOM     27  C   UNL     1      -6.082   1.820  25.251  0.00  0.00    +0.033 C 
ATOM     28  C   UNL     1      -5.715   2.551  25.366  0.00  0.00    +0.003 C 
ATOM     29  C   UNL     1      -4.918   2.647  25.176  0.00  0.00    +0.006 C 
ATOM     30  C   UNL     1      -4.552   3.377  25.290  0.00  0.00    +0.068 C 
ATOM     31  C   UNL     1      -5.247   3.713  25.579  0.00  0.00    +0.006 C 
ENDROOT
BRANCH  30  32
ATOM     32  C   UNL     1      -4.617   4.162  25.538  0.00  0.00    +0.185 C 
ATOM     33  O   UNL     1      -5.351   4.466  25.756  0.00  0.00    -0.220 OA
ENDBRANCH  30  32
BRANCH   8   7
ATOM      7  O   UNL     1      -3.388   4.203  25.214  0.00  0.00    -0.437 OA
BRANCH   7   5
ATOM      4  N   UNL     1      -2.024   4.522  25.487  0.00  0.00    -0.170 NA
ATOM      5  C   UNL     1      -2.617   4.324  24.950  0.00  0.00    +0.421 C 
ATOM      6  O   UNL     1      -2.438   4.246  24.148  0.00  0.00    -0.225 OA
BRANCH   4   2
ATOM      1  C   UNL     1      -0.694   4.036  25.283  0.00  0.00    +0.024 C 
ATOM      2  C   UNL     1      -1.251   4.643  25.223  0.00  0.00    +0.099 C 
ATOM      3  C   UNL     1      -1.035   5.370  24.899  0.00  0.00    +0.024 C 
ENDBRANCH   4   2
ENDBRANCH   7   5
ENDBRANCH   8   7
BRANCH  13  14
ATOM     14  C   UNL     1      -4.423   0.648  24.453  0.00  0.00    +0.089 C 
BRANCH  14  15
ATOM     15  C   UNL     1      -4.274  -0.013  24.923  0.00  0.00    +0.242 C 
ATOM     16  O   UNL     1      -4.544  -0.034  25.704  0.00  0.00    -0.273 OA
ATOM     17  N   UNL     1      -3.854  -0.653  24.616  0.00  0.00    -0.201 NA
BRANCH  17  18
ATOM     18  C   UNL     1      -3.704  -1.314  25.086  0.00  0.00    +0.141 C 
BRANCH  18  19
ATOM     19  C   UNL     1      -3.228  -1.924  24.801  0.00  0.00    -0.001 A 
ATOM     20  C   UNL     1      -2.407  -1.862  24.845  0.00  0.00    -0.003 A 
ATOM     21  C   UNL     1      -1.931  -2.473  24.560  0.00  0.00    -0.000 A 
ATOM     22  C   UNL     1      -2.276  -3.146  24.231  0.00  0.00    -0.000 A 
ATOM     23  C   UNL     1      -3.099  -3.208  24.186  0.00  0.00    -0.000 A 
ATOM     24  C   UNL     1      -3.574  -2.597  24.471  0.00  0.00    -0.003 A 
ENDBRANCH  18  19
ENDBRANCH  17  18
ENDBRANCH  14  15
ENDBRANCH  13  14
TORSDOF 8
ENDMDL
MODEL 3
REMARK VINA RESULT:     -12.7      1.563      3.425
REMARK  Name = 
REMARK  8 active torsions:
REMARK  status: ('A' for Active; 'I' for Inactive)
REMARK    1  A    between atoms: C_2  and  N_4
REMARK    2  A    between atoms: C_5  and  O_7
REMARK    3  A    between atoms: O_7  and  C_8
REMARK    4  A    between atoms: C_13  and  C_14
REMARK    5  A    between atoms: C_14  and  C_15
REMARK    6  A    between atoms: N_17  and  C_18
REMARK    7  A    between atoms: C_18  and  C_19
REMARK    8  A    between atoms: C_30  and  C_32
REMARK                            x       y       z     vdW  Elec       q    Type
REMARK                         _______ _______ _______ _____ _____    ______ ____
ROOT
ATOM      8  C   UNL     1      -2.409   3.276  25.375  0.00  0.00    +0.173 C 
ATOM      9  C   UNL     1      -2.366   2.572  24.947  0.00  0.00    +0.044 C 
ATOM     10  C   UNL     1      -3.058   2.178  24.729  0.00  0.00    +0.004 C 
ATOM     11  C   UNL     1      -3.792   2.489  24.939  0.00  0.00    +0.003 C 
ATOM     12  C   UNL     1      -3.750   1.785  24.511  0.00  0.00    +0.000 C 
ATOM     13  C   UNL     1      -4.485   2.095  24.720  0.00  0.00    +0.040 C 
ATOM     25  C   UNL     1      -5.219   2.406  24.931  0.00  0.00    +0.152 C 
ATOM     26  O   UNL     1      -5.911   2.013  24.713  0.00  0.00    -0.223 OA
ATOM     27  C   UNL     1      -5.263   3.109  25.359  0.00  0.00    +0.033 C 
ATOM     28  C   UNL     1      -4.570   3.503  25.577  0.00  0.00    +0.003 C 
ATOM     29  C   UNL     1      -3.836   3.193  25.367  0.00  0.00    +0.006 C 
ATOM     30  C   UNL     1      -3.145   3.586  25.585  0.00  0.00    +0.068 C 
ATOM     31  C   UNL     1      -3.569   4.185  25.961  0.00  0.00    +0.006 C 
ENDROOT
BRANCH  30  32
ATOM     32  C   UNL     1      -2.796   4.230  25.965  0.00  0.00    +0.185 C 
ATOM     33  O   UNL     1      -3.240   4.695  26.481  0.00  0.00    -0.220 OA
ENDBRANCH  30  32
BRANCH   8   7
ATOM      7  O   UNL     1      -1.718   3.668  25.593  0.00  0.00    -0.437 OA
BRANCH   7   5
ATOM      4  N   UNL     1      -0.672   2.873  26.152  0.00  0.00    -0.170 NA
ATOM      5  C   UNL     1      -0.988   3.293  25.516  0.00  0.00    +0.421 C 
ATOM      6  O   UNL     1      -0.573   3.337  24.804  0.00  0.00    -0.225 OA
BRANCH   4   2
ATOM      1  C   UNL     1       0.665   2.660  26.613  0.00  0.00    +0.024 C 
ATOM      2  C   UNL     1       0.059   2.497  26.076  0.00  0.00    +0.099 C 
ATOM      3  C   UNL     1       0.184   1.958  25.464  0.00  0.00    +0.024 C 
ENDBRANCH   4   2
ENDBRANCH   7   5
ENDBRANCH   8   7
BRANCH  13  14
ATOM     14  C   UNL     1      -4.441   1.392  24.293  0.00  0.00    +0.089 C 
BRANCH  14  15
ATOM     15  C   UNL     1      -4.668   0.681  24.643  0.00  0.00    +0.242 C 
ATOM     16  O   UNL     1      -5.269   0.673  25.210  0.00  0.00    -0.273 OA
ATOM     17  N   UNL     1      -4.295  -0.023  24.429  0.00  0.00    -0.201 NA
BRANCH  17  18
ATOM     18  C   UNL     1      -4.521  -0.735  24.779  0.00  0.00    +0.141 C 
BRANCH  18  19
ATOM     19  C   UNL     1      -4.099  -1.425  24.623  0.00  0.00    -0.001 A 
ATOM     20  C   UNL     1      -3.507  -1.673  25.140  0.00  0.00    -0.003 A 
ATOM     21  C   UNL     1      -3.083  -2.364  24.984  0.00  0.00    -0.000 A 
ATOM     22  C   UNL     1      -3.253  -2.807  24.309  0.00  0.00    -0.000 A 
ATOM     23  C   UNL     1      -3.846  -2.560  23.791  0.00  0.00    -0.000 A 
ATOM     24  C   UNL     1      -4.269  -1.869  23.948  0.00  0.00    -0.003 A 
ENDBRANCH  18  19
ENDBRANCH  17  18
ENDBRANCH  14  15
ENDBRANCH  13  14
TORSDOF 8
ENDMDL
MODEL 4
REMARK VINA RESULT:     -12.1      0.996      4.321
REMARK  Name = 
REMARK  8 active torsions:
REMARK  status: ('A' for Active; 'I' for Inactive)
REMARK    1  A    between atoms: C_2  and  N_4
REMARK    2  A    between atoms: C_5  and  O_7
REMARK    3  A    between atoms: O_7  and  C_8
REMARK    4  A    between atoms: C_13  and  C_14
REMARK    5  A    between atoms: C_14  and  C_15
REMARK    6  A    between atoms: N_17  and  C_18
REMARK    7  A    between atoms: C_18  and  C_19
REMARK    8  A    between atoms: C_30  and  C_32
REMARK                            x       y       z     vdW  Elec       q    Type
REMARK                         _______ _______ _______ _____ _____    ______ ____
ROOT
ATOM      8  C   UNL     1      -0.562   1.361  25.010  0.00  0.00    +0.173 C 
ATOM      9  C   UNL     1      -1.247   1.429  25.465  0.00  0.00    +0.044 C 
ATOM     10  C   UNL     1      -1.582   2.171  25.598  0.00  0.00    +0.004 C 
ATOM     11  C   UNL     1      -1.232   2.845  25.276  0.00  0.00    +0.003 C 
ATOM     12  C   UNL     1      -1.917   2.913  25.731  0.00  0.00    +0.000 C 
ATOM     13  C   UNL     1      -1.568   3.588  25.410  0.00  0.00    +0.040 C 
ATOM     25  C   UNL     1      -1.217   4.262  25.088  0.00  0.00    +0.152 C 
ATOM     26  O   UNL     1      -1.553   5.004  25.221  0.00  0.00    -0.223 OA
ATOM     27  C   UNL     1      -0.533   4.194  24.633  0.00  0.00    +0.033 C 
ATOM     28  C   UNL     1      -0.197   3.451  24.500  0.00  0.00    +0.003 C 
ATOM     29  C   UNL     1      -0.547   2.778  24.822  0.00  0.00    +0.006 C 
ATOM     30  C   UNL     1      -0.212   2.036  24.689  0.00  0.00    +0.068 C 
ATOM     31  C   UNL     1       0.397   2.360  24.236  0.00  0.00    +0.006 C 
ENDROOT
BRANCH  30  32
ATOM     32  C   UNL     1       0.389   1.592  24.338  0.00  0.00    +0.185 C 
ATOM     33  O   UNL     1       1.077   1.963  24.077  0.00  0.00    -0.220 OA
ENDBRANCH  30  32
BRANCH   8   7
ATOM      7  O   UNL     1      -0.227   0.620  24.877  0.00  0.00    -0.437 OA
BRANCH   7   5
ATOM      4  N   UNL     1      -0.792  -0.645  24.531  0.00  0.00    -0.170 NA
ATOM      5  C   UNL     1      -0.636  -0.063  25.094  0.00  0.00    +0.421 C 
ATOM      6  O   UNL     1      -0.889  -0.164  25.873  0.00  0.00    -0.225 OA
BRANCH   4   2
ATOM      1  C   UNL     1      -2.007  -1.398  24.580  0.00  0.00    +0.024 C 
ATOM      2  C   UNL     1      -1.201  -1.329  24.747  0.00  0.00    +0.099 C 
ATOM      3  C   UNL     1      -0.805  -1.943  25.130  0.00  0.00    +0.024 C 
ENDBRANCH   4   2
ENDBRANCH   7   5
ENDBRANCH   8   7
BRANCH  13  14
ATOM     14  C   UNL     1      -2.253   3.655  25.864  0.00  0.00    +0.089 C 
BRANCH  14  15
ATOM     15  C   UNL     1      -2.971   3.836  25.503  0.00  0.00    +0.242 C 
ATOM     16  O   UNL     1      -3.023   4.479  24.987  0.00  0.00    -0.273 OA
ATOM     17  N   UNL     1      -3.639   3.376  25.656  0.00  0.00    -0.201 NA
BRANCH  17  18
ATOM     18  C   UNL     1      -4.358   3.557  25.294  0.00  0.00    +0.141 C 
BRANCH  18  19
ATOM     19  C   UNL     1      -4.976   3.011  25.308  0.00  0.00    -0.001 A 
ATOM     20  C   UNL     1      -5.086   2.497  24.673  0.00  0.00    -0.003 A 
ATOM     21  C   UNL     1      -5.705   1.951  24.686  0.00  0.00    -0.000 A 
ATOM     22  C   UNL     1      -6.213   1.920  25.336  0.00  0.00    -0.000 A 
ATOM     23  C   UNL     1      -6.102   2.434  25.972  0.00  0.00    -0.000 A 
ATOM     24  C   UNL     1      -5.484   2.980  25.957  0.00  0.00    -0.003 A 
ENDBRANCH  18  19
ENDBRANCH  17  18
ENDBRANCH  14  15
ENDBRANCH  13  14
TORSDOF 8
ENDMDL
MODEL 5
REMARK VINA RESULT:     -11.9      1.351      4.581
REMARK  Name = 
REMARK  8 active torsions:
REMARK  status: ('A' for Active; 'I' for Inactive)
REMARK    1  A    between atoms: C_2  and  N_4
REMARK    2  A    between atoms: C_5  and  O_7
REMARK    3  A    between atoms: O_7  and  C_8
REMARK    4  A    between atoms: C_13  and  C_14
REMARK    5  A    between atoms: C_14  and  C_15
REMARK    6  A    between atoms: N_17  and  C_18
REMARK    7  A    between atoms: C_18  and  C_19
REMARK    8  A    between atoms: C_30  and  C_32
REMARK                            x       y       z     vdW  Elec       q    Type
REMARK                         _______ _______ _______ _____ _____    ______ ____
ROOT
ATOM      8  C   UNL     1      -1.051  -0.475  24.778  0.00  0.00    +0.173 C 
ATOM      9  C   UNL     1      -1.452  -0.073  25.376  0.00  0.00    +0.044 C 
ATOM     10  C   UNL     1      -1.269   0.715  25.540  0.00  0.00    +0.004 C 
ATOM     11  C   UNL     1      -0.684   1.101  25.105  0.00  0.00    +0.003 C 
ATOM     12  C   UNL     1      -1.086   1.503  25.703  0.00  0.00    +0.000 C 
ATOM     13  C   UNL     1      -0.501   1.889  25.268  0.00  0.00    +0.040 C 
ATOM     25  C   UNL     1       0.084   2.275  24.833  0.00  0.00    +0.152 C 
ATOM     26  O   UNL     1       0.268   3.063  24.996  0.00  0.00    -0.223 OA
ATOM     27  C   UNL     1       0.486   1.874  24.235  0.00  0.00    +0.033 C 
ATOM     28  C   UNL     1       0.303   1.085  24.071  0.00  0.00    +0.003 C 
ATOM     29  C   UNL     1      -0.282   0.700  24.506  0.00  0.00    +0.006 C 
ATOM     30  C   UNL     1      -0.465  -0.088  24.343  0.00  0.00    +0.068 C 
ATOM     31  C   UNL     1       0.098  -0.125  23.741  0.00  0.00    +0.006 C 
ENDROOT
BRANCH  30  32
ATOM     32  C   UNL     1      -0.319  -0.761  23.888  0.00  0.00    +0.185 C 
ATOM     33  O   UNL     1       0.351  -0.797  23.408  0.00  0.00    -0.220 OA
ENDBRANCH  30  32
BRANCH   8   7
ATOM      7  O   UNL     1      -1.234  -1.261  24.615  0.00  0.00    -0.437 OA
BRANCH   7   5
ATOM      4  N   UNL     1      -2.490  -1.848  24.275  0.00  0.00    -0.170 NA
ATOM      5  C   UNL     1      -1.962  -1.572  24.845  0.00  0.00    +0.421 C 
ATOM      6  O   UNL     1      -2.162  -1.607  25.645  0.00  0.00    -0.225 OA
BRANCH   4   2
ATOM      1  C   UNL     1      -3.909  -1.715  24.401  0.00  0.00    +0.024 C 
ATOM      2  C   UNL     1      -3.220  -2.159  24.504  0.00  0.00    +0.099 C 
ATOM      3  C   UNL     1      -3.261  -2.913  24.837  0.00  0.00    +0.024 C 
ENDBRANCH   4   2
ENDBRANCH   7   5
ENDBRANCH   8   7
BRANCH  13  14
ATOM     14  C   UNL     1      -0.902   2.290  25.866  0.00  0.00    +0.089 C 
BRANCH  14  15
ATOM     15  C   UNL     1      -1.293   2.997  25.699  0.00  0.00    +0.242 C 
ATOM     16  O   UNL     1      -0.864   3.699  25.631  0.00  0.00    -0.273 OA
ATOM     17  N   UNL     1      -2.112   3.003  25.599  0.00  0.00    -0.201 NA
BRANCH  17  18
ATOM     18  C   UNL     1      -2.503   3.710  25.431  0.00  0.00    +0.141 C 
BRANCH  18  19
ATOM     19  C   UNL     1      -3.311   3.707  25.271  0.00  0.00    -0.001 A 
ATOM     20  C   UNL     1      -3.577   3.677  24.491  0.00  0.00    -0.003 A 
ATOM     21  C   UNL     1      -4.386   3.674  24.329  0.00  0.00    -0.000 A 
ATOM     22  C   UNL     1      -4.930   3.700  24.949  0.00  0.00    -0.000 A 
ATOM     23  C   UNL     1      -4.664   3.730  25.730  0.00  0.00    -0.000 A 
ATOM     24  C   UNL     1      -3.855   3.734  25.890  0.00  0.00    -0.003 A 
ENDBRANCH  18  19
ENDBRANCH  17  18
ENDBRANCH  14  15
ENDBRANCH  13  14
TORSDOF 8
ENDMDL
MODEL 6
REMARK VINA RESULT:     -11.8      1.696      4.726
REMARK  Name = 
REMARK  8 active torsions:
REMARK  status: ('A' for Active; 'I' for Inactive)
REMARK    1  A    between atoms: C_2  and  N_4
REMARK    2  A    between atoms: C_5  and  O_7
REMARK    3  A    between atoms: O_7  and  C_8
REMARK    4  A    between atoms: C_13  and  C_14
REMARK    5  A    between atoms: C_14  and  C_15
REMARK    6  A    between atoms: N_17  and  C_18
REMARK    7  A    between atoms: C_18  and  C_19
REMARK    8  A    between atoms: C_30  and  C_32
REMARK                            x       y       z     vdW  Elec       q    Type
REMARK                         _______ _______ _______ _____ _____    ______ ____
ROOT
ATOM      8  C   UNL     1      -4.647   0.796  24.699  0.00  0.00    +0.173 C 
ATOM      9  C   UNL     1      -3.996   1.017  24.244  0.00  0.00    +0.044 C 
ATOM     10  C   UNL     1      -3.779   1.811  24.191  0.00  0.00    +0.004 C 
ATOM     11  C   UNL     1      -4.213   2.384  24.594  0.00  0.00    +0.003 C 
ATOM     12  C   UNL     1      -3.562   2.605  24.139  0.00  0.00    +0.000 C 
ATOM     13  C   UNL     1      -3.996   3.179  24.542  0.00  0.00    +0.040 C 
ATOM     25  C   UNL     1      -4.431   3.753  24.945  0.00  0.00    +0.152 C 
ATOM     26  O   UNL     1      -4.215   4.547  24.892  0.00  0.00    -0.223 OA
ATOM     27  C   UNL     1      -5.082   3.533  25.400  0.00  0.00    +0.033 C 
ATOM     28  C   UNL     1      -5.300   2.737  25.453  0.00  0.00    +0.003 C 
ATOM     29  C   UNL     1      -4.865   2.164  25.050  0.00  0.00    +0.006 C 
ATOM     30  C   UNL     1      -5.082   1.370  25.103  0.00  0.00    +0.068 C 
ATOM     31  C   UNL     1      -5.716   1.546  25.600  0.00  0.00    +0.006 C 
ENDROOT
BRANCH  30  32
ATOM     32  C   UNL     1      -5.598   0.804  25.410  0.00  0.00    +0.185 C 
ATOM     33  O   UNL     1      -6.218   1.035  25.903  0.00  0.00    -0.220 OA
ENDBRANCH  30  32
BRANCH   8   7
ATOM      7  O   UNL     1      -4.864   0.002  24.752  0.00  0.00    -0.437 OA
BRANCH   7   5
ATOM      4  N   UNL     1      -4.085  -1.172  24.983  0.00  0.00    -0.170 NA
ATOM      5  C   UNL     1      -4.355  -0.584  24.472  0.00  0.00    +0.421 C 
ATOM      6  O   UNL     1      -4.118  -0.582  23.682  0.00  0.00    -0.225 OA
BRANCH   4   2
ATOM      1  C   UNL     1      -3.871  -2.372  24.235  0.00  0.00    +0.024 C 
ATOM      2  C   UNL     1      -3.576  -1.759  24.703  0.00  0.00    +0.099 C 
ATOM      3  C   UNL     1      -2.773  -1.734  24.892  0.00  0.00    +0.024 C 
ENDBRANCH   4   2
ENDBRANCH   7   5
ENDBRANCH   8   7
BRANCH  13  14
ATOM     14  C   UNL     1      -3.345   3.399  24.086  0.00  0.00    +0.089 C 
BRANCH  14  15
ATOM     15  C   UNL     1      -2.691   3.751  24.444  0.00  0.00    +0.242 C 
ATOM     16  O   UNL     1      -2.710   4.552  24.643  0.00  0.00    -0.273 OA
ATOM     17  N   UNL     1      -2.017   3.302  24.605  0.00  0.00    -0.201 NA
BRANCH  17  18
ATOM     18  C   UNL     1      -1.362   3.653  24.963  0.00  0.00    +0.141 C 
BRANCH  18  19
ATOM     19  C   UNL     1      -0.762   3.183  25.278  0.00  0.00    -0.001 A 
ATOM     20  C   UNL     1      -0.701   3.084  26.094  0.00  0.00    -0.003 A 
ATOM     21  C   UNL     1      -0.100   2.614  26.409  0.00  0.00    -0.000 A 
ATOM     22  C   UNL     1       0.439   2.243  25.907  0.00  0.00    -0.000 A 
ATOM     23  C   UNL     1       0.378   2.342  25.089  0.00  0.00    -0.000 A 
ATOM     24  C   UNL     1      -0.223   2.812  24.775  0.00  0.00    -0.003 A 
ENDBRANCH  18  19
ENDBRANCH  17  18
ENDBRANCH  14  15
ENDBRANCH  13  14
TORSDOF 8
ENDMDL
MODEL 7
REMARK VINA RESULT:     -11.7      1.608      5.488
REMARK  Name = 
REMARK  8 active torsions:
REMARK  status: ('A' for Active; 'I' for Inactive)
REMARK    1  A    between atoms: C_2  and  N_4
REMARK    2  A    between atoms: C_5  and  O_7
REMARK    3  A    between atoms: O_7  and  C_8
REMARK    4  A    between atoms: C_13  and  C_14
REMARK    5  A    between atoms: C_14  and  C_15
REMARK    6  A    between atoms: N_17  and  C_18
REMARK    7  A    between atoms: C_18  and  C_19
REMARK    8  A    between atoms: C_30  and  C_32
REMARK                            x       y       z     vdW  Elec       q    Type
REMARK                         _______ _______ _______ _____ _____    ______ ____
ROOT
ATOM      8  C   UNL     1      -2.897  -0.268  24.594  0.00  0.00    +0.173 C 
ATOM      9  C   UNL     1      -2.574   0.430  24.294  0.00  0.00    +0.044 C 
ATOM     10  C   UNL     1      -3.030   1.117  24.267  0.00  0.00    +0.004 C 
ATOM     11  C   UNL     1      -3.807   1.107  24.540  0.00  0.00    +0.003 C 
ATOM     12  C   UNL     1      -3.485   1.805  24.240  0.00  0.00    +0.000 C 
ATOM     13  C   UNL     1      -4.263   1.796  24.513  0.00  0.00    +0.040 C 
ATOM     25  C   UNL     1      -5.042   1.785  24.786  0.00  0.00    +0.152 C 
ATOM     26  O   UNL     1      -5.497   2.473  24.759  0.00  0.00    -0.223 OA
ATOM     27  C   UNL     1      -5.365   1.089  25.086  0.00  0.00    +0.033 C 
ATOM     28  C   UNL     1      -4.909   0.400  25.113  0.00  0.00    +0.003 C 
ATOM     29  C   UNL     1      -4.131   0.410  24.840  0.00  0.00    +0.006 C 
ATOM     30  C   UNL     1      -3.676  -0.277  24.867  0.00  0.00    +0.068 C 
ATOM     31  C   UNL     1      -4.295  -0.709  25.199  0.00  0.00    +0.006 C 
ENDROOT
BRANCH  30  32
ATOM     32  C   UNL     1      -3.627  -1.077  25.065  0.00  0.00    +0.185 C 
ATOM     33  O   UNL     1      -4.289  -1.562  24.992  0.00  0.00    -0.220 OA
ENDBRANCH  30  32
BRANCH   8   7
ATOM      7  O   UNL     1      -2.442  -0.954  24.621  0.00  0.00    -0.437 OA
BRANCH   7   5
ATOM      4  N   UNL     1      -1.112  -1.271  24.209  0.00  0.00    -0.170 NA
ATOM      5  C   UNL     1      -1.627  -0.905  24.739  0.00  0.00    +0.421 C 
ATOM      6  O   UNL     1      -1.328  -0.492  25.387  0.00  0.00    -0.225 OA
BRANCH   4   2
ATOM      1  C   UNL     1       0.068  -1.703  24.890  0.00  0.00    +0.024 C 
ATOM      2  C   UNL     1      -0.296  -1.222  24.327  0.00  0.00    +0.099 C 
ATOM      3  C   UNL     1       0.154  -0.693  23.882  0.00  0.00    +0.024 C 
ENDBRANCH   4   2
ENDBRANCH   7   5
ENDBRANCH   8   7
BRANCH  13  14
ATOM     14  C   UNL     1      -3.940   2.492  24.213  0.00  0.00    +0.089 C 
BRANCH  14  15
ATOM     15  C   UNL     1      -3.745   3.110  24.723  0.00  0.00    +0.242 C 
ATOM     16  O   UNL     1      -4.284   3.357  25.298  0.00  0.00    -0.273 OA
ATOM     17  N   UNL     1      -3.011   3.481  24.660  0.00  0.00    -0.201 NA
BRANCH  17  18
ATOM     18  C   UNL     1      -2.815   4.099  25.171  0.00  0.00    +0.141 C 
BRANCH  18  19
ATOM     19  C   UNL     1      -2.077   4.463  25.115  0.00  0.00    -0.001 A 
ATOM     20  C   UNL     1      -1.389   4.013  25.179  0.00  0.00    -0.003 A 
ATOM     21  C   UNL     1      -0.651   4.377  25.124  0.00  0.00    -0.000 A 
ATOM     22  C   UNL     1      -0.601   5.191  25.003  0.00  0.00    -0.000 A 
ATOM     23  C   UNL     1      -1.289   5.642  24.938  0.00  0.00    -0.000 A 
ATOM     24  C   UNL     1      -2.027   5.278  24.994  0.00  0.00    -0.003 A 
ENDBRANCH  18  19
ENDBRANCH  17  18
ENDBRANCH  14  15
ENDBRANCH  13  14
TORSDOF 8
ENDMDL
