MODEL 1
REMARK VINA RESULT:     -16.2      0.000      0.000
REMARK  Name = 
REMARK  5 active torsions:
REMARK  status: ('A' for Active; 'I' for Inactive)
REMARK    1  A    between atoms: C_2  and  C_4
REMARK    2  A    between atoms: C_4  and  S_5
REMARK    3  A    between atoms: S_5  and  C_6
REMARK    4  A    between atoms: C_6  and  C_7
REMARK    5  A    between atoms: C_18  and  C_23
REMARK                            x       y       z     vdW  Elec       q    Type
REMARK                         _______ _______ _______ _____ _____    ______ ____
ROOT
ATOM      7  C   UNL     1      -2.781   1.867  24.385  0.00  0.00    +0.237 C 
ATOM      8  O   UNL     1      -3.196   1.187  24.603  0.00  0.00    -0.274 OA
ATOM      9  N   UNL     1      -3.139   2.608  24.450  0.00  0.00    -0.278 N 
ATOM     10  C   UNL     1      -3.227   3.437  24.405  0.00  0.00    +0.095 C 
ATOM     11  C   UNL     1      -4.151   3.525  24.741  0.00  0.00    +0.043 C 
ATOM     12  C   UNL     1      -4.888   3.763  24.994  0.00  0.00    +0.011 C 
ATOM     13  C   UNL     1      -4.535   3.161  24.918  0.00  0.00    +0.058 C 
ATOM     14  C   UNL     1      -3.641   3.093  24.591  0.00  0.00    +0.099 C 
ATOM     15  C   UNL     1      -4.624   2.254  25.036  0.00  0.00    +0.041 A 
ATOM     16  C   UNL     1      -5.170   1.692  25.292  0.00  0.00    +0.013 A 
ATOM     17  C   UNL     1      -4.969   0.892  25.292  0.00  0.00    +0.006 A 
ATOM     18  C   UNL     1      -4.222   0.654  25.036  0.00  0.00    +0.056 A 
ATOM     19  C   UNL     1      -3.676   1.216  24.779  0.00  0.00    +0.261 A 
ATOM     20  O   UNL     1      -3.027   0.747  24.581  0.00  0.00    -0.267 OA
ATOM     21  N   UNL     1      -3.877   2.016  24.780  0.00  0.00    -0.299 N 
ATOM     22  C   UNL     1      -4.235   2.576  24.861  0.00  0.00    +0.110 C 
ENDROOT
BRANCH  18  23
ATOM     23  C   UNL     1      -4.022  -0.146  25.036  0.00  0.00    +0.005 A 
ATOM     24  C   UNL     1      -3.623  -0.471  25.681  0.00  0.00    +0.000 A 
ATOM     25  C   UNL     1      -3.422  -1.271  25.682  0.00  0.00    +0.000 A 
ATOM     26  C   UNL     1      -3.621  -1.746  25.038  0.00  0.00    +0.000 A 
ATOM     27  C   UNL     1      -3.420  -2.548  25.038  0.00  0.00    +0.000 A 
ATOM     28  C   UNL     1      -3.619  -3.023  24.393  0.00  0.00    +0.000 A 
ATOM     29  C   UNL     1      -4.018  -2.698  23.749  0.00  0.00    +0.000 A 
ATOM     30  C   UNL     1      -4.218  -1.898  23.748  0.00  0.00    +0.000 A 
ATOM     31  C   UNL     1      -4.020  -1.423  24.392  0.00  0.00    +0.000 A 
ATOM     32  C   UNL     1      -4.220  -0.622  24.392  0.00  0.00    +0.000 A 
ENDBRANCH  18  23
BRANCH   7   6
ATOM      6  C   UNL     1      -2.008   1.806  24.103  0.00  0.00    +0.143 C 
BRANCH   6   5
ATOM      5  S   UNL     1      -1.372   1.902  24.618  0.00  0.00    -0.119 S 
BRANCH   5   4
ATOM      4  C   UNL     1      -0.606   1.732  24.364  0.00  0.00    +0.172 C 
BRANCH   4   2
ATOM      1  O   UNL     1      -0.020   1.969  25.645  0.00  0.00    -0.245 OA
ATOM      2  C   UNL     1       0.041   1.956  24.823  0.00  0.00    +0.376 C 
ATOM      3  O   UNL     1       0.751   2.168  24.459  0.00  0.00    -0.245 OA
ENDBRANCH   4   2
ENDBRANCH   5   4
ENDBRANCH   6   5
ENDBRANCH   7   6
TORSDOF 5
ENDMDL
MODEL 2
REMARK VINA RESULT:     -14.8      1.485      4.020
REMARK  Name = 
REMARK  5 active torsions:
REMARK  status: ('A' for Active; 'I' for Inactive)
REMARK    1  A    between atoms: C_2  and  C_4
REMARK    2  A    between atoms: C_4  and  S_5
REMARK    3  A    between atoms: S_5  and  C_6
REMARK    4  A    between atoms: C_6  and  C_7
REMARK    5  A    between atoms: C_18  and  C_23
REMARK                            x       y       z     vdW  Elec       q    Type
REMARK                         _______ _______ _______ _____ _____    ______ ____
ROOT
ATOM      7  C   UNL     1      -1.974  -0.668  24.652  0.00  0.00    +0.237 C 
ATOM      8  O   UNL     1      -2.583  -0.130  24.509  0.00  0.00    -0.274 OA
ATOM      9  N   UNL     1      -2.131  -1.478  24.656  0.00  0.00    -0.278 N 
ATOM     10  C   UNL     1      -1.990  -2.299  24.719  0.00  0.00    +0.095 C 
ATOM     11  C   UNL     1      -2.904  -2.638  24.555  0.00  0.00    +0.043 C 
ATOM     12  C   UNL     1      -3.585  -3.070  24.440  0.00  0.00    +0.011 C 
ATOM     13  C   UNL     1      -3.394  -2.394  24.448  0.00  0.00    +0.058 C 
ATOM     14  C   UNL     1      -2.505  -2.083  24.609  0.00  0.00    +0.099 C 
ATOM     15  C   UNL     1      -3.735  -1.547  24.345  0.00  0.00    +0.041 A 
ATOM     16  C   UNL     1      -4.445  -1.158  24.189  0.00  0.00    +0.013 A 
ATOM     17  C   UNL     1      -4.463  -0.334  24.150  0.00  0.00    +0.006 A 
ATOM     18  C   UNL     1      -3.771   0.100  24.267  0.00  0.00    +0.056 A 
ATOM     19  C   UNL     1      -3.061  -0.289  24.422  0.00  0.00    +0.261 A 
ATOM     20  O   UNL     1      -2.533   0.339  24.499  0.00  0.00    -0.267 OA
ATOM     21  N   UNL     1      -3.043  -1.113  24.461  0.00  0.00    -0.299 N 
ATOM     22  C   UNL     1      -3.251  -1.749  24.448  0.00  0.00    +0.110 C 
ENDROOT
BRANCH  18  23
ATOM     23  C   UNL     1      -3.790   0.924  24.227  0.00  0.00    +0.005 A 
ATOM     24  C   UNL     1      -3.524   1.310  23.549  0.00  0.00    +0.000 A 
ATOM     25  C   UNL     1      -3.542   2.134  23.508  0.00  0.00    +0.000 A 
ATOM     26  C   UNL     1      -3.827   2.571  24.147  0.00  0.00    +0.000 A 
ATOM     27  C   UNL     1      -3.846   3.396  24.107  0.00  0.00    +0.000 A 
ATOM     28  C   UNL     1      -4.131   3.833  24.747  0.00  0.00    +0.000 A 
ATOM     29  C   UNL     1      -4.397   3.447  25.424  0.00  0.00    +0.000 A 
ATOM     30  C   UNL     1      -4.379   2.623  25.465  0.00  0.00    +0.000 A 
ATOM     31  C   UNL     1      -4.094   2.186  24.826  0.00  0.00    +0.000 A 
ATOM     32  C   UNL     1      -4.075   1.361  24.866  0.00  0.00    +0.000 A 
ENDBRANCH  18  23
BRANCH   7   6
ATOM      6  C   UNL     1      -1.207  -0.397  24.790  0.00  0.00    +0.143 C 
BRANCH   6   5
ATOM      5  S   UNL     1      -0.687  -0.291  24.159  0.00  0.00    -0.119 S 
BRANCH   5   4
ATOM      4  C   UNL     1       0.057   0.042  24.289  0.00  0.00    +0.172 C 
BRANCH   4   2
ATOM      1  O   UNL     1       0.773  -0.199  23.077  0.00  0.00    -0.245 OA
ATOM      2  C   UNL     1       0.500   0.323  23.654  0.00  0.00    +0.376 C 
ATOM      3  O   UNL     1       0.673   1.128  23.596  0.00  0.00    -0.245 OA
ENDBRANCH   4   2
ENDBRANCH   5   4
ENDBRANCH   6   5
ENDBRANCH   7   6
TORSDOF 5
ENDMDL
MODEL 3
REMARK VINA RESULT:     -14.0      1.714      4.623
REMARK  Name = 
REMARK  5 active torsions:
REMARK  status: ('A' for Active; 'I' for Inactive)
REMARK    1  A    between atoms: C_2  and  C_4
REMARK    2  A    between atoms: C_4  and  S_5
REMARK    3  A    between atoms: S_5  and  C_6
REMARK    4  A    between atoms: C_6  and  C_7
REMARK    5  A    between atoms: C_18  and  C_23
REMARK                            x       y       z     vdW  Elec       q    Type
REMARK                         _______ _______ _______ _____ _____    ______ ____
ROOT
ATOM      7  C   UNL     1      -3.556  -0.014  24.271  0.00  0.00    +0.237 C 
ATOM      8  O   UNL     1      -2.757   0.114  24.436  0.00  0.00    -0.274 OA
ATOM      9  N   UNL     1      -3.858  -0.781  24.268  0.00  0.00    -0.278 N 
ATOM     10  C   UNL     1      -4.417  -1.398  24.196  0.00  0.00    +0.095 C 
ATOM     11  C   UNL     1      -3.835  -2.173  24.389  0.00  0.00    +0.043 C 
ATOM     12  C   UNL     1      -3.497  -2.901  24.524  0.00  0.00    +0.011 C 
ATOM     13  C   UNL     1      -3.294  -2.230  24.513  0.00  0.00    +0.058 C 
ATOM     14  C   UNL     1      -3.870  -1.491  24.325  0.00  0.00    +0.099 C 
ATOM     15  C   UNL     1      -2.554  -1.698  24.632  0.00  0.00    +0.041 A 
ATOM     16  C   UNL     1      -1.751  -1.749  24.813  0.00  0.00    +0.013 A 
ATOM     17  C   UNL     1      -1.294  -1.064  24.857  0.00  0.00    +0.006 A 
ATOM     18  C   UNL     1      -1.640  -0.327  24.719  0.00  0.00    +0.056 A 
ATOM     19  C   UNL     1      -2.443  -0.276  24.538  0.00  0.00    +0.261 A 
ATOM     20  O   UNL     1      -2.547   0.537  24.448  0.00  0.00    -0.267 OA
ATOM     21  N   UNL     1      -2.900  -0.961  24.494  0.00  0.00    -0.299 N 
ATOM     22  C   UNL     1      -3.067  -1.609  24.511  0.00  0.00    +0.110 C 
ENDROOT
BRANCH  18  23
ATOM     23  C   UNL     1      -1.182   0.357  24.763  0.00  0.00    +0.005 A 
ATOM     24  C   UNL     1      -0.798   0.640  24.090  0.00  0.00    +0.000 A 
ATOM     25  C   UNL     1      -0.340   1.325  24.133  0.00  0.00    +0.000 A 
ATOM     26  C   UNL     1      -0.266   1.727  24.850  0.00  0.00    +0.000 A 
ATOM     27  C   UNL     1       0.193   2.412  24.893  0.00  0.00    +0.000 A 
ATOM     28  C   UNL     1       0.266   2.814  25.610  0.00  0.00    +0.000 A 
ATOM     29  C   UNL     1      -0.117   2.531  26.283  0.00  0.00    +0.000 A 
ATOM     30  C   UNL     1      -0.575   1.846  26.240  0.00  0.00    +0.000 A 
ATOM     31  C   UNL     1      -0.649   1.445  25.523  0.00  0.00    +0.000 A 
ATOM     32  C   UNL     1      -1.108   0.759  25.480  0.00  0.00    +0.000 A 
ENDBRANCH  18  23
BRANCH   7   6
ATOM      6  C   UNL     1      -4.051   0.625  24.109  0.00  0.00    +0.143 C 
BRANCH   6   5
ATOM      5  S   UNL     1      -4.486   0.975  24.716  0.00  0.00    -0.119 S 
BRANCH   5   4
ATOM      4  C   UNL     1      -4.902   1.674  24.576  0.00  0.00    +0.172 C 
BRANCH   4   2
ATOM      1  O   UNL     1      -5.208   2.341  25.801  0.00  0.00    -0.245 OA
ATOM      2  C   UNL     1      -5.456   1.941  25.124  0.00  0.00    +0.376 C 
ATOM      3  O   UNL     1      -6.261   1.809  24.995  0.00  0.00    -0.245 OA
ENDBRANCH   4   2
ENDBRANCH   5   4
ENDBRANCH   6   5
ENDBRANCH   7   6
TORSDOF 5
ENDMDL
MODEL 4
REMARK VINA RESULT:     -13.7      1.635      3.135
REMARK  Name = 
REMARK  5 active torsions:
REMARK  status: ('A' for Active; 'I' for Inactive)
REMARK    1  A    between atoms: C_2  and  C_4
REMARK    2  A    between atoms: C_4  and  S_5
REMARK    3  A    between atoms: S_5  and  C_6
REMARK    4  A    between atoms: C_6  and  C_7
REMARK    5  A    between atoms: C_18  and  C_23
REMARK                            x       y       z     vdW  Elec       q    Type
REMARK                         _______ _______ _______ _____ _____    ______ ____
ROOT
ATOM      7  C   UNL     1      -3.134   2.844  24.801  0.00  0.00    +0.237 C 
ATOM      8  O   UNL     1      -2.883   2.059  24.764  0.00  0.00    -0.274 OA
ATOM      9  N   UNL     1      -2.591   3.444  24.965  0.00  0.00    -0.278 N 
ATOM     10  C   UNL     1      -2.298   4.215  25.100  0.00  0.00    +0.095 C 
ATOM     11  C   UNL     1      -1.345   4.006  25.253  0.00  0.00    +0.043 C 
ATOM     12  C   UNL     1      -0.544   4.001  25.401  0.00  0.00    +0.011 C 
ATOM     13  C   UNL     1      -1.048   3.534  25.258  0.00  0.00    +0.058 C 
ATOM     14  C   UNL     1      -1.966   3.752  25.112  0.00  0.00    +0.099 C 
ATOM     15  C   UNL     1      -1.182   2.633  25.138  0.00  0.00    +0.041 A 
ATOM     16  C   UNL     1      -0.770   1.918  25.139  0.00  0.00    +0.013 A 
ATOM     17  C   UNL     1      -1.169   1.212  24.991  0.00  0.00    +0.006 A 
ATOM     18  C   UNL     1      -1.981   1.220  24.842  0.00  0.00    +0.056 A 
ATOM     19  C   UNL     1      -2.393   1.934  24.842  0.00  0.00    +0.261 A 
ATOM     20  O   UNL     1      -3.162   1.689  24.674  0.00  0.00    -0.267 OA
ATOM     21  N   UNL     1      -1.993   2.641  24.990  0.00  0.00    -0.299 N 
ATOM     22  C   UNL     1      -1.495   3.066  25.127  0.00  0.00    +0.110 C 
ENDROOT
BRANCH  18  23
ATOM     23  C   UNL     1      -2.379   0.513  24.694  0.00  0.00    +0.005 A 
ATOM     24  C   UNL     1      -2.598   0.317  23.923  0.00  0.00    +0.000 A 
ATOM     25  C   UNL     1      -2.997  -0.389  23.774  0.00  0.00    +0.000 A 
ATOM     26  C   UNL     1      -3.177  -0.900  24.396  0.00  0.00    +0.000 A 
ATOM     27  C   UNL     1      -3.576  -1.607  24.247  0.00  0.00    +0.000 A 
ATOM     28  C   UNL     1      -3.755  -2.118  24.870  0.00  0.00    +0.000 A 
ATOM     29  C   UNL     1      -3.537  -1.922  25.640  0.00  0.00    +0.000 A 
ATOM     30  C   UNL     1      -3.138  -1.216  25.789  0.00  0.00    +0.000 A 
ATOM     31  C   UNL     1      -2.958  -0.705  25.167  0.00  0.00    +0.000 A 
ATOM     32  C   UNL     1      -2.559   0.003  25.316  0.00  0.00    +0.000 A 
ENDBRANCH  18  23
BRANCH   7   6
ATOM      6  C   UNL     1      -3.927   3.030  24.675  0.00  0.00    +0.143 C 
BRANCH   6   5
ATOM      5  S   UNL     1      -4.443   3.095  25.314  0.00  0.00    -0.119 S 
BRANCH   5   4
ATOM      4  C   UNL     1      -5.257   3.141  25.185  0.00  0.00    +0.172 C 
BRANCH   4   2
ATOM      1  O   UNL     1      -5.916   2.821  26.412  0.00  0.00    -0.245 OA
ATOM      2  C   UNL     1      -5.761   3.354  25.802  0.00  0.00    +0.376 C 
ATOM      3  O   UNL     1      -6.112   4.101  25.808  0.00  0.00    -0.245 OA
ENDBRANCH   4   2
ENDBRANCH   5   4
ENDBRANCH   6   5
ENDBRANCH   7   6
TORSDOF 5
ENDMDL
