MODEL 1
REMARK VINA RESULT:      -9.0      0.000      0.000
REMARK  Name = 
REMARK  1 active torsions:
REMARK  status: ('A' for Active; 'I' for Inactive)
REMARK    1  A    between atoms: N_6  and  C_12
REMARK                            x       y       z     vdW  Elec       q    Type
REMARK                         _______ _______ _______ _____ _____    ______ ____
ROOT
ATOM      1  C   UNL     1      -5.345   3.054  25.310  0.00  0.00    +0.117 C 
ATOM      2  N   UNL     1      -4.964   2.365  25.065  0.00  0.00    -0.261 N 
ATOM      3  C   UNL     1      -5.142   1.597  25.312  0.00  0.00    +0.116 C 
ATOM      4  C   UNL     1      -4.626   1.081  24.930  0.00  0.00    +0.113 C 
ATOM      5  C   UNL     1      -4.544   0.260  24.959  0.00  0.00    +0.094 C 
ATOM      6  N   UNL     1      -3.965  -0.113  24.506  0.00  0.00    -0.271 NA
ATOM      7  C   UNL     1      -3.467   0.334  24.024  0.00  0.00    +0.094 C 
ATOM      8  C   UNL     1      -3.548   1.154  23.994  0.00  0.00    +0.112 C 
ATOM      9  N   UNL     1      -4.128   1.528  24.448  0.00  0.00    -0.261 N 
ATOM     10  C   UNL     1      -4.337   2.321  24.531  0.00  0.00    +0.307 C 
ATOM     11  O   UNL     1      -3.981   2.959  24.148  0.00  0.00    -0.252 OA
ENDROOT
BRANCH   6  12
ATOM     12  C   UNL     1      -3.883  -0.934  24.535  0.00  0.00    +0.063 C 
ATOM     13  C   UNL     1      -4.200  -1.401  23.934  0.00  0.00    +0.048 C 
ATOM     14  C   UNL     1      -4.118  -2.221  23.961  0.00  0.00    +0.144 C 
ATOM     15  O   UNL     1      -3.719  -2.575  24.592  0.00  0.00    -0.354 OA
ATOM     16  C   UNL     1      -3.402  -2.108  25.193  0.00  0.00    +0.144 C 
ATOM     17  C   UNL     1      -3.484  -1.287  25.165  0.00  0.00    +0.048 C 
ENDBRANCH   6  12
TORSDOF 1
ENDMDL
MODEL 2
REMARK VINA RESULT:      -8.2      3.015      4.454
REMARK  Name = 
REMARK  1 active torsions:
REMARK  status: ('A' for Active; 'I' for Inactive)
REMARK    1  A    between atoms: N_6  and  C_12
REMARK                            x       y       z     vdW  Elec       q    Type
REMARK                         _______ _______ _______ _____ _____    ______ ____
ROOT
ATOM      1  C   UNL     1      -5.842   1.911  24.840  0.00  0.00    +0.117 C 
ATOM      2  N   UNL     1      -5.189   2.368  25.052  0.00  0.00    -0.261 N 
ATOM      3  C   UNL     1      -4.458   2.376  24.669  0.00  0.00    +0.116 C 
ATOM      4  C   UNL     1      -3.970   2.910  25.065  0.00  0.00    +0.113 C 
ATOM      5  C   UNL     1      -3.190   3.145  24.935  0.00  0.00    +0.094 C 
ATOM      6  N   UNL     1      -2.838   3.701  25.433  0.00  0.00    -0.271 NA
ATOM      7  C   UNL     1      -3.266   4.021  26.061  0.00  0.00    +0.094 C 
ATOM      8  C   UNL     1      -4.046   3.786  26.191  0.00  0.00    +0.112 C 
ATOM      9  N   UNL     1      -4.398   3.230  25.693  0.00  0.00    -0.261 N 
ATOM     10  C   UNL     1      -5.151   2.895  25.685  0.00  0.00    +0.307 C 
ATOM     11  O   UNL     1      -5.761   3.059  26.217  0.00  0.00    -0.252 OA
ENDROOT
BRANCH   6  12
ATOM     12  C   UNL     1      -2.058   3.936  25.304  0.00  0.00    +0.063 C 
ATOM     13  C   UNL     1      -1.891   4.722  25.116  0.00  0.00    +0.048 C 
ATOM     14  C   UNL     1      -1.111   4.959  24.987  0.00  0.00    +0.144 C 
ATOM     15  O   UNL     1      -0.498   4.409  25.045  0.00  0.00    -0.354 OA
ATOM     16  C   UNL     1      -0.665   3.623  25.232  0.00  0.00    +0.144 C 
ATOM     17  C   UNL     1      -1.446   3.387  25.361  0.00  0.00    +0.048 C 
ENDBRANCH   6  12
TORSDOF 1
ENDMDL
MODEL 3
REMARK VINA RESULT:      -8.0      0.984      3.772
REMARK  Name = 
REMARK  1 active torsions:
REMARK  status: ('A' for Active; 'I' for Inactive)
REMARK    1  A    between atoms: N_6  and  C_12
REMARK                            x       y       z     vdW  Elec       q    Type
REMARK                         _______ _______ _______ _____ _____    ______ ____
ROOT
ATOM      1  C   UNL     1      -3.573  -2.910  24.230  0.00  0.00    +0.117 C 
ATOM      2  N   UNL     1      -3.552  -2.097  24.370  0.00  0.00    -0.261 N 
ATOM      3  C   UNL     1      -4.170  -1.566  24.238  0.00  0.00    +0.116 C 
ATOM      4  C   UNL     1      -3.909  -0.814  24.452  0.00  0.00    +0.113 C 
ATOM      5  C   UNL     1      -4.280  -0.077  24.441  0.00  0.00    +0.094 C 
ATOM      6  N   UNL     1      -3.873   0.594  24.693  0.00  0.00    -0.271 NA
ATOM      7  C   UNL     1      -3.094   0.529  24.957  0.00  0.00    +0.094 C 
ATOM      8  C   UNL     1      -2.722  -0.208  24.968  0.00  0.00    +0.112 C 
ATOM      9  N   UNL     1      -3.130  -0.879  24.716  0.00  0.00    -0.261 N 
ATOM     10  C   UNL     1      -2.909  -1.672  24.665  0.00  0.00    +0.307 C 
ATOM     11  O   UNL     1      -2.175  -1.986  24.872  0.00  0.00    -0.252 OA
ENDROOT
BRANCH   6  12
ATOM     12  C   UNL     1      -4.243   1.331  24.683  0.00  0.00    +0.063 C 
ATOM     13  C   UNL     1      -4.913   1.462  25.146  0.00  0.00    +0.048 C 
ATOM     14  C   UNL     1      -5.285   2.199  25.136  0.00  0.00    +0.144 C 
ATOM     15  O   UNL     1      -4.986   2.805  24.662  0.00  0.00    -0.354 OA
ATOM     16  C   UNL     1      -4.316   2.674  24.198  0.00  0.00    +0.144 C 
ATOM     17  C   UNL     1      -3.945   1.937  24.209  0.00  0.00    +0.048 C 
ENDBRANCH   6  12
TORSDOF 1
ENDMDL
MODEL 4
REMARK VINA RESULT:      -7.8      2.299      3.691
REMARK  Name = 
REMARK  1 active torsions:
REMARK  status: ('A' for Active; 'I' for Inactive)
REMARK    1  A    between atoms: N_6  and  C_12
REMARK                            x       y       z     vdW  Elec       q    Type
REMARK                         _______ _______ _______ _____ _____    ______ ____
ROOT
ATOM      1  C   UNL     1      -0.645   0.169  24.608  0.00  0.00    +0.117 C 
ATOM      2  N   UNL     1      -1.327   0.624  24.516  0.00  0.00    -0.261 N 
ATOM      3  C   UNL     1      -1.951   0.677  25.054  0.00  0.00    +0.116 C 
ATOM      4  C   UNL     1      -2.514   1.192  24.741  0.00  0.00    +0.113 C 
ATOM      5  C   UNL     1      -3.242   1.454  25.027  0.00  0.00    +0.094 C 
ATOM      6  N   UNL     1      -3.695   1.980  24.583  0.00  0.00    -0.271 NA
ATOM      7  C   UNL     1      -3.420   2.245  23.851  0.00  0.00    +0.094 C 
ATOM      8  C   UNL     1      -2.692   1.983  23.564  0.00  0.00    +0.112 C 
ATOM      9  N   UNL     1      -2.239   1.456  24.010  0.00  0.00    -0.261 N 
ATOM     10  C   UNL     1      -1.506   1.105  23.871  0.00  0.00    +0.307 C 
ATOM     11  O   UNL     1      -1.034   1.217  23.203  0.00  0.00    -0.252 OA
ENDROOT
BRANCH   6  12
ATOM     12  C   UNL     1      -4.423   2.242  24.868  0.00  0.00    +0.063 C 
ATOM     13  C   UNL     1      -5.091   1.763  24.796  0.00  0.00    +0.048 C 
ATOM     14  C   UNL     1      -5.820   2.024  25.081  0.00  0.00    +0.144 C 
ATOM     15  O   UNL     1      -5.880   2.766  25.440  0.00  0.00    -0.354 OA
ATOM     16  C   UNL     1      -5.212   3.245  25.512  0.00  0.00    +0.144 C 
ATOM     17  C   UNL     1      -4.484   2.982  25.226  0.00  0.00    +0.048 C 
ENDBRANCH   6  12
TORSDOF 1
ENDMDL
MODEL 5
REMARK VINA RESULT:      -7.5      1.929      2.444
REMARK  Name = 
REMARK  1 active torsions:
REMARK  status: ('A' for Active; 'I' for Inactive)
REMARK    1  A    between atoms: N_6  and  C_12
REMARK                            x       y       z     vdW  Elec       q    Type
REMARK                         _______ _______ _______ _____ _____    ______ ____
ROOT
ATOM      1  C   UNL     1      -5.417   3.504  25.480  0.00  0.00    +0.117 C 
ATOM      2  N   UNL     1      -4.880   2.917  25.261  0.00  0.00    -0.261 N 
ATOM      3  C   UNL     1      -4.057   2.977  25.288  0.00  0.00    +0.116 C 
ATOM      4  C   UNL     1      -3.741   2.264  25.020  0.00  0.00    +0.113 C 
ATOM      5  C   UNL     1      -2.963   2.005  24.927  0.00  0.00    +0.094 C 
ATOM      6  N   UNL     1      -2.812   1.247  24.641  0.00  0.00    -0.271 NA
ATOM      7  C   UNL     1      -3.439   0.746  24.448  0.00  0.00    +0.094 C 
ATOM      8  C   UNL     1      -4.217   1.004  24.541  0.00  0.00    +0.112 C 
ATOM      9  N   UNL     1      -4.368   1.763  24.827  0.00  0.00    -0.261 N 
ATOM     10  C   UNL     1      -5.072   2.167  24.976  0.00  0.00    +0.307 C 
ATOM     11  O   UNL     1      -5.834   1.872  24.860  0.00  0.00    -0.252 OA
ENDROOT
BRANCH   6  12
ATOM     12  C   UNL     1      -2.034   0.988  24.547  0.00  0.00    +0.063 C 
ATOM     13  C   UNL     1      -1.606   1.205  23.877  0.00  0.00    +0.048 C 
ATOM     14  C   UNL     1      -0.828   0.947  23.782  0.00  0.00    +0.144 C 
ATOM     15  O   UNL     1      -0.479   0.471  24.359  0.00  0.00    -0.354 OA
ATOM     16  C   UNL     1      -0.907   0.254  25.030  0.00  0.00    +0.144 C 
ATOM     17  C   UNL     1      -1.685   0.513  25.123  0.00  0.00    +0.048 C 
ENDBRANCH   6  12
TORSDOF 1
ENDMDL
MODEL 6
REMARK VINA RESULT:      -7.1     18.224     19.230
REMARK  Name = 
REMARK  1 active torsions:
REMARK  status: ('A' for Active; 'I' for Inactive)
REMARK    1  A    between atoms: N_6  and  C_12
REMARK                            x       y       z     vdW  Elec       q    Type
REMARK                         _______ _______ _______ _____ _____    ______ ____
ROOT
ATOM      1  C   UNL     1      16.012   6.834  19.426  0.00  0.00    +0.117 C 
ATOM      2  N   UNL     1      15.197   6.892  19.543  0.00  0.00    -0.261 N 
ATOM      3  C   UNL     1      14.800   6.774  20.257  0.00  0.00    +0.116 C 
ATOM      4  C   UNL     1      13.994   6.887  20.121  0.00  0.00    +0.113 C 
ATOM      5  C   UNL     1      13.339   6.843  20.620  0.00  0.00    +0.094 C 
ATOM      6  N   UNL     1      12.583   6.987  20.323  0.00  0.00    -0.271 NA
ATOM      7  C   UNL     1      12.483   7.176  19.526  0.00  0.00    +0.094 C 
ATOM      8  C   UNL     1      13.137   7.220  19.026  0.00  0.00    +0.112 C 
ATOM      9  N   UNL     1      13.894   7.075  19.324  0.00  0.00    -0.261 N 
ATOM     10  C   UNL     1      14.637   7.078  18.967  0.00  0.00    +0.307 C 
ATOM     11  O   UNL     1      14.793   7.240  18.173  0.00  0.00    -0.252 OA
ENDROOT
BRANCH   6  12
ATOM     12  C   UNL     1      11.928   6.943  20.822  0.00  0.00    +0.063 C 
ATOM     13  C   UNL     1      11.513   7.629  21.018  0.00  0.00    +0.048 C 
ATOM     14  C   UNL     1      10.857   7.587  21.517  0.00  0.00    +0.144 C 
ATOM     15  O   UNL     1      10.616   6.857  21.820  0.00  0.00    -0.354 OA
ATOM     16  C   UNL     1      11.031   6.172  21.624  0.00  0.00    +0.144 C 
ATOM     17  C   UNL     1      11.687   6.215  21.125  0.00  0.00    +0.048 C 
ENDBRANCH   6  12
TORSDOF 1
ENDMDL
MODEL 7
REMARK VINA RESULT:      -6.9     19.830     20.757
REMARK  Name = 
REMARK  1 active torsions:
REMARK  status: ('A' for Active; 'I' for Inactive)
REMARK    1  A    between atoms: N_6  and  C_12
REMARK                            x       y       z     vdW  Elec       q    Type
REMARK                         _______ _______ _______ _____ _____    ______ ____
ROOT
ATOM      1  C   UNL     1      12.045   8.014  17.778  0.00  0.00    +0.117 C 
ATOM      2  N   UNL     1      12.669   7.747  18.247  0.00  0.00    -0.261 N 
ATOM      3  C   UNL     1      13.471   7.787  18.056  0.00  0.00    +0.116 C 
ATOM      4  C   UNL     1      13.898   7.457  18.680  0.00  0.00    +0.113 C 
ATOM      5  C   UNL     1      14.707   7.347  18.798  0.00  0.00    +0.094 C 
ATOM      6  N   UNL     1      14.978   6.994  19.492  0.00  0.00    -0.271 NA
ATOM      7  C   UNL     1      14.440   6.749  20.068  0.00  0.00    +0.094 C 
ATOM      8  C   UNL     1      13.631   6.859  19.950  0.00  0.00    +0.112 C 
ATOM      9  N   UNL     1      13.360   7.213  19.256  0.00  0.00    -0.261 N 
ATOM     10  C   UNL     1      12.601   7.392  18.988  0.00  0.00    +0.307 C 
ATOM     11  O   UNL     1      11.896   7.242  19.391  0.00  0.00    -0.252 OA
ENDROOT
BRANCH   6  12
ATOM     12  C   UNL     1      15.787   6.884  19.611  0.00  0.00    +0.063 C 
ATOM     13  C   UNL     1      16.179   6.266  19.229  0.00  0.00    +0.048 C 
ATOM     14  C   UNL     1      16.988   6.155  19.347  0.00  0.00    +0.144 C 
ATOM     15  O   UNL     1      17.405   6.662  19.847  0.00  0.00    -0.354 OA
ATOM     16  C   UNL     1      17.013   7.280  20.229  0.00  0.00    +0.144 C 
ATOM     17  C   UNL     1      16.204   7.390  20.110  0.00  0.00    +0.048 C 
ENDBRANCH   6  12
TORSDOF 1
ENDMDL
