REMARK  Name = 
REMARK  4 active torsions:
REMARK  status: ('A' for Active; 'I' for Inactive)
REMARK    1  A    between atoms: C_1  and  C_2
REMARK    2  A    between atoms: C_1  and  C_16
REMARK    3  A    between atoms: C_5  and  C_7
REMARK    4  A    between atoms: N_10  and  C_12
REMARK                            x       y       z     vdW  Elec       q    Type
REMARK                         _______ _______ _______ _____ _____    ______ ____
ROOT
ATOM      2  C   UNL     1       0.527  -1.971   0.000  0.00  0.00    +0.230 A 
ATOM      3  N   UNL     1       1.194  -1.486   0.000  0.00  0.00    -0.111 NA
ATOM      4  N   UNL     1       1.862  -1.971   0.000  0.00  0.00    -0.112 NA
ATOM      5  C   UNL     1       1.607  -2.756   0.000  0.00  0.00    +0.227 A 
ATOM      6  O   UNL     1       0.782  -2.756   0.000  0.00  0.00    -0.423 OA
ENDROOT
BRANCH   5   7
ATOM      7  C   UNL     1       2.092  -3.423   0.000  0.00  0.00    +0.095 C 
ATOM      8  C   UNL     1       2.917  -3.423   0.000  0.00  0.00    +0.028 C 
ATOM      9  C   UNL     1       3.172  -4.207   0.000  0.00  0.00    +0.073 C 
ATOM     10  N   UNL     1       2.504  -4.692   0.000  0.00  0.00    -0.274 NA
ATOM     11  C   UNL     1       1.837  -4.207   0.000  0.00  0.00    +0.081 C 
BRANCH  10  12
ATOM     12  C   UNL     1       2.504  -5.518   0.000  0.00  0.00    +0.058 C 
ATOM     13  C   UNL     1       3.088  -6.101   0.000  0.00  0.00    +0.016 C 
ATOM     14  C   UNL     1       2.504  -6.684   0.000  0.00  0.00    +0.003 C 
ATOM     15  C   UNL     1       1.921  -6.101   0.000  0.00  0.00    +0.016 C 
ENDBRANCH  10  12
ENDBRANCH   5   7
BRANCH   2   1
ATOM      1  C   UNL     1      -0.258  -1.716   0.000  0.00  0.00    +0.113 C 
BRANCH   1  16
ATOM     16  C   UNL     1      -0.429  -0.909   0.000  0.00  0.00    -0.013 A 
ATOM     17  C   UNL     1      -1.214  -0.654   0.000  0.00  0.00    -0.004 A 
ATOM     18  C   UNL     1      -1.385   0.153   0.000  0.00  0.00    -0.000 A 
ATOM     19  C   UNL     1      -0.772   0.705   0.000  0.00  0.00    -0.000 A 
ATOM     20  C   UNL     1       0.013   0.450   0.000  0.00  0.00    -0.000 A 
ATOM     21  C   UNL     1       0.184  -0.357   0.000  0.00  0.00    -0.004 A 
ENDBRANCH   1  16
ENDBRANCH   2   1
TORSDOF 4
