MODEL 1
REMARK VINA RESULT:     -13.2      0.000      0.000
REMARK  Name = 
REMARK  3 active torsions:
REMARK  status: ('A' for Active; 'I' for Inactive)
REMARK    1  A    between atoms: O_2  and  C_3
REMARK    2  A    between atoms: C_4  and  C_10
REMARK    3  A    between atoms: C_25  and  C_27
REMARK                            x       y       z     vdW  Elec       q    Type
REMARK                         _______ _______ _______ _____ _____    ______ ____
ROOT
ATOM     10  C   UNL     1      -3.971  -0.142  24.820  0.00  0.00    +0.003 A 
ATOM     11  C   UNL     1      -3.302   0.337  24.756  0.00  0.00    +0.006 A 
ATOM     12  C   UNL     1      -3.366   1.151  24.878  0.00  0.00    +0.069 A 
ATOM     13  C   UNL     1      -4.097   1.484  25.065  0.00  0.00    +0.078 A 
ATOM     14  N   UNL     1      -4.280   2.277  25.207  0.00  0.00    -0.178 NA
ATOM     15  C   UNL     1      -3.776   2.930  25.198  0.00  0.00    +0.265 C 
ATOM     16  O   UNL     1      -4.130   3.657  25.364  0.00  0.00    -0.271 OA
ATOM     17  C   UNL     1      -2.966   2.953  25.044  0.00  0.00    +0.174 C 
ATOM     18  C   UNL     1      -2.672   3.723  25.092  0.00  0.00    +0.123 C 
ATOM     19  N   UNL     1      -1.872   3.868  24.956  0.00  0.00    -0.273 N 
ATOM     20  C   UNL     1      -1.365   3.244  24.774  0.00  0.00    +0.115 C 
ATOM     21  C   UNL     1      -1.658   2.473  24.726  0.00  0.00    +0.116 C 
ATOM     22  N   UNL     1      -2.459   2.329  24.862  0.00  0.00    -0.266 N 
ATOM     23  C   UNL     1      -2.637   1.527  24.788  0.00  0.00    +0.251 C 
ATOM     24  O   UNL     1      -2.002   1.035  24.599  0.00  0.00    -0.270 OA
ATOM     25  C   UNL     1      -1.578   4.638  25.003  0.00  0.00    +0.259 C 
ATOM     26  O   UNL     1      -2.086   5.262  25.186  0.00  0.00    -0.272 OA
ATOM     29  C   UNL     1      -4.765   1.005  25.129  0.00  0.00    +0.017 A 
ATOM     30  C   UNL     1      -4.702   0.191  25.007  0.00  0.00    +0.001 A 
ENDROOT
BRANCH  10   4
ATOM      3  C   UNL     1      -3.618  -1.442  25.298  0.00  0.00    +0.139 A 
ATOM      4  C   UNL     1      -3.908  -0.956  24.698  0.00  0.00    +0.035 A 
ATOM      5  C   UNL     1      -4.135  -1.283  23.975  0.00  0.00    +0.014 A 
ATOM      6  C   UNL     1      -4.073  -2.096  23.853  0.00  0.00    +0.058 A 
ATOM      7 CL   UNL     1      -4.300  -2.423  23.130  0.00  0.00    -0.082 Cl
ATOM      8  C   UNL     1      -3.783  -2.582  24.453  0.00  0.00    +0.015 A 
ATOM      9  C   UNL     1      -3.556  -2.255  25.176  0.00  0.00    +0.038 A 
BRANCH   3   2
ATOM      1  C   UNL     1      -3.092  -1.600  26.617  0.00  0.00    +0.252 C 
ATOM      2  O   UNL     1      -3.391  -1.115  26.021  0.00  0.00    -0.471 OA
ENDBRANCH   3   2
ENDBRANCH  10   4
BRANCH  25  27
ATOM     27  C   UNL     1      -0.777   4.782  24.868  0.00  0.00    +0.266 C 
ATOM     28  O   UNL     1      -0.505   5.558  24.791  0.00  0.00    -0.210 OA
ENDBRANCH  25  27
TORSDOF 3
ENDMDL
MODEL 2
REMARK VINA RESULT:     -12.0      2.212      5.473
REMARK  Name = 
REMARK  3 active torsions:
REMARK  status: ('A' for Active; 'I' for Inactive)
REMARK    1  A    between atoms: O_2  and  C_3
REMARK    2  A    between atoms: C_4  and  C_10
REMARK    3  A    between atoms: C_25  and  C_27
REMARK                            x       y       z     vdW  Elec       q    Type
REMARK                         _______ _______ _______ _____ _____    ______ ____
ROOT
ATOM     10  C   UNL     1      -1.324   2.812  25.351  0.00  0.00    +0.003 A 
ATOM     11  C   UNL     1      -1.892   2.334  24.990  0.00  0.00    +0.006 A 
ATOM     12  C   UNL     1      -1.867   1.515  25.094  0.00  0.00    +0.069 A 
ATOM     13  C   UNL     1      -1.275   1.176  25.558  0.00  0.00    +0.078 A 
ATOM     14  N   UNL     1      -1.152   0.379  25.731  0.00  0.00    -0.178 NA
ATOM     15  C   UNL     1      -1.589  -0.276  25.484  0.00  0.00    +0.265 C 
ATOM     16  O   UNL     1      -1.323  -1.008  25.754  0.00  0.00    -0.271 OA
ATOM     17  C   UNL     1      -2.259  -0.294  25.002  0.00  0.00    +0.174 C 
ATOM     18  C   UNL     1      -2.528  -1.066  24.888  0.00  0.00    +0.123 C 
ATOM     19  N   UNL     1      -3.193  -1.207  24.422  0.00  0.00    -0.273 N 
ATOM     20  C   UNL     1      -3.590  -0.577  24.069  0.00  0.00    +0.115 C 
ATOM     21  C   UNL     1      -3.322   0.196  24.181  0.00  0.00    +0.116 C 
ATOM     22  N   UNL     1      -2.656   0.336  24.648  0.00  0.00    -0.266 N 
ATOM     23  C   UNL     1      -2.481   1.142  24.690  0.00  0.00    +0.251 C 
ATOM     24  O   UNL     1      -2.989   1.640  24.270  0.00  0.00    -0.270 OA
ATOM     25  C   UNL     1      -3.462  -1.979  24.309  0.00  0.00    +0.259 C 
ATOM     26  O   UNL     1      -3.064  -2.610  24.663  0.00  0.00    -0.272 OA
ATOM     29  C   UNL     1      -0.708   1.654  25.918  0.00  0.00    +0.017 A 
ATOM     30  C   UNL     1      -0.732   2.473  25.814  0.00  0.00    +0.001 A 
ENDROOT
BRANCH  10   4
ATOM      3  C   UNL     1      -1.908   4.081  25.652  0.00  0.00    +0.139 A 
ATOM      4  C   UNL     1      -1.348   3.630  25.247  0.00  0.00    +0.035 A 
ATOM      5  C   UNL     1      -0.811   3.997  24.739  0.00  0.00    +0.014 A 
ATOM      6  C   UNL     1      -0.835   4.816  24.635  0.00  0.00    +0.058 A 
ATOM      7 CL   UNL     1      -0.299   5.182  24.128  0.00  0.00    -0.082 Cl
ATOM      8  C   UNL     1      -1.395   5.266  25.040  0.00  0.00    +0.015 A 
ATOM      9  C   UNL     1      -1.932   4.899  25.548  0.00  0.00    +0.038 A 
BRANCH   3   2
ATOM      1  C   UNL     1      -3.031   4.158  26.531  0.00  0.00    +0.252 C 
ATOM      2  O   UNL     1      -2.445   3.714  26.159  0.00  0.00    -0.471 OA
ENDBRANCH   3   2
ENDBRANCH  10   4
BRANCH  25  27
ATOM     27  C   UNL     1      -4.127  -2.120  23.843  0.00  0.00    +0.266 C 
ATOM     28  O   UNL     1      -4.424  -2.886  23.768  0.00  0.00    -0.210 OA
ENDBRANCH  25  27
TORSDOF 3
ENDMDL
MODEL 3
REMARK VINA RESULT:     -11.1      1.140      1.935
REMARK  Name = 
REMARK  3 active torsions:
REMARK  status: ('A' for Active; 'I' for Inactive)
REMARK    1  A    between atoms: O_2  and  C_3
REMARK    2  A    between atoms: C_4  and  C_10
REMARK    3  A    between atoms: C_25  and  C_27
REMARK                            x       y       z     vdW  Elec       q    Type
REMARK                         _______ _______ _______ _____ _____    ______ ____
ROOT
ATOM     10  C   UNL     1      -2.314  -0.545  24.696  0.00  0.00    +0.003 A 
ATOM     11  C   UNL     1      -2.536   0.243  24.792  0.00  0.00    +0.006 A 
ATOM     12  C   UNL     1      -1.964   0.838  24.775  0.00  0.00    +0.069 A 
ATOM     13  C   UNL     1      -1.170   0.643  24.662  0.00  0.00    +0.078 A 
ATOM     14  N   UNL     1      -0.517   1.147  24.626  0.00  0.00    -0.178 NA
ATOM     15  C   UNL     1      -0.497   1.968  24.696  0.00  0.00    +0.265 C 
ATOM     16  O   UNL     1       0.250   2.314  24.636  0.00  0.00    -0.271 OA
ATOM     17  C   UNL     1      -1.124   2.490  24.818  0.00  0.00    +0.174 C 
ATOM     18  C   UNL     1      -0.863   3.272  24.855  0.00  0.00    +0.123 C 
ATOM     19  N   UNL     1      -1.405   3.882  24.974  0.00  0.00    -0.273 N 
ATOM     20  C   UNL     1      -2.207   3.711  25.056  0.00  0.00    +0.115 C 
ATOM     21  C   UNL     1      -2.469   2.929  25.020  0.00  0.00    +0.116 C 
ATOM     22  N   UNL     1      -1.927   2.319  24.900  0.00  0.00    -0.266 N 
ATOM     23  C   UNL     1      -2.300   1.583  24.881  0.00  0.00    +0.251 C 
ATOM     24  O   UNL     1      -3.119   1.595  24.982  0.00  0.00    -0.270 OA
ATOM     25  C   UNL     1      -1.144   4.664  25.011  0.00  0.00    +0.259 C 
ATOM     26  O   UNL     1      -0.341   4.835  24.928  0.00  0.00    -0.272 OA
ATOM     29  C   UNL     1      -0.949  -0.146  24.565  0.00  0.00    +0.017 A 
ATOM     30  C   UNL     1      -1.521  -0.740  24.583  0.00  0.00    +0.001 A 
ENDROOT
BRANCH  10   4
ATOM      3  C   UNL     1      -3.053  -1.531  25.420  0.00  0.00    +0.139 A 
ATOM      4  C   UNL     1      -2.886  -1.140  24.714  0.00  0.00    +0.035 A 
ATOM      5  C   UNL     1      -3.291  -1.343  24.023  0.00  0.00    +0.014 A 
ATOM      6  C   UNL     1      -3.863  -1.937  24.041  0.00  0.00    +0.058 A 
ATOM      7 CL   UNL     1      -4.267  -2.140  23.351  0.00  0.00    -0.082 Cl
ATOM      8  C   UNL     1      -4.030  -2.328  24.747  0.00  0.00    +0.015 A 
ATOM      9  C   UNL     1      -3.625  -2.126  25.437  0.00  0.00    +0.038 A 
BRANCH   3   2
ATOM      1  C   UNL     1      -2.898  -1.626  26.837  0.00  0.00    +0.252 C 
ATOM      2  O   UNL     1      -2.648  -1.329  26.110  0.00  0.00    -0.471 OA
ENDBRANCH   3   2
ENDBRANCH  10   4
BRANCH  25  27
ATOM     27  C   UNL     1      -1.686   5.274  25.130  0.00  0.00    +0.266 C 
ATOM     28  O   UNL     1      -1.449   6.060  25.043  0.00  0.00    -0.210 OA
ENDBRANCH  25  27
TORSDOF 3
ENDMDL
MODEL 4
REMARK VINA RESULT:     -10.7      2.039      5.210
REMARK  Name = 
REMARK  3 active torsions:
REMARK  status: ('A' for Active; 'I' for Inactive)
REMARK    1  A    between atoms: O_2  and  C_3
REMARK    2  A    between atoms: C_4  and  C_10
REMARK    3  A    between atoms: C_25  and  C_27
REMARK                            x       y       z     vdW  Elec       q    Type
REMARK                         _______ _______ _______ _____ _____    ______ ____
ROOT
ATOM     10  C   UNL     1      -2.775   3.027  24.782  0.00  0.00    +0.003 A 
ATOM     11  C   UNL     1      -2.511   2.252  24.881  0.00  0.00    +0.006 A 
ATOM     12  C   UNL     1      -3.014   1.620  24.709  0.00  0.00    +0.069 A 
ATOM     13  C   UNL     1      -3.780   1.765  24.439  0.00  0.00    +0.078 A 
ATOM     14  N   UNL     1      -4.365   1.219  24.237  0.00  0.00    -0.178 NA
ATOM     15  C   UNL     1      -4.329   0.395  24.256  0.00  0.00    +0.265 C 
ATOM     16  O   UNL     1      -5.014   0.001  24.019  0.00  0.00    -0.271 OA
ATOM     17  C   UNL     1      -3.699  -0.087  24.481  0.00  0.00    +0.174 C 
ATOM     18  C   UNL     1      -3.894  -0.887  24.419  0.00  0.00    +0.123 C 
ATOM     19  N   UNL     1      -3.339  -1.463  24.619  0.00  0.00    -0.273 N 
ATOM     20  C   UNL     1      -2.589  -1.241  24.881  0.00  0.00    +0.115 C 
ATOM     21  C   UNL     1      -2.393  -0.441  24.943  0.00  0.00    +0.116 C 
ATOM     22  N   UNL     1      -2.949   0.135  24.743  0.00  0.00    -0.266 N 
ATOM     23  C   UNL     1      -2.644   0.896  24.845  0.00  0.00    +0.251 C 
ATOM     24  O   UNL     1      -1.867   0.936  25.118  0.00  0.00    -0.270 OA
ATOM     25  C   UNL     1      -3.533  -2.263  24.557  0.00  0.00    +0.259 C 
ATOM     26  O   UNL     1      -4.284  -2.485  24.295  0.00  0.00    -0.272 OA
ATOM     29  C   UNL     1      -4.043   2.540  24.340  0.00  0.00    +0.017 A 
ATOM     30  C   UNL     1      -3.541   3.172  24.512  0.00  0.00    +0.001 A 
ENDROOT
BRANCH  10   4
ATOM      3  C   UNL     1      -2.440   4.158  25.588  0.00  0.00    +0.139 A 
ATOM      4  C   UNL     1      -2.273   3.659  24.954  0.00  0.00    +0.035 A 
ATOM      5  C   UNL     1      -1.602   3.790  24.490  0.00  0.00    +0.014 A 
ATOM      6  C   UNL     1      -1.100   4.422  24.661  0.00  0.00    +0.058 A 
ATOM      7 CL   UNL     1      -0.430   4.553  24.198  0.00  0.00    -0.082 Cl
ATOM      8  C   UNL     1      -1.267   4.921  25.296  0.00  0.00    +0.015 A 
ATOM      9  C   UNL     1      -1.937   4.790  25.760  0.00  0.00    +0.038 A 
BRANCH   3   2
ATOM      1  C   UNL     1      -3.240   4.482  26.726  0.00  0.00    +0.252 C 
ATOM      2  O   UNL     1      -3.109   4.027  26.051  0.00  0.00    -0.471 OA
ENDBRANCH   3   2
ENDBRANCH  10   4
BRANCH  25  27
ATOM     27  C   UNL     1      -2.978  -2.839  24.756  0.00  0.00    +0.266 C 
ATOM     28  O   UNL     1      -3.176  -3.638  24.701  0.00  0.00    -0.210 OA
ENDBRANCH  25  27
TORSDOF 3
ENDMDL
MODEL 5
REMARK VINA RESULT:     -10.7      1.678      2.504
REMARK  Name = 
REMARK  3 active torsions:
REMARK  status: ('A' for Active; 'I' for Inactive)
REMARK    1  A    between atoms: O_2  and  C_3
REMARK    2  A    between atoms: C_4  and  C_10
REMARK    3  A    between atoms: C_25  and  C_27
REMARK                            x       y       z     vdW  Elec       q    Type
REMARK                         _______ _______ _______ _____ _____    ______ ____
ROOT
ATOM     10  C   UNL     1      -3.179  -0.603  24.304  0.00  0.00    +0.003 A 
ATOM     11  C   UNL     1      -3.758  -0.133  24.657  0.00  0.00    +0.006 A 
ATOM     12  C   UNL     1      -3.730   0.688  24.571  0.00  0.00    +0.069 A 
ATOM     13  C   UNL     1      -3.125   1.036  24.132  0.00  0.00    +0.078 A 
ATOM     14  N   UNL     1      -2.997   1.837  23.979  0.00  0.00    -0.178 NA
ATOM     15  C   UNL     1      -3.442   2.486  24.226  0.00  0.00    +0.265 C 
ATOM     16  O   UNL     1      -3.167   3.223  23.979  0.00  0.00    -0.271 OA
ATOM     17  C   UNL     1      -4.125   2.495  24.688  0.00  0.00    +0.174 C 
ATOM     18  C   UNL     1      -4.397   3.265  24.809  0.00  0.00    +0.123 C 
ATOM     19  N   UNL     1      -5.076   3.396  25.258  0.00  0.00    -0.273 N 
ATOM     20  C   UNL     1      -5.484   2.759  25.587  0.00  0.00    +0.115 C 
ATOM     21  C   UNL     1      -5.212   1.988  25.466  0.00  0.00    +0.116 C 
ATOM     22  N   UNL     1      -4.532   1.858  25.017  0.00  0.00    -0.266 N 
ATOM     23  C   UNL     1      -4.356   1.053  24.964  0.00  0.00    +0.251 C 
ATOM     24  O   UNL     1      -4.876   0.547  25.358  0.00  0.00    -0.270 OA
ATOM     25  C   UNL     1      -5.349   4.166  25.379  0.00  0.00    +0.259 C 
ATOM     26  O   UNL     1      -4.941   4.803  25.050  0.00  0.00    -0.272 OA
ATOM     29  C   UNL     1      -2.547   0.565  23.779  0.00  0.00    +0.017 A 
ATOM     30  C   UNL     1      -2.574  -0.255  23.866  0.00  0.00    +0.001 A 
ENDROOT
BRANCH  10   4
ATOM      3  C   UNL     1      -2.620  -1.813  24.821  0.00  0.00    +0.139 A 
ATOM      4  C   UNL     1      -3.206  -1.424  24.391  0.00  0.00    +0.035 A 
ATOM      5  C   UNL     1      -3.820  -1.855  24.045  0.00  0.00    +0.014 A 
ATOM      6  C   UNL     1      -3.847  -2.675  24.131  0.00  0.00    +0.058 A 
ATOM      7 CL   UNL     1      -4.460  -3.105  23.786  0.00  0.00    -0.082 Cl
ATOM      8  C   UNL     1      -3.261  -3.064  24.562  0.00  0.00    +0.015 A 
ATOM      9  C   UNL     1      -2.647  -2.633  24.907  0.00  0.00    +0.038 A 
BRANCH   3   2
ATOM      1  C   UNL     1      -1.387  -1.776  25.541  0.00  0.00    +0.252 C 
ATOM      2  O   UNL     1      -2.007  -1.382  25.166  0.00  0.00    -0.471 OA
ENDBRANCH   3   2
ENDBRANCH  10   4
BRANCH  25  27
ATOM     27  C   UNL     1      -6.028   4.297  25.828  0.00  0.00    +0.266 C 
ATOM     28  O   UNL     1      -6.380   5.043  25.834  0.00  0.00    -0.210 OA
ENDBRANCH  25  27
TORSDOF 3
ENDMDL
MODEL 6
REMARK VINA RESULT:      -9.9      2.284      4.499
REMARK  Name = 
REMARK  3 active torsions:
REMARK  status: ('A' for Active; 'I' for Inactive)
REMARK    1  A    between atoms: O_2  and  C_3
REMARK    2  A    between atoms: C_4  and  C_10
REMARK    3  A    between atoms: C_25  and  C_27
REMARK                            x       y       z     vdW  Elec       q    Type
REMARK                         _______ _______ _______ _____ _____    ______ ____
ROOT
ATOM     10  C   UNL     1      -3.930   2.119  24.634  0.00  0.00    +0.003 A 
ATOM     11  C   UNL     1      -3.600   1.434  24.953  0.00  0.00    +0.006 A 
ATOM     12  C   UNL     1      -2.876   1.155  24.670  0.00  0.00    +0.069 A 
ATOM     13  C   UNL     1      -2.484   1.562  24.069  0.00  0.00    +0.078 A 
ATOM     14  N   UNL     1      -1.763   1.380  23.711  0.00  0.00    -0.178 NA
ATOM     15  C   UNL     1      -1.257   0.747  23.866  0.00  0.00    +0.265 C 
ATOM     16  O   UNL     1      -0.571   0.717  23.409  0.00  0.00    -0.271 OA
ATOM     17  C   UNL     1      -1.347   0.139  24.416  0.00  0.00    +0.174 C 
ATOM     18  C   UNL     1      -0.710  -0.386  24.392  0.00  0.00    +0.123 C 
ATOM     19  N   UNL     1      -0.692  -1.035  24.901  0.00  0.00    -0.273 N 
ATOM     20  C   UNL     1      -1.309  -1.160  25.433  0.00  0.00    +0.115 C 
ATOM     21  C   UNL     1      -1.946  -0.635  25.457  0.00  0.00    +0.116 C 
ATOM     22  N   UNL     1      -1.964   0.014  24.948  0.00  0.00    -0.266 N 
ATOM     23  C   UNL     1      -2.645   0.467  25.062  0.00  0.00    +0.251 C 
ATOM     24  O   UNL     1      -3.163   0.194  25.643  0.00  0.00    -0.270 OA
ATOM     25  C   UNL     1      -0.055  -1.560  24.877  0.00  0.00    +0.259 C 
ATOM     26  O   UNL     1       0.563  -1.434  24.344  0.00  0.00    -0.272 OA
ATOM     29  C   UNL     1      -2.814   2.247  23.751  0.00  0.00    +0.017 A 
ATOM     30  C   UNL     1      -3.538   2.526  24.033  0.00  0.00    +0.001 A 
ENDROOT
BRANCH  10   4
ATOM      3  C   UNL     1      -4.678   3.066  25.399  0.00  0.00    +0.139 A 
ATOM      4  C   UNL     1      -4.653   2.398  24.916  0.00  0.00    +0.035 A 
ATOM      5  C   UNL     1      -5.353   2.008  24.715  0.00  0.00    +0.014 A 
ATOM      6  C   UNL     1      -6.076   2.287  24.997  0.00  0.00    +0.058 A 
ATOM      7 CL   UNL     1      -6.775   1.897  24.796  0.00  0.00    -0.082 Cl
ATOM      8  C   UNL     1      -6.101   2.955  25.480  0.00  0.00    +0.015 A 
ATOM      9  C   UNL     1      -5.401   3.345  25.681  0.00  0.00    +0.038 A 
BRANCH   3   2
ATOM      1  C   UNL     1      -3.994   4.073  26.147  0.00  0.00    +0.252 C 
ATOM      2  O   UNL     1      -3.979   3.455  25.601  0.00  0.00    -0.471 OA
ENDBRANCH   3   2
ENDBRANCH  10   4
BRANCH  25  27
ATOM     27  C   UNL     1      -0.037  -2.209  25.385  0.00  0.00    +0.266 C 
ATOM     28  O   UNL     1       0.669  -2.619  25.506  0.00  0.00    -0.210 OA
ENDBRANCH  25  27
TORSDOF 3
ENDMDL
MODEL 7
REMARK VINA RESULT:      -9.5      2.499      4.174
REMARK  Name = 
REMARK  3 active torsions:
REMARK  status: ('A' for Active; 'I' for Inactive)
REMARK    1  A    between atoms: O_2  and  C_3
REMARK    2  A    between atoms: C_4  and  C_10
REMARK    3  A    between atoms: C_25  and  C_27
REMARK                            x       y       z     vdW  Elec       q    Type
REMARK                         _______ _______ _______ _____ _____    ______ ____
ROOT
ATOM     10  C   UNL     1      -3.089   2.326  25.017  0.00  0.00    +0.003 A 
ATOM     11  C   UNL     1      -2.624   1.844  24.535  0.00  0.00    +0.006 A 
ATOM     12  C   UNL     1      -1.801   1.892  24.576  0.00  0.00    +0.069 A 
ATOM     13  C   UNL     1      -1.444   2.421  25.098  0.00  0.00    +0.078 A 
ATOM     14  N   UNL     1      -0.640   2.555  25.224  0.00  0.00    -0.178 NA
ATOM     15  C   UNL     1       0.006   2.193  24.860  0.00  0.00    +0.265 C 
ATOM     16  O   UNL     1       0.749   2.450  25.109  0.00  0.00    -0.271 OA
ATOM     17  C   UNL     1       0.006   1.607  24.279  0.00  0.00    +0.174 C 
ATOM     18  C   UNL     1       0.775   1.396  24.064  0.00  0.00    +0.123 C 
ATOM     19  N   UNL     1       0.898   0.818  23.490  0.00  0.00    -0.273 N 
ATOM     20  C   UNL     1       0.254   0.450  23.130  0.00  0.00    +0.115 C 
ATOM     21  C   UNL     1      -0.515   0.660  23.344  0.00  0.00    +0.116 C 
ATOM     22  N   UNL     1      -0.638   1.239  23.919  0.00  0.00    -0.266 N 
ATOM     23  C   UNL     1      -1.443   1.366  24.051  0.00  0.00    +0.251 C 
ATOM     24  O   UNL     1      -1.956   0.905  23.599  0.00  0.00    -0.270 OA
ATOM     25  C   UNL     1       1.667   0.607  23.275  0.00  0.00    +0.259 C 
ATOM     26  O   UNL     1       2.311   0.976  23.635  0.00  0.00    -0.272 OA
ATOM     29  C   UNL     1      -1.909   2.903  25.579  0.00  0.00    +0.017 A 
ATOM     30  C   UNL     1      -2.732   2.856  25.539  0.00  0.00    +0.001 A 
ENDROOT
BRANCH  10   4
ATOM      3  C   UNL     1      -4.339   2.861  24.578  0.00  0.00    +0.139 A 
ATOM      4  C   UNL     1      -3.912   2.279  24.976  0.00  0.00    +0.035 A 
ATOM      5  C   UNL     1      -4.307   1.648  25.335  0.00  0.00    +0.014 A 
ATOM      6  C   UNL     1      -5.129   1.601  25.294  0.00  0.00    +0.058 A 
ATOM      7 CL   UNL     1      -5.524   0.971  25.652  0.00  0.00    -0.082 Cl
ATOM      8  C   UNL     1      -5.557   2.183  24.896  0.00  0.00    +0.015 A 
ATOM      9  C   UNL     1      -5.162   2.813  24.538  0.00  0.00    +0.038 A 
BRANCH   3   2
ATOM      1  C   UNL     1      -4.368   4.047  23.783  0.00  0.00    +0.252 C 
ATOM      2  O   UNL     1      -3.945   3.491  24.220  0.00  0.00    -0.471 OA
ENDBRANCH   3   2
ENDBRANCH  10   4
BRANCH  25  27
ATOM     27  C   UNL     1       1.790   0.029  22.700  0.00  0.00    +0.266 C 
ATOM     28  O   UNL     1       2.539  -0.071  22.369  0.00  0.00    -0.210 OA
ENDBRANCH  25  27
TORSDOF 3
ENDMDL
MODEL 8
REMARK VINA RESULT:      -9.5      3.185      3.993
REMARK  Name = 
REMARK  3 active torsions:
REMARK  status: ('A' for Active; 'I' for Inactive)
REMARK    1  A    between atoms: O_2  and  C_3
REMARK    2  A    between atoms: C_4  and  C_10
REMARK    3  A    between atoms: C_25  and  C_27
REMARK                            x       y       z     vdW  Elec       q    Type
REMARK                         _______ _______ _______ _____ _____    ______ ____
ROOT
ATOM     10  C   UNL     1      -2.129  -0.141  24.738  0.00  0.00    +0.003 A 
ATOM     11  C   UNL     1      -1.477  -0.340  24.274  0.00  0.00    +0.006 A 
ATOM     12  C   UNL     1      -0.819   0.158  24.254  0.00  0.00    +0.069 A 
ATOM     13  C   UNL     1      -0.815   0.854  24.696  0.00  0.00    +0.078 A 
ATOM     14  N   UNL     1      -0.220   1.424  24.754  0.00  0.00    -0.178 NA
ATOM     15  C   UNL     1       0.517   1.438  24.383  0.00  0.00    +0.265 C 
ATOM     16  O   UNL     1       0.992   2.090  24.554  0.00  0.00    -0.271 OA
ATOM     17  C   UNL     1       0.841   0.885  23.863  0.00  0.00    +0.174 C 
ATOM     18  C   UNL     1       1.596   1.110  23.617  0.00  0.00    +0.123 C 
ATOM     19  N   UNL     1       2.018   0.632  23.095  0.00  0.00    -0.273 N 
ATOM     20  C   UNL     1       1.687  -0.070  22.817  0.00  0.00    +0.115 C 
ATOM     21  C   UNL     1       0.931  -0.295  23.063  0.00  0.00    +0.116 C 
ATOM     22  N   UNL     1       0.509   0.183  23.586  0.00  0.00    -0.266 N 
ATOM     23  C   UNL     1      -0.230  -0.141  23.760  0.00  0.00    +0.251 C 
ATOM     24  O   UNL     1      -0.402  -0.858  23.391  0.00  0.00    -0.270 OA
ATOM     25  C   UNL     1       2.774   0.856  22.849  0.00  0.00    +0.259 C 
ATOM     26  O   UNL     1       3.106   1.559  23.127  0.00  0.00    -0.272 OA
ATOM     29  C   UNL     1      -1.468   1.053  25.159  0.00  0.00    +0.017 A 
ATOM     30  C   UNL     1      -2.126   0.555  25.180  0.00  0.00    +0.001 A 
ENDROOT
BRANCH  10   4
ATOM      3  C   UNL     1      -3.495  -0.403  24.408  0.00  0.00    +0.139 A 
ATOM      4  C   UNL     1      -2.787  -0.639  24.759  0.00  0.00    +0.035 A 
ATOM      5  C   UNL     1      -2.736  -1.374  25.131  0.00  0.00    +0.014 A 
ATOM      6  C   UNL     1      -3.394  -1.872  25.152  0.00  0.00    +0.058 A 
ATOM      7 CL   UNL     1      -3.342  -2.606  25.525  0.00  0.00    -0.082 Cl
ATOM      8  C   UNL     1      -4.101  -1.636  24.801  0.00  0.00    +0.015 A 
ATOM      9  C   UNL     1      -4.152  -0.901  24.429  0.00  0.00    +0.038 A 
BRANCH   3   2
ATOM      1  C   UNL     1      -4.278   0.618  23.787  0.00  0.00    +0.252 C 
ATOM      2  O   UNL     1      -3.546   0.331  24.035  0.00  0.00    -0.471 OA
ENDBRANCH   3   2
ENDBRANCH  10   4
BRANCH  25  27
ATOM     27  C   UNL     1       3.196   0.379  22.326  0.00  0.00    +0.266 C 
ATOM     28  O   UNL     1       3.961   0.591  22.099  0.00  0.00    -0.210 OA
ENDBRANCH  25  27
TORSDOF 3
ENDMDL
MODEL 9
REMARK VINA RESULT:      -9.3      2.322      3.474
REMARK  Name = 
REMARK  3 active torsions:
REMARK  status: ('A' for Active; 'I' for Inactive)
REMARK    1  A    between atoms: O_2  and  C_3
REMARK    2  A    between atoms: C_4  and  C_10
REMARK    3  A    between atoms: C_25  and  C_27
REMARK                            x       y       z     vdW  Elec       q    Type
REMARK                         _______ _______ _______ _____ _____    ______ ____
ROOT
ATOM     10  C   UNL     1      -0.581   1.099  24.600  0.00  0.00    +0.003 A 
ATOM     11  C   UNL     1      -1.393   1.226  24.528  0.00  0.00    +0.006 A 
ATOM     12  C   UNL     1      -1.742   1.875  24.900  0.00  0.00    +0.069 A 
ATOM     13  C   UNL     1      -1.279   2.396  25.341  0.00  0.00    +0.078 A 
ATOM     14  N   UNL     1      -1.516   3.072  25.752  0.00  0.00    -0.178 NA
ATOM     15  C   UNL     1      -2.273   3.393  25.823  0.00  0.00    +0.265 C 
ATOM     16  O   UNL     1      -2.329   4.079  26.276  0.00  0.00    -0.271 OA
ATOM     17  C   UNL     1      -2.980   3.118  25.500  0.00  0.00    +0.174 C 
ATOM     18  C   UNL     1      -3.615   3.604  25.706  0.00  0.00    +0.123 C 
ATOM     19  N   UNL     1      -4.374   3.425  25.438  0.00  0.00    -0.273 N 
ATOM     20  C   UNL     1      -4.500   2.762  24.965  0.00  0.00    +0.115 C 
ATOM     21  C   UNL     1      -3.866   2.275  24.759  0.00  0.00    +0.116 C 
ATOM     22  N   UNL     1      -3.106   2.454  25.027  0.00  0.00    -0.266 N 
ATOM     23  C   UNL     1      -2.555   1.901  24.760  0.00  0.00    +0.251 C 
ATOM     24  O   UNL     1      -2.856   1.293  24.290  0.00  0.00    -0.270 OA
ATOM     25  C   UNL     1      -5.009   3.911  25.644  0.00  0.00    +0.259 C 
ATOM     26  O   UNL     1      -4.882   4.576  26.117  0.00  0.00    -0.272 OA
ATOM     29  C   UNL     1      -0.468   2.268  25.412  0.00  0.00    +0.017 A 
ATOM     30  C   UNL     1      -0.118   1.620  25.042  0.00  0.00    +0.001 A 
ENDROOT
BRANCH  10   4
ATOM      3  C   UNL     1      -0.300  -0.301  24.561  0.00  0.00    +0.139 A 
ATOM      4  C   UNL     1      -0.231   0.450  24.229  0.00  0.00    +0.035 A 
ATOM      5  C   UNL     1       0.188   0.554  23.525  0.00  0.00    +0.014 A 
ATOM      6  C   UNL     1       0.538  -0.095  23.154  0.00  0.00    +0.058 A 
ATOM      7 CL   UNL     1       0.957   0.009  22.451  0.00  0.00    -0.082 Cl
ATOM      8  C   UNL     1       0.469  -0.846  23.486  0.00  0.00    +0.015 A 
ATOM      9  C   UNL     1       0.050  -0.950  24.190  0.00  0.00    +0.038 A 
BRANCH   3   2
ATOM      1  C   UNL     1      -0.800  -1.159  25.588  0.00  0.00    +0.252 C 
ATOM      2  O   UNL     1      -0.718  -0.405  25.264  0.00  0.00    -0.471 OA
ENDBRANCH   3   2
ENDBRANCH  10   4
BRANCH  25  27
ATOM     27  C   UNL     1      -5.768   3.733  25.376  0.00  0.00    +0.266 C 
ATOM     28  O   UNL     1      -6.416   4.158  25.660  0.00  0.00    -0.210 OA
ENDBRANCH  25  27
TORSDOF 3
ENDMDL
MODEL 10
REMARK VINA RESULT:      -9.2     15.602     18.219
REMARK  Name = 
REMARK  3 active torsions:
REMARK  status: ('A' for Active; 'I' for Inactive)
REMARK    1  A    between atoms: O_2  and  C_3
REMARK    2  A    between atoms: C_4  and  C_10
REMARK    3  A    between atoms: C_25  and  C_27
REMARK                            x       y       z     vdW  Elec       q    Type
REMARK                         _______ _______ _______ _____ _____    ______ ____
ROOT
ATOM     10  C   UNL     1      12.096   7.419  20.917  0.00  0.00    +0.003 A 
ATOM     11  C   UNL     1      12.042   7.758  20.167  0.00  0.00    +0.006 A 
ATOM     12  C   UNL     1      12.674   7.695  19.640  0.00  0.00    +0.069 A 
ATOM     13  C   UNL     1      13.359   7.293  19.864  0.00  0.00    +0.078 A 
ATOM     14  N   UNL     1      14.047   7.167  19.426  0.00  0.00    -0.178 NA
ATOM     15  C   UNL     1      14.220   7.412  18.657  0.00  0.00    +0.265 C 
ATOM     16  O   UNL     1      14.964   7.197  18.372  0.00  0.00    -0.271 OA
ATOM     17  C   UNL     1      13.748   7.844  18.137  0.00  0.00    +0.174 C 
ATOM     18  C   UNL     1      14.132   7.973  17.417  0.00  0.00    +0.123 C 
ATOM     19  N   UNL     1      13.754   8.395  16.818  0.00  0.00    -0.273 N 
ATOM     20  C   UNL     1      12.993   8.688  16.937  0.00  0.00    +0.115 C 
ATOM     21  C   UNL     1      12.608   8.559  17.656  0.00  0.00    +0.116 C 
ATOM     22  N   UNL     1      12.986   8.137  18.255  0.00  0.00    -0.266 N 
ATOM     23  C   UNL     1      12.508   8.071  18.925  0.00  0.00    +0.251 C 
ATOM     24  O   UNL     1      11.766   8.427  18.871  0.00  0.00    -0.270 OA
ATOM     25  C   UNL     1      14.138   8.524  16.099  0.00  0.00    +0.259 C 
ATOM     26  O   UNL     1      14.901   8.231  15.981  0.00  0.00    -0.272 OA
ATOM     29  C   UNL     1      13.412   6.954  20.613  0.00  0.00    +0.017 A 
ATOM     30  C   UNL     1      12.780   7.017  21.141  0.00  0.00    +0.001 A 
ENDROOT
BRANCH  10   4
ATOM      3  C   UNL     1      10.992   6.824  21.603  0.00  0.00    +0.139 A 
ATOM      4  C   UNL     1      11.464   7.482  21.444  0.00  0.00    +0.035 A 
ATOM      5  C   UNL     1      11.305   8.203  21.813  0.00  0.00    +0.014 A 
ATOM      6  C   UNL     1      10.674   8.266  22.340  0.00  0.00    +0.058 A 
ATOM      7 CL   UNL     1      10.515   8.986  22.709  0.00  0.00    -0.082 Cl
ATOM      8  C   UNL     1      10.201   7.608  22.499  0.00  0.00    +0.015 A 
ATOM      9  C   UNL     1      10.361   6.887  22.130  0.00  0.00    +0.038 A 
BRANCH   3   2
ATOM      1  C   UNL     1      10.781   5.415  21.498  0.00  0.00    +0.252 C 
ATOM      2  O   UNL     1      11.151   6.104  21.234  0.00  0.00    -0.471 OA
ENDBRANCH   3   2
ENDBRANCH  10   4
BRANCH  25  27
ATOM     27  C   UNL     1      13.761   8.946  15.500  0.00  0.00    +0.266 C 
ATOM     28  O   UNL     1      14.136   9.057  14.773  0.00  0.00    -0.210 OA
ENDBRANCH  25  27
TORSDOF 3
ENDMDL
