REMARK  Name = 
REMARK  3 active torsions:
REMARK  status: ('A' for Active; 'I' for Inactive)
REMARK    1  A    between atoms: O_2  and  C_3
REMARK    2  A    between atoms: C_7  and  N_11
REMARK    3  A    between atoms: N_11  and  S_12
REMARK                            x       y       z     vdW  Elec       q    Type
REMARK                         _______ _______ _______ _____ _____    ______ ____
ROOT
ATOM      3  C   UNL     1       1.270  -0.922   0.000  0.00  0.00    +0.174 C 
ATOM      4  C   UNL     1       0.785  -0.255   0.000  0.00  0.00    +0.174 C 
ATOM      5  O   UNL     1       1.270   0.412   0.000  0.00  0.00    -0.349 OA
ATOM      6  C   UNL     1       2.054   0.158   0.000  0.00  0.00    +0.165 C 
ATOM      7  C   UNL     1       2.839   0.412   0.000  0.00  0.00    +0.156 C 
ATOM      8  C   UNL     1       3.324  -0.255   0.000  0.00  0.00    +0.164 C 
ATOM      9  O   UNL     1       2.839  -0.922   0.000  0.00  0.00    -0.350 OA
ATOM     10  C   UNL     1       2.054  -0.667   0.000  0.00  0.00    +0.173 C 
ENDROOT
BRANCH   3   2
ATOM      1  C   UNL     1       0.208  -1.879   0.000  0.00  0.00    +0.174 C 
ATOM      2  O   UNL     1       1.015  -1.707   0.000  0.00  0.00    -0.348 OA
ENDBRANCH   3   2
BRANCH   7  11
ATOM     11  N   UNL     1       3.094   1.197   0.000  0.00  0.00    -0.078 NA
BRANCH  11  12
ATOM     12  S   UNL     1       2.542   1.810   0.000  0.00  0.00    +0.059 S 
ATOM     13  C   UNL     1       1.990   2.423   0.000  0.00  0.00    +0.197 C 
ATOM     14  O   UNL     1       3.155   2.362   0.000  0.00  0.00    -0.156 OA
ATOM     15  O   UNL     1       1.929   1.258   0.000  0.00  0.00    -0.156 OA
ENDBRANCH  11  12
ENDBRANCH   7  11
TORSDOF 3
