REMARK  Name = 
REMARK  6 active torsions:
REMARK  status: ('A' for Active; 'I' for Inactive)
REMARK    1  A    between atoms: O_2  and  C_3
REMARK    2  A    between atoms: C_6  and  C_7
REMARK    3  A    between atoms: C_7  and  N_8
REMARK    4  A    between atoms: C_9  and  C_11
REMARK    5  A    between atoms: N_16  and  C_17
REMARK    6  A    between atoms: C_17  and  C_18
REMARK                            x       y       z     vdW  Elec       q    Type
REMARK                         _______ _______ _______ _____ _____    ______ ____
ROOT
ATOM     11  C   UNL     1       2.070   1.110   0.000  0.00  0.00    +0.143 C 
ATOM     12  C   UNL     1       1.356   0.698   0.000  0.00  0.00    +0.072 C 
ATOM     13  C   UNL     1       0.641   1.110   0.000  0.00  0.00    +0.077 A 
ATOM     14  C   UNL     1       0.641   1.935   0.000  0.00  0.00    +0.090 A 
ATOM     15  C   UNL     1       1.356   2.348   0.000  0.00  0.00    +0.121 C 
ATOM     16  N   UNL     1       2.070   1.935   0.000  0.00  0.00    -0.257 NA
ATOM     25  N   UNL     1      -0.143   2.190   0.000  0.00  0.00    -0.226 NA
ATOM     26  C   UNL     1      -0.628   1.523   0.000  0.00  0.00    +0.198 A 
ATOM     27  N   UNL     1      -0.143   0.856   0.000  0.00  0.00    -0.227 NA
ENDROOT
BRANCH  11   9
ATOM      8  N   UNL     1       2.784  -0.127   0.000  0.00  0.00    -0.199 NA
ATOM      9  C   UNL     1       2.784   0.698   0.000  0.00  0.00    +0.257 C 
ATOM     10  O   UNL     1       3.499   1.110   0.000  0.00  0.00    -0.272 OA
BRANCH   8   7
ATOM      7  C   UNL     1       3.499  -0.540   0.000  0.00  0.00    +0.142 C 
BRANCH   7   6
ATOM      3  C   UNL     1       3.499  -3.015   0.000  0.00  0.00    +0.139 A 
ATOM      4  C   UNL     1       2.784  -2.602   0.000  0.00  0.00    +0.037 A 
ATOM      5  C   UNL     1       2.784  -1.777   0.000  0.00  0.00    +0.001 A 
ATOM      6  C   UNL     1       3.499  -1.365   0.000  0.00  0.00    -0.000 A 
ATOM     28  C   UNL     1       4.213  -1.777   0.000  0.00  0.00    +0.001 A 
ATOM     29  C   UNL     1       4.213  -2.602   0.000  0.00  0.00    +0.037 A 
BRANCH   3   2
ATOM      1  C   UNL     1       4.213  -4.252   0.000  0.00  0.00    +0.252 C 
ATOM      2  O   UNL     1       3.499  -3.840   0.000  0.00  0.00    -0.471 OA
ENDBRANCH   3   2
ENDBRANCH   7   6
ENDBRANCH   8   7
ENDBRANCH  11   9
BRANCH  16  17
ATOM     17  C   UNL     1       2.784   2.348   0.000  0.00  0.00    +0.100 C 
BRANCH  17  18
ATOM     18  C   UNL     1       2.784   3.173   0.000  0.00  0.00    -0.006 A 
ATOM     19  C   UNL     1       2.070   3.585   0.000  0.00  0.00    -0.002 A 
ATOM     20  C   UNL     1       2.070   4.410   0.000  0.00  0.00    +0.011 A 
ATOM     21  C   UNL     1       2.784   4.823   0.000  0.00  0.00    +0.058 A 
ATOM     22 CL   UNL     1       2.784   5.648   0.000  0.00  0.00    -0.082 Cl
ATOM     23  C   UNL     1       3.499   4.410   0.000  0.00  0.00    +0.011 A 
ATOM     24  C   UNL     1       3.499   3.585   0.000  0.00  0.00    -0.002 A 
ENDBRANCH  17  18
ENDBRANCH  16  17
TORSDOF 6
