MODEL 1
REMARK VINA RESULT:     -11.7      0.000      0.000
REMARK  Name = 
REMARK  3 active torsions:
REMARK  status: ('A' for Active; 'I' for Inactive)
REMARK    1  A    between atoms: C_7  and  N_10
REMARK    2  A    between atoms: C_15  and  C_16
REMARK    3  A    between atoms: C_18  and  C_21
REMARK                            x       y       z     vdW  Elec       q    Type
REMARK                         _______ _______ _______ _____ _____    ______ ____
ROOT
ATOM     10  N   UNL     1      -4.545   0.925  24.826  0.00  0.00    -0.265 NA
ATOM     11  C   UNL     1      -5.259   1.202  25.132  0.00  0.00    +0.106 C 
ATOM     12  C   UNL     1      -5.279   2.021  25.030  0.00  0.00    +0.170 C 
ATOM     13  O   UNL     1      -5.893   2.523  25.258  0.00  0.00    -0.222 OA
ATOM     14  C   UNL     1      -4.577   2.249  24.661  0.00  0.00    +0.060 C 
ATOM     15  C   UNL     1      -4.124   1.571  24.535  0.00  0.00    +0.140 C 
ENDROOT
BRANCH  10   7
ATOM      1  C   UNL     1      -3.691  -2.688  24.109  0.00  0.00    +0.095 C 
ATOM      2  C   UNL     1      -3.551  -2.222  24.774  0.00  0.00    +0.226 C 
ATOM      3  O   UNL     1      -3.161  -2.542  25.428  0.00  0.00    -0.275 OA
ATOM      4  N   UNL     1      -3.799  -1.434  24.787  0.00  0.00    -0.279 N 
ATOM      5  C   UNL     1      -3.659  -0.969  25.454  0.00  0.00    +0.095 C 
ATOM      6  C   UNL     1      -3.907  -0.182  25.466  0.00  0.00    +0.038 C 
ATOM      7  C   UNL     1      -4.297   0.139  24.813  0.00  0.00    +0.061 C 
ATOM      8  C   UNL     1      -4.437  -0.328  24.147  0.00  0.00    +0.038 C 
ATOM      9  C   UNL     1      -4.188  -1.115  24.134  0.00  0.00    +0.095 C 
ENDBRANCH  10   7
BRANCH  15  16
ATOM     16  C   UNL     1      -3.380   1.544  24.180  0.00  0.00    +0.251 A 
ATOM     17  N   UNL     1      -2.657   1.669  24.558  0.00  0.00    -0.190 NA
ATOM     18  C   UNL     1      -2.059   1.590  23.996  0.00  0.00    +0.205 A 
ATOM     19  N   UNL     1      -2.411   1.417  23.271  0.00  0.00    -0.056 NA
ATOM     20  O   UNL     1      -3.227   1.389  23.384  0.00  0.00    -0.336 OA
BRANCH  18  21
ATOM     21  C   UNL     1      -1.249   1.670  24.136  0.00  0.00    +0.058 A 
ATOM     22  C   UNL     1      -0.944   2.395  24.386  0.00  0.00    +0.006 A 
ATOM     23  C   UNL     1      -0.134   2.475  24.525  0.00  0.00    +0.021 A 
ATOM     24  C   UNL     1       0.369   1.831  24.415  0.00  0.00    +0.099 A 
ATOM     25  N   UNL     1       0.064   1.106  24.165  0.00  0.00    -0.242 NA
ATOM     26  C   UNL     1      -0.746   1.026  24.026  0.00  0.00    +0.102 A 
ENDBRANCH  18  21
ENDBRANCH  15  16
TORSDOF 3
ENDMDL
MODEL 2
REMARK VINA RESULT:     -11.4      1.396      3.849
REMARK  Name = 
REMARK  3 active torsions:
REMARK  status: ('A' for Active; 'I' for Inactive)
REMARK    1  A    between atoms: C_7  and  N_10
REMARK    2  A    between atoms: C_15  and  C_16
REMARK    3  A    between atoms: C_18  and  C_21
REMARK                            x       y       z     vdW  Elec       q    Type
REMARK                         _______ _______ _______ _____ _____    ______ ____
ROOT
ATOM     10  N   UNL     1      -3.937   2.855  25.155  0.00  0.00    -0.265 NA
ATOM     11  C   UNL     1      -4.401   3.467  25.456  0.00  0.00    +0.106 C 
ATOM     12  C   UNL     1      -5.188   3.219  25.442  0.00  0.00    +0.170 C 
ATOM     13  O   UNL     1      -5.839   3.658  25.694  0.00  0.00    -0.222 OA
ATOM     14  C   UNL     1      -5.209   2.455  25.132  0.00  0.00    +0.060 C 
ATOM     15  C   UNL     1      -4.435   2.230  24.954  0.00  0.00    +0.140 C 
ENDROOT
BRANCH  10   7
ATOM      1  C   UNL     1      -0.170   2.691  25.444  0.00  0.00    +0.095 C 
ATOM      2  C   UNL     1      -0.654   2.903  24.811  0.00  0.00    +0.226 C 
ATOM      3  O   UNL     1      -0.318   3.128  24.091  0.00  0.00    -0.275 OA
ATOM      4  N   UNL     1      -1.475   2.891  24.897  0.00  0.00    -0.279 N 
ATOM      5  C   UNL     1      -1.959   3.104  24.263  0.00  0.00    +0.095 C 
ATOM      6  C   UNL     1      -2.780   3.092  24.349  0.00  0.00    +0.038 C 
ATOM      7  C   UNL     1      -3.116   2.867  25.069  0.00  0.00    +0.061 C 
ATOM      8  C   UNL     1      -2.631   2.655  25.701  0.00  0.00    +0.038 C 
ATOM      9  C   UNL     1      -1.811   2.667  25.616  0.00  0.00    +0.095 C 
ENDBRANCH  10   7
BRANCH  15  16
ATOM     16  C   UNL     1      -4.202   1.508  24.633  0.00  0.00    +0.251 A 
ATOM     17  N   UNL     1      -4.169   0.786  25.033  0.00  0.00    -0.190 NA
ATOM     18  C   UNL     1      -3.907   0.212  24.502  0.00  0.00    +0.205 A 
ATOM     19  N   UNL     1      -3.777   0.578  23.775  0.00  0.00    -0.056 NA
ATOM     20  O   UNL     1      -3.959   1.377  23.855  0.00  0.00    -0.336 OA
BRANCH  18  21
ATOM     21  C   UNL     1      -3.795  -0.588  24.670  0.00  0.00    +0.058 A 
ATOM     22  C   UNL     1      -4.023  -1.160  24.122  0.00  0.00    +0.006 A 
ATOM     23  C   UNL     1      -3.911  -1.961  24.290  0.00  0.00    +0.021 A 
ATOM     24  C   UNL     1      -3.570  -2.188  25.006  0.00  0.00    +0.099 A 
ATOM     25  N   UNL     1      -3.341  -1.616  25.554  0.00  0.00    -0.242 NA
ATOM     26  C   UNL     1      -3.454  -0.815  25.386  0.00  0.00    +0.102 A 
ENDBRANCH  18  21
ENDBRANCH  15  16
TORSDOF 3
ENDMDL
MODEL 3
REMARK VINA RESULT:     -11.3      1.357      4.077
REMARK  Name = 
REMARK  3 active torsions:
REMARK  status: ('A' for Active; 'I' for Inactive)
REMARK    1  A    between atoms: C_7  and  N_10
REMARK    2  A    between atoms: C_15  and  C_16
REMARK    3  A    between atoms: C_18  and  C_21
REMARK                            x       y       z     vdW  Elec       q    Type
REMARK                         _______ _______ _______ _____ _____    ______ ____
ROOT
ATOM     10  N   UNL     1      -2.323  -0.578  24.789  0.00  0.00    -0.265 NA
ATOM     11  C   UNL     1      -2.189  -1.383  24.910  0.00  0.00    +0.106 C 
ATOM     12  C   UNL     1      -2.906  -1.779  24.805  0.00  0.00    +0.170 C 
ATOM     13  O   UNL     1      -3.026  -2.592  24.874  0.00  0.00    -0.222 OA
ATOM     14  C   UNL     1      -3.482  -1.218  24.620  0.00  0.00    +0.060 C 
ATOM     15  C   UNL     1      -3.121  -0.476  24.610  0.00  0.00    +0.140 C 
ENDROOT
BRANCH  10   7
ATOM      1  C   UNL     1       0.084   2.189  25.708  0.00  0.00    +0.095 C 
ATOM      2  C   UNL     1      -0.057   1.814  24.988  0.00  0.00    +0.226 C 
ATOM      3  O   UNL     1       0.368   2.036  24.316  0.00  0.00    -0.275 OA
ATOM      4  N   UNL     1      -0.624   1.215  24.938  0.00  0.00    -0.279 N 
ATOM      5  C   UNL     1      -0.765   0.840  24.217  0.00  0.00    +0.095 C 
ATOM      6  C   UNL     1      -1.331   0.242  24.167  0.00  0.00    +0.038 C 
ATOM      7  C   UNL     1      -1.757   0.020  24.839  0.00  0.00    +0.061 C 
ATOM      8  C   UNL     1      -1.615   0.395  25.559  0.00  0.00    +0.038 C 
ATOM      9  C   UNL     1      -1.049   0.993  25.609  0.00  0.00    +0.095 C 
ENDBRANCH  10   7
BRANCH  15  16
ATOM     16  C   UNL     1      -3.493   0.242  24.449  0.00  0.00    +0.251 A 
ATOM     17  N   UNL     1      -3.910   0.705  24.992  0.00  0.00    -0.190 NA
ATOM     18  C   UNL     1      -4.189   1.373  24.596  0.00  0.00    +0.205 A 
ATOM     19  N   UNL     1      -3.945   1.323  23.810  0.00  0.00    -0.056 NA
ATOM     20  O   UNL     1      -3.516   0.625  23.719  0.00  0.00    -0.336 OA
BRANCH  18  21
ATOM     21  C   UNL     1      -4.634   1.983  24.928  0.00  0.00    +0.058 A 
ATOM     22  C   UNL     1      -4.303   2.734  25.015  0.00  0.00    +0.006 A 
ATOM     23  C   UNL     1      -4.748   3.344  25.348  0.00  0.00    +0.021 A 
ATOM     24  C   UNL     1      -5.523   3.204  25.593  0.00  0.00    +0.099 A 
ATOM     25  N   UNL     1      -5.853   2.453  25.506  0.00  0.00    -0.242 NA
ATOM     26  C   UNL     1      -5.409   1.842  25.174  0.00  0.00    +0.102 A 
ENDBRANCH  18  21
ENDBRANCH  15  16
TORSDOF 3
ENDMDL
MODEL 4
REMARK VINA RESULT:     -10.9      1.977      3.615
REMARK  Name = 
REMARK  3 active torsions:
REMARK  status: ('A' for Active; 'I' for Inactive)
REMARK    1  A    between atoms: C_7  and  N_10
REMARK    2  A    between atoms: C_15  and  C_16
REMARK    3  A    between atoms: C_18  and  C_21
REMARK                            x       y       z     vdW  Elec       q    Type
REMARK                         _______ _______ _______ _____ _____    ______ ____
ROOT
ATOM     10  N   UNL     1      -0.553   0.238  24.154  0.00  0.00    -0.265 NA
ATOM     11  C   UNL     1      -0.118  -0.208  23.613  0.00  0.00    +0.106 C 
ATOM     12  C   UNL     1       0.571   0.210  23.434  0.00  0.00    +0.170 C 
ATOM     13  O   UNL     1       1.164  -0.033  22.915  0.00  0.00    -0.222 OA
ATOM     14  C   UNL     1       0.561   0.914  23.865  0.00  0.00    +0.060 C 
ATOM     15  C   UNL     1      -0.134   0.931  24.310  0.00  0.00    +0.140 C 
ENDROOT
BRANCH  10   7
ATOM      1  C   UNL     1      -4.162  -0.371  25.099  0.00  0.00    +0.095 C 
ATOM      2  C   UNL     1      -3.462  -0.605  25.466  0.00  0.00    +0.226 C 
ATOM      3  O   UNL     1      -3.487  -1.049  26.161  0.00  0.00    -0.275 OA
ATOM      4  N   UNL     1      -2.734  -0.394  25.138  0.00  0.00    -0.279 N 
ATOM      5  C   UNL     1      -2.033  -0.628  25.505  0.00  0.00    +0.095 C 
ATOM      6  C   UNL     1      -1.306  -0.417  25.177  0.00  0.00    +0.038 C 
ATOM      7  C   UNL     1      -1.280   0.028  24.482  0.00  0.00    +0.061 C 
ATOM      8  C   UNL     1      -1.981   0.261  24.115  0.00  0.00    +0.038 C 
ATOM      9  C   UNL     1      -2.708   0.050  24.443  0.00  0.00    +0.095 C 
ENDBRANCH  10   7
BRANCH  15  16
ATOM     16  C   UNL     1      -0.368   1.534  24.820  0.00  0.00    +0.251 A 
ATOM     17  N   UNL     1      -0.726   2.244  24.600  0.00  0.00    -0.190 NA
ATOM     18  C   UNL     1      -0.865   2.683  25.285  0.00  0.00    +0.205 A 
ATOM     19  N   UNL     1      -0.592   2.245  25.928  0.00  0.00    -0.056 NA
ATOM     20  O   UNL     1      -0.285   1.536  25.641  0.00  0.00    -0.336 OA
BRANCH  18  21
ATOM     21  C   UNL     1      -1.215   3.430  25.320  0.00  0.00    +0.058 A 
ATOM     22  C   UNL     1      -0.825   4.083  25.000  0.00  0.00    +0.006 A 
ATOM     23  C   UNL     1      -1.175   4.829  25.035  0.00  0.00    +0.021 A 
ATOM     24  C   UNL     1      -1.914   4.922  25.390  0.00  0.00    +0.099 A 
ATOM     25  N   UNL     1      -2.303   4.269  25.710  0.00  0.00    -0.242 NA
ATOM     26  C   UNL     1      -1.953   3.523  25.675  0.00  0.00    +0.102 A 
ENDBRANCH  18  21
ENDBRANCH  15  16
TORSDOF 3
ENDMDL
MODEL 5
REMARK VINA RESULT:     -10.9      1.383      3.397
REMARK  Name = 
REMARK  3 active torsions:
REMARK  status: ('A' for Active; 'I' for Inactive)
REMARK    1  A    between atoms: C_7  and  N_10
REMARK    2  A    between atoms: C_15  and  C_16
REMARK    3  A    between atoms: C_18  and  C_21
REMARK                            x       y       z     vdW  Elec       q    Type
REMARK                         _______ _______ _______ _____ _____    ______ ____
ROOT
ATOM     10  N   UNL     1      -1.411   0.700  24.862  0.00  0.00    -0.265 NA
ATOM     11  C   UNL     1      -0.599   0.747  24.997  0.00  0.00    +0.106 C 
ATOM     12  C   UNL     1      -0.369   1.533  24.893  0.00  0.00    +0.170 C 
ATOM     13  O   UNL     1       0.396   1.830  24.974  0.00  0.00    -0.222 OA
ATOM     14  C   UNL     1      -1.041   1.971  24.695  0.00  0.00    +0.060 C 
ATOM     15  C   UNL     1      -1.685   1.455  24.676  0.00  0.00    +0.140 C 
ENDROOT
BRANCH  10   7
ATOM      1  C   UNL     1      -3.398  -2.477  24.358  0.00  0.00    +0.095 C 
ATOM      2  C   UNL     1      -3.247  -2.038  25.039  0.00  0.00    +0.226 C 
ATOM      3  O   UNL     1      -3.554  -2.282  25.765  0.00  0.00    -0.275 OA
ATOM      4  N   UNL     1      -2.788  -1.353  24.995  0.00  0.00    -0.279 N 
ATOM      5  C   UNL     1      -2.636  -0.913  25.677  0.00  0.00    +0.095 C 
ATOM      6  C   UNL     1      -2.178  -0.229  25.632  0.00  0.00    +0.038 C 
ATOM      7  C   UNL     1      -1.870   0.016  24.906  0.00  0.00    +0.061 C 
ATOM      8  C   UNL     1      -2.022  -0.425  24.225  0.00  0.00    +0.038 C 
ATOM      9  C   UNL     1      -2.481  -1.109  24.270  0.00  0.00    +0.095 C 
ENDBRANCH  10   7
BRANCH  15  16
ATOM     16  C   UNL     1      -2.464   1.659  24.502  0.00  0.00    +0.251 A 
ATOM     17  N   UNL     1      -3.022   1.947  25.038  0.00  0.00    -0.190 NA
ATOM     18  C   UNL     1      -3.725   2.077  24.628  0.00  0.00    +0.205 A 
ATOM     19  N   UNL     1      -3.603   1.869  23.840  0.00  0.00    -0.056 NA
ATOM     20  O   UNL     1      -2.825   1.611  23.762  0.00  0.00    -0.336 OA
BRANCH  18  21
ATOM     21  C   UNL     1      -4.429   2.365  24.951  0.00  0.00    +0.058 A 
ATOM     22  C   UNL     1      -5.083   1.867  25.022  0.00  0.00    +0.006 A 
ATOM     23  C   UNL     1      -5.786   2.155  25.345  0.00  0.00    +0.021 A 
ATOM     24  C   UNL     1      -5.834   2.939  25.596  0.00  0.00    +0.099 A 
ATOM     25  N   UNL     1      -5.180   3.437  25.525  0.00  0.00    -0.242 NA
ATOM     26  C   UNL     1      -4.477   3.149  25.202  0.00  0.00    +0.102 A 
ENDBRANCH  18  21
ENDBRANCH  15  16
TORSDOF 3
ENDMDL
MODEL 6
REMARK VINA RESULT:     -10.9      2.055      4.077
REMARK  Name = 
REMARK  3 active torsions:
REMARK  status: ('A' for Active; 'I' for Inactive)
REMARK    1  A    between atoms: C_7  and  N_10
REMARK    2  A    between atoms: C_15  and  C_16
REMARK    3  A    between atoms: C_18  and  C_21
REMARK                            x       y       z     vdW  Elec       q    Type
REMARK                         _______ _______ _______ _____ _____    ______ ____
ROOT
ATOM     10  N   UNL     1      -1.200   3.095  24.864  0.00  0.00    -0.265 NA
ATOM     11  C   UNL     1      -0.624   3.660  25.035  0.00  0.00    +0.106 C 
ATOM     12  C   UNL     1      -0.979   4.404  24.995  0.00  0.00    +0.170 C 
ATOM     13  O   UNL     1      -0.605   5.127  25.127  0.00  0.00    -0.222 OA
ATOM     14  C   UNL     1      -1.773   4.298  24.799  0.00  0.00    +0.060 C 
ATOM     15  C   UNL     1      -1.910   3.488  24.718  0.00  0.00    +0.140 C 
ENDROOT
BRANCH  10   7
ATOM      1  C   UNL     1      -0.843  -0.622  25.462  0.00  0.00    +0.095 C 
ATOM      2  C   UNL     1      -0.742  -0.173  24.777  0.00  0.00    +0.226 C 
ATOM      3  O   UNL     1      -0.526  -0.540  24.071  0.00  0.00    -0.275 OA
ATOM      4  N   UNL     1      -0.857   0.645  24.799  0.00  0.00    -0.279 N 
ATOM      5  C   UNL     1      -0.755   1.093  24.114  0.00  0.00    +0.095 C 
ATOM      6  C   UNL     1      -0.870   1.910  24.135  0.00  0.00    +0.038 C 
ATOM      7  C   UNL     1      -1.086   2.278  24.842  0.00  0.00    +0.061 C 
ATOM      8  C   UNL     1      -1.187   1.829  25.526  0.00  0.00    +0.038 C 
ATOM      9  C   UNL     1      -1.072   1.012  25.505  0.00  0.00    +0.095 C 
ENDBRANCH  10   7
BRANCH  15  16
ATOM     16  C   UNL     1      -2.629   3.134  24.526  0.00  0.00    +0.251 A 
ATOM     17  N   UNL     1      -3.243   2.965  25.052  0.00  0.00    -0.190 NA
ATOM     18  C   UNL     1      -3.855   2.614  24.624  0.00  0.00    +0.205 A 
ATOM     19  N   UNL     1      -3.620   2.567  23.835  0.00  0.00    -0.056 NA
ATOM     20  O   UNL     1      -2.864   2.888  23.775  0.00  0.00    -0.336 OA
BRANCH  18  21
ATOM     21  C   UNL     1      -4.575   2.356  24.933  0.00  0.00    +0.058 A 
ATOM     22  C   UNL     1      -4.786   1.560  24.878  0.00  0.00    +0.006 A 
ATOM     23  C   UNL     1      -5.506   1.302  25.186  0.00  0.00    +0.021 A 
ATOM     24  C   UNL     1      -6.016   1.839  25.550  0.00  0.00    +0.099 A 
ATOM     25  N   UNL     1      -5.806   2.635  25.605  0.00  0.00    -0.242 NA
ATOM     26  C   UNL     1      -5.085   2.893  25.296  0.00  0.00    +0.102 A 
ENDBRANCH  18  21
ENDBRANCH  15  16
TORSDOF 3
ENDMDL
MODEL 7
REMARK VINA RESULT:     -10.9      1.575      4.436
REMARK  Name = 
REMARK  3 active torsions:
REMARK  status: ('A' for Active; 'I' for Inactive)
REMARK    1  A    between atoms: C_7  and  N_10
REMARK    2  A    between atoms: C_15  and  C_16
REMARK    3  A    between atoms: C_18  and  C_21
REMARK                            x       y       z     vdW  Elec       q    Type
REMARK                         _______ _______ _______ _____ _____    ______ ____
ROOT
ATOM     10  N   UNL     1      -1.095   1.759  24.429  0.00  0.00    -0.265 NA
ATOM     11  C   UNL     1      -0.391   2.127  24.209  0.00  0.00    +0.106 C 
ATOM     12  C   UNL     1       0.218   1.573  24.278  0.00  0.00    +0.170 C 
ATOM     13  O   UNL     1       1.015   1.706  24.113  0.00  0.00    -0.222 OA
ATOM     14  C   UNL     1      -0.112   0.864  24.541  0.00  0.00    +0.060 C 
ATOM     15  C   UNL     1      -0.924   0.980  24.635  0.00  0.00    +0.140 C 
ENDROOT
BRANCH  10   7
ATOM      1  C   UNL     1      -4.360   3.514  25.174  0.00  0.00    +0.095 C 
ATOM      2  C   UNL     1      -4.081   3.167  24.481  0.00  0.00    +0.226 C 
ATOM      3  O   UNL     1      -4.546   3.170  23.800  0.00  0.00    -0.275 OA
ATOM      4  N   UNL     1      -3.334   2.815  24.468  0.00  0.00    -0.279 N 
ATOM      5  C   UNL     1      -3.054   2.467  23.774  0.00  0.00    +0.095 C 
ATOM      6  C   UNL     1      -2.308   2.115  23.761  0.00  0.00    +0.038 C 
ATOM      7  C   UNL     1      -1.841   2.111  24.442  0.00  0.00    +0.061 C 
ATOM      8  C   UNL     1      -2.122   2.459  25.135  0.00  0.00    +0.038 C 
ATOM      9  C   UNL     1      -2.868   2.811  25.148  0.00  0.00    +0.095 C 
ENDBRANCH  10   7
BRANCH  15  16
ATOM     16  C   UNL     1      -1.468   0.415  24.889  0.00  0.00    +0.251 A 
ATOM     17  N   UNL     1      -1.833  -0.155  24.416  0.00  0.00    -0.190 NA
ATOM     18  C   UNL     1      -2.333  -0.602  24.895  0.00  0.00    +0.205 A 
ATOM     19  N   UNL     1      -2.278  -0.309  25.664  0.00  0.00    -0.056 NA
ATOM     20  O   UNL     1      -1.744   0.318  25.660  0.00  0.00    -0.336 OA
BRANCH  18  21
ATOM     21  C   UNL     1      -2.806  -1.232  24.648  0.00  0.00    +0.058 A 
ATOM     22  C   UNL     1      -3.592  -1.099  24.437  0.00  0.00    +0.006 A 
ATOM     23  C   UNL     1      -4.065  -1.729  24.190  0.00  0.00    +0.021 A 
ATOM     24  C   UNL     1      -3.751  -2.491  24.155  0.00  0.00    +0.099 A 
ATOM     25  N   UNL     1      -2.965  -2.624  24.367  0.00  0.00    -0.242 NA
ATOM     26  C   UNL     1      -2.492  -1.994  24.613  0.00  0.00    +0.102 A 
ENDBRANCH  18  21
ENDBRANCH  15  16
TORSDOF 3
ENDMDL
MODEL 8
REMARK VINA RESULT:     -10.8      1.133      3.098
REMARK  Name = 
REMARK  3 active torsions:
REMARK  status: ('A' for Active; 'I' for Inactive)
REMARK    1  A    between atoms: C_7  and  N_10
REMARK    2  A    between atoms: C_15  and  C_16
REMARK    3  A    between atoms: C_18  and  C_21
REMARK                            x       y       z     vdW  Elec       q    Type
REMARK                         _______ _______ _______ _____ _____    ______ ____
ROOT
ATOM     10  N   UNL     1      -3.662  -0.978  24.565  0.00  0.00    -0.265 NA
ATOM     11  C   UNL     1      -4.070  -1.647  24.306  0.00  0.00    +0.106 C 
ATOM     12  C   UNL     1      -3.548  -2.286  24.324  0.00  0.00    +0.170 C 
ATOM     13  O   UNL     1      -3.724  -3.062  24.109  0.00  0.00    -0.222 OA
ATOM     14  C   UNL     1      -2.818  -2.012  24.595  0.00  0.00    +0.060 C 
ATOM     15  C   UNL     1      -2.889  -1.203  24.744  0.00  0.00    +0.140 C 
ENDROOT
BRANCH  10   7
ATOM      1  C   UNL     1      -5.283   2.296  25.538  0.00  0.00    +0.095 C 
ATOM      2  C   UNL     1      -4.909   2.065  24.840  0.00  0.00    +0.226 C 
ATOM      3  O   UNL     1      -4.846   2.595  24.210  0.00  0.00    -0.275 OA
ATOM      4  N   UNL     1      -4.597   1.304  24.771  0.00  0.00    -0.279 N 
ATOM      5  C   UNL     1      -4.223   1.073  24.073  0.00  0.00    +0.095 C 
ATOM      6  C   UNL     1      -3.911   0.313  24.004  0.00  0.00    +0.038 C 
ATOM      7  C   UNL     1      -3.974  -0.218  24.634  0.00  0.00    +0.061 C 
ATOM      8  C   UNL     1      -4.348   0.014  25.332  0.00  0.00    +0.038 C 
ATOM      9  C   UNL     1      -4.659   0.775  25.400  0.00  0.00    +0.095 C 
ENDBRANCH  10   7
BRANCH  15  16
ATOM     16  C   UNL     1      -2.293  -0.707  25.023  0.00  0.00    +0.251 A 
ATOM     17  N   UNL     1      -1.805  -0.227  24.560  0.00  0.00    -0.190 NA
ATOM     18  C   UNL     1      -1.289   0.173  25.065  0.00  0.00    +0.205 A 
ATOM     19  N   UNL     1      -1.458  -0.059  25.838  0.00  0.00    -0.056 NA
ATOM     20  O   UNL     1      -2.077  -0.602  25.812  0.00  0.00    -0.336 OA
BRANCH  18  21
ATOM     21  C   UNL     1      -0.707   0.711  24.835  0.00  0.00    +0.058 A 
ATOM     22  C   UNL     1      -0.614   1.418  25.249  0.00  0.00    +0.006 A 
ATOM     23  C   UNL     1      -0.032   1.957  25.020  0.00  0.00    +0.021 A 
ATOM     24  C   UNL     1       0.457   1.787  24.377  0.00  0.00    +0.099 A 
ATOM     25  N   UNL     1       0.363   1.080  23.963  0.00  0.00    -0.242 NA
ATOM     26  C   UNL     1      -0.219   0.541  24.192  0.00  0.00    +0.102 A 
ENDBRANCH  18  21
ENDBRANCH  15  16
TORSDOF 3
ENDMDL
MODEL 9
REMARK VINA RESULT:     -10.7      2.162      3.594
REMARK  Name = 
REMARK  3 active torsions:
REMARK  status: ('A' for Active; 'I' for Inactive)
REMARK    1  A    between atoms: C_7  and  N_10
REMARK    2  A    between atoms: C_15  and  C_16
REMARK    3  A    between atoms: C_18  and  C_21
REMARK                            x       y       z     vdW  Elec       q    Type
REMARK                         _______ _______ _______ _____ _____    ______ ____
ROOT
ATOM     10  N   UNL     1      -2.371   3.676  24.942  0.00  0.00    -0.265 NA
ATOM     11  C   UNL     1      -2.180   4.459  25.121  0.00  0.00    +0.106 C 
ATOM     12  C   UNL     1      -1.367   4.553  25.015  0.00  0.00    +0.170 C 
ATOM     13  O   UNL     1      -0.940   5.248  25.133  0.00  0.00    -0.222 OA
ATOM     14  C   UNL     1      -1.056   3.829  24.770  0.00  0.00    +0.060 C 
ATOM     15  C   UNL     1      -1.677   3.287  24.725  0.00  0.00    +0.140 C 
ENDROOT
BRANCH  10   7
ATOM      1  C   UNL     1      -5.691   2.079  25.790  0.00  0.00    +0.095 C 
ATOM      2  C   UNL     1      -5.386   2.340  25.070  0.00  0.00    +0.226 C 
ATOM      3  O   UNL     1      -5.834   2.266  24.380  0.00  0.00    -0.275 OA
ATOM      4  N   UNL     1      -4.631   2.674  25.038  0.00  0.00    -0.279 N 
ATOM      5  C   UNL     1      -4.327   2.934  24.316  0.00  0.00    +0.095 C 
ATOM      6  C   UNL     1      -3.573   3.269  24.284  0.00  0.00    +0.038 C 
ATOM      7  C   UNL     1      -3.124   3.342  24.974  0.00  0.00    +0.061 C 
ATOM      8  C   UNL     1      -3.430   3.082  25.694  0.00  0.00    +0.038 C 
ATOM      9  C   UNL     1      -4.184   2.748  25.726  0.00  0.00    +0.095 C 
ENDBRANCH  10   7
BRANCH  15  16
ATOM     16  C   UNL     1      -1.615   2.496  24.502  0.00  0.00    +0.251 A 
ATOM     17  N   UNL     1      -1.382   1.871  24.989  0.00  0.00    -0.190 NA
ATOM     18  C   UNL     1      -1.398   1.179  24.541  0.00  0.00    +0.205 A 
ATOM     19  N   UNL     1      -1.641   1.375  23.778  0.00  0.00    -0.056 NA
ATOM     20  O   UNL     1      -1.775   2.188  23.754  0.00  0.00    -0.336 OA
BRANCH  18  21
ATOM     21  C   UNL     1      -1.205   0.423  24.810  0.00  0.00    +0.058 A 
ATOM     22  C   UNL     1      -1.620   0.092  25.441  0.00  0.00    +0.006 A 
ATOM     23  C   UNL     1      -1.427  -0.665  25.709  0.00  0.00    +0.021 A 
ATOM     24  C   UNL     1      -0.819  -1.088  25.347  0.00  0.00    +0.099 A 
ATOM     25  N   UNL     1      -0.404  -0.757  24.716  0.00  0.00    -0.242 NA
ATOM     26  C   UNL     1      -0.597  -0.001  24.447  0.00  0.00    +0.102 A 
ENDBRANCH  18  21
ENDBRANCH  15  16
TORSDOF 3
ENDMDL
MODEL 10
REMARK VINA RESULT:      -9.1     16.230     18.798
REMARK  Name = 
REMARK  3 active torsions:
REMARK  status: ('A' for Active; 'I' for Inactive)
REMARK    1  A    between atoms: C_7  and  N_10
REMARK    2  A    between atoms: C_15  and  C_16
REMARK    3  A    between atoms: C_18  and  C_21
REMARK                            x       y       z     vdW  Elec       q    Type
REMARK                         _______ _______ _______ _____ _____    ______ ____
ROOT
ATOM     10  N   UNL     1      13.924   7.595  18.505  0.00  0.00    -0.265 NA
ATOM     11  C   UNL     1      14.162   7.806  17.743  0.00  0.00    +0.106 C 
ATOM     12  C   UNL     1      13.489   7.843  17.267  0.00  0.00    +0.170 C 
ATOM     13  O   UNL     1      13.473   8.034  16.465  0.00  0.00    -0.222 OA
ATOM     14  C   UNL     1      12.836   7.656  17.735  0.00  0.00    +0.060 C 
ATOM     15  C   UNL     1      13.105   7.503  18.500  0.00  0.00    +0.140 C 
ENDROOT
BRANCH  10   7
ATOM      1  C   UNL     1      16.204   6.448  21.294  0.00  0.00    +0.095 C 
ATOM      2  C   UNL     1      15.906   7.195  21.114  0.00  0.00    +0.226 C 
ATOM      3  O   UNL     1      16.102   7.844  21.586  0.00  0.00    -0.275 OA
ATOM      4  N   UNL     1      15.410   7.296  20.461  0.00  0.00    -0.279 N 
ATOM      5  C   UNL     1      15.111   8.044  20.281  0.00  0.00    +0.095 C 
ATOM      6  C   UNL     1      14.616   8.144  19.629  0.00  0.00    +0.038 C 
ATOM      7  C   UNL     1      14.419   7.495  19.157  0.00  0.00    +0.061 C 
ATOM      8  C   UNL     1      14.718   6.748  19.338  0.00  0.00    +0.038 C 
ATOM      9  C   UNL     1      15.213   6.648  19.990  0.00  0.00    +0.095 C 
ENDBRANCH  10   7
BRANCH  15  16
ATOM     16  C   UNL     1      12.637   7.294  19.146  0.00  0.00    +0.251 A 
ATOM     17  N   UNL     1      12.297   7.815  19.687  0.00  0.00    -0.190 NA
ATOM     18  C   UNL     1      11.876   7.370  20.240  0.00  0.00    +0.205 A 
ATOM     19  N   UNL     1      11.957   6.575  20.041  0.00  0.00    -0.056 NA
ATOM     20  O   UNL     1      12.426   6.527  19.366  0.00  0.00    -0.336 OA
BRANCH  18  21
ATOM     21  C   UNL     1      11.450   7.670  20.880  0.00  0.00    +0.058 A 
ATOM     22  C   UNL     1      11.022   8.370  20.799  0.00  0.00    +0.006 A 
ATOM     23  C   UNL     1      10.596   8.670  21.439  0.00  0.00    +0.021 A 
ATOM     24  C   UNL     1      10.598   8.268  22.160  0.00  0.00    +0.099 A 
ATOM     25  N   UNL     1      11.026   7.568  22.241  0.00  0.00    -0.242 NA
ATOM     26  C   UNL     1      11.452   7.268  21.601  0.00  0.00    +0.102 A 
ENDBRANCH  18  21
ENDBRANCH  15  16
TORSDOF 3
ENDMDL
