MODEL 1
REMARK VINA RESULT:      -9.7      0.000      0.000
REMARK  Name = 
REMARK  5 active torsions:
REMARK  status: ('A' for Active; 'I' for Inactive)
REMARK    1  A    between atoms: C_2  and  N_3
REMARK    2  A    between atoms: N_6  and  C_7
REMARK    3  A    between atoms: C_7  and  C_8
REMARK    4  A    between atoms: C_15  and  C_16
REMARK    5  A    between atoms: C_18  and  C_22
REMARK                            x       y       z     vdW  Elec       q    Type
REMARK                         _______ _______ _______ _____ _____    ______ ____
ROOT
ATOM      8  C   UNL     1      -0.146   1.011  23.873  0.00  0.00    +0.079 C 
ATOM      9  C   UNL     1      -0.471   1.479  24.402  0.00  0.00    +0.018 C 
ATOM     10  C   UNL     1      -1.239   1.738  24.395  0.00  0.00    +0.010 C 
ATOM     11  C   UNL     1      -1.418   2.270  25.094  0.00  0.00    +0.018 C 
ATOM     12  C   UNL     1      -1.046   1.888  24.717  0.00  0.00    +0.072 C 
ATOM     13  N   UNL     1      -0.927   1.279  23.872  0.00  0.00    -0.272 NA
ATOM     14  C   UNL     1      -1.622   1.132  23.300  0.00  0.00    +0.078 C 
ATOM     15  C   UNL     1      -1.903   1.592  23.840  0.00  0.00    +0.056 C 
ENDROOT
BRANCH  15  16
ATOM     16  C   UNL     1      -2.671   1.890  23.892  0.00  0.00    +0.058 A 
ATOM     17  C   UNL     1      -3.161   1.854  24.554  0.00  0.00    +0.031 A 
ATOM     18  C   UNL     1      -3.876   2.218  24.362  0.00  0.00    +0.079 A 
ATOM     19  N   UNL     1      -3.828   2.479  23.581  0.00  0.00    -0.174 NA
ATOM     20  N   UNL     1      -3.082   2.276  23.290  0.00  0.00    -0.253 N 
ATOM     21  C   UNL     1      -2.798   2.432  22.531  0.00  0.00    +0.153 C 
BRANCH  18  22
ATOM     22  C   UNL     1      -4.525   2.306  24.862  0.00  0.00    +0.042 C 
ATOM     23  C   UNL     1      -4.678   3.036  25.216  0.00  0.00    +0.006 C 
ATOM     24  C   UNL     1      -5.328   3.124  25.716  0.00  0.00    +0.000 C 
ATOM     25  C   UNL     1      -5.826   2.483  25.864  0.00  0.00    +0.000 C 
ATOM     26  C   UNL     1      -5.673   1.753  25.510  0.00  0.00    +0.000 C 
ATOM     27  C   UNL     1      -5.023   1.665  25.010  0.00  0.00    +0.006 C 
ENDBRANCH  18  22
ENDBRANCH  15  16
BRANCH   8   7
ATOM      7  C   UNL     1       0.485   0.583  23.558  0.00  0.00    +0.133 C 
BRANCH   7   6
ATOM      3  N   UNL     1       2.610   0.864  23.142  0.00  0.00    -0.187 NA
ATOM      4  C   UNL     1       1.849   0.544  23.132  0.00  0.00    +0.339 C 
ATOM      5  O   UNL     1       1.691  -0.133  22.688  0.00  0.00    -0.249 OA
ATOM      6  N   UNL     1       1.246   0.902  23.567  0.00  0.00    -0.186 NA
BRANCH   3   2
ATOM      1  C   UNL     1       3.982   0.800  22.747  0.00  0.00    +0.025 C 
ATOM      2  C   UNL     1       3.213   0.505  22.706  0.00  0.00    +0.117 C 
ENDBRANCH   3   2
ENDBRANCH   7   6
ENDBRANCH   8   7
TORSDOF 5
ENDMDL
MODEL 2
REMARK VINA RESULT:      -9.3      1.001      1.389
REMARK  Name = 
REMARK  5 active torsions:
REMARK  status: ('A' for Active; 'I' for Inactive)
REMARK    1  A    between atoms: C_2  and  N_3
REMARK    2  A    between atoms: N_6  and  C_7
REMARK    3  A    between atoms: C_7  and  C_8
REMARK    4  A    between atoms: C_15  and  C_16
REMARK    5  A    between atoms: C_18  and  C_22
REMARK                            x       y       z     vdW  Elec       q    Type
REMARK                         _______ _______ _______ _____ _____    ______ ____
ROOT
ATOM      8  C   UNL     1       0.278   0.155  23.446  0.00  0.00    +0.079 C 
ATOM      9  C   UNL     1      -0.229  -0.113  23.972  0.00  0.00    +0.018 C 
ATOM     10  C   UNL     1      -0.859   0.297  24.271  0.00  0.00    +0.010 C 
ATOM     11  C   UNL     1      -1.322  -0.189  24.866  0.00  0.00    +0.018 C 
ATOM     12  C   UNL     1      -0.844  -0.072  24.435  0.00  0.00    +0.072 C 
ATOM     13  N   UNL     1      -0.366   0.567  23.755  0.00  0.00    -0.272 NA
ATOM     14  C   UNL     1      -0.683   1.409  23.603  0.00  0.00    +0.078 C 
ATOM     15  C   UNL     1      -1.158   1.108  24.119  0.00  0.00    +0.056 C 
ENDROOT
BRANCH  15  16
ATOM     16  C   UNL     1      -1.816   1.470  24.463  0.00  0.00    +0.058 A 
ATOM     17  C   UNL     1      -2.605   1.273  24.325  0.00  0.00    +0.031 A 
ATOM     18  C   UNL     1      -3.075   1.773  24.781  0.00  0.00    +0.079 A 
ATOM     19  N   UNL     1      -2.578   2.279  25.202  0.00  0.00    -0.174 NA
ATOM     20  N   UNL     1      -1.798   2.092  25.005  0.00  0.00    -0.253 N 
ATOM     21  C   UNL     1      -1.121   2.461  25.298  0.00  0.00    +0.153 C 
BRANCH  18  22
ATOM     22  C   UNL     1      -3.900   1.769  24.813  0.00  0.00    +0.042 C 
ATOM     23  C   UNL     1      -4.329   2.387  24.473  0.00  0.00    +0.006 C 
ATOM     24  C   UNL     1      -5.153   2.382  24.504  0.00  0.00    +0.000 C 
ATOM     25  C   UNL     1      -5.549   1.761  24.875  0.00  0.00    +0.000 C 
ATOM     26  C   UNL     1      -5.120   1.143  25.215  0.00  0.00    +0.000 C 
ATOM     27  C   UNL     1      -4.296   1.147  25.183  0.00  0.00    +0.006 C 
ENDBRANCH  18  22
ENDBRANCH  15  16
BRANCH   8   7
ATOM      7  C   UNL     1       0.940   0.084  22.959  0.00  0.00    +0.133 C 
BRANCH   7   6
ATOM      3  N   UNL     1       3.087   0.476  23.032  0.00  0.00    -0.187 NA
ATOM      4  C   UNL     1       2.340   0.277  22.742  0.00  0.00    +0.339 C 
ATOM      5  O   UNL     1       2.246   0.074  21.949  0.00  0.00    -0.249 OA
ATOM      6  N   UNL     1       1.688   0.282  23.248  0.00  0.00    -0.186 NA
BRANCH   3   2
ATOM      1  C   UNL     1       4.499   0.566  22.833  0.00  0.00    +0.025 C 
ATOM      2  C   UNL     1       3.740   0.471  22.527  0.00  0.00    +0.117 C 
ENDBRANCH   3   2
ENDBRANCH   7   6
ENDBRANCH   8   7
TORSDOF 5
ENDMDL
MODEL 3
REMARK VINA RESULT:      -8.8      3.282      4.576
REMARK  Name = 
REMARK  5 active torsions:
REMARK  status: ('A' for Active; 'I' for Inactive)
REMARK    1  A    between atoms: C_2  and  N_3
REMARK    2  A    between atoms: N_6  and  C_7
REMARK    3  A    between atoms: C_7  and  C_8
REMARK    4  A    between atoms: C_15  and  C_16
REMARK    5  A    between atoms: C_18  and  C_22
REMARK                            x       y       z     vdW  Elec       q    Type
REMARK                         _______ _______ _______ _____ _____    ______ ____
ROOT
ATOM      8  C   UNL     1      -4.038   0.351  24.402  0.00  0.00    +0.079 C 
ATOM      9  C   UNL     1      -3.767   0.893  23.913  0.00  0.00    +0.018 C 
ATOM     10  C   UNL     1      -3.541   1.643  24.119  0.00  0.00    +0.010 C 
ATOM     11  C   UNL     1      -3.258   2.113  23.410  0.00  0.00    +0.018 C 
ATOM     12  C   UNL     1      -3.492   1.589  23.721  0.00  0.00    +0.072 C 
ATOM     13  N   UNL     1      -3.806   1.118  24.604  0.00  0.00    -0.272 NA
ATOM     14  C   UNL     1      -3.789   1.560  25.402  0.00  0.00    +0.078 C 
ATOM     15  C   UNL     1      -3.527   2.062  24.890  0.00  0.00    +0.056 C 
ENDROOT
BRANCH  15  16
ATOM     16  C   UNL     1      -3.282   2.838  25.032  0.00  0.00    +0.058 A 
ATOM     17  C   UNL     1      -2.538   3.149  24.863  0.00  0.00    +0.031 A 
ATOM     18  C   UNL     1      -2.534   3.941  25.095  0.00  0.00    +0.079 A 
ATOM     19  N   UNL     1      -3.277   4.119  25.407  0.00  0.00    -0.174 NA
ATOM     20  N   UNL     1      -3.740   3.436  25.368  0.00  0.00    -0.253 N 
ATOM     21  C   UNL     1      -4.522   3.365  25.621  0.00  0.00    +0.153 C 
BRANCH  18  22
ATOM     22  C   UNL     1      -1.900   4.464  25.027  0.00  0.00    +0.042 C 
ATOM     23  C   UNL     1      -2.032   5.278  25.054  0.00  0.00    +0.006 C 
ATOM     24  C   UNL     1      -1.398   5.801  24.986  0.00  0.00    +0.000 C 
ATOM     25  C   UNL     1      -0.632   5.511  24.890  0.00  0.00    +0.000 C 
ATOM     26  C   UNL     1      -0.500   4.696  24.863  0.00  0.00    +0.000 C 
ATOM     27  C   UNL     1      -1.134   4.173  24.931  0.00  0.00    +0.006 C 
ENDBRANCH  18  22
ENDBRANCH  15  16
BRANCH   8   7
ATOM      7  C   UNL     1      -4.328  -0.400  24.579  0.00  0.00    +0.133 C 
BRANCH   7   6
ATOM      3  N   UNL     1      -3.692  -2.414  24.028  0.00  0.00    -0.187 NA
ATOM      4  C   UNL     1      -3.918  -1.766  24.486  0.00  0.00    +0.339 C 
ATOM      5  O   UNL     1      -3.958  -1.835  25.307  0.00  0.00    -0.249 OA
ATOM      6  N   UNL     1      -4.102  -1.048  24.122  0.00  0.00    -0.186 NA
BRANCH   3   2
ATOM      1  C   UNL     1      -2.860  -3.571  24.132  0.00  0.00    +0.025 C 
ATOM      2  C   UNL     1      -3.507  -3.132  24.392  0.00  0.00    +0.117 C 
ENDBRANCH   3   2
ENDBRANCH   7   6
ENDBRANCH   8   7
TORSDOF 5
ENDMDL
