REMARK  Name = 
REMARK  6 active torsions:
REMARK  status: ('A' for Active; 'I' for Inactive)
REMARK    1  A    between atoms: O_2  and  C_3
REMARK    2  A    between atoms: C_3  and  C_5
REMARK    3  A    between atoms: C_5  and  O_6
REMARK    4  A    between atoms: O_6  and  C_7
REMARK    5  A    between atoms: C_11  and  N_15
REMARK    6  A    between atoms: C_18  and  C_22
REMARK                            x       y       z     vdW  Elec       q    Type
REMARK                         _______ _______ _______ _____ _____    ______ ____
ROOT
ATOM      7  C   UNL     1       1.270  -0.922   0.000  0.00  0.00    +0.175 C 
ATOM      8  C   UNL     1       0.785  -0.255   0.000  0.00  0.00    +0.174 C 
ATOM      9  O   UNL     1       1.270   0.412   0.000  0.00  0.00    -0.349 OA
ATOM     10  C   UNL     1       2.054   0.158   0.000  0.00  0.00    +0.167 C 
ATOM     11  C   UNL     1       2.839   0.412   0.000  0.00  0.00    +0.154 C 
ATOM     12  C   UNL     1       3.324  -0.255   0.000  0.00  0.00    +0.166 C 
ATOM     13  O   UNL     1       2.839  -0.922   0.000  0.00  0.00    -0.349 OA
ATOM     14  C   UNL     1       2.054  -0.667   0.000  0.00  0.00    +0.173 C 
ENDROOT
BRANCH  11  15
ATOM     15  N   UNL     1       3.094   1.197   0.000  0.00  0.00    -0.200 NA
ATOM     16  C   UNL     1       3.901   1.369   0.000  0.00  0.00    +0.237 A 
ATOM     17  N   UNL     1       4.156   2.153   0.000  0.00  0.00    -0.212 NA
ATOM     18  C   UNL     1       4.963   2.325   0.000  0.00  0.00    +0.086 A 
ATOM     19  C   UNL     1       5.515   1.712   0.000  0.00  0.00    +0.040 A 
ATOM     20  C   UNL     1       5.260   0.927   0.000  0.00  0.00    +0.103 A 
ATOM     21  N   UNL     1       4.453   0.756   0.000  0.00  0.00    -0.211 NA
BRANCH  18  22
ATOM     22  C   UNL     1       5.218   3.109   0.000  0.00  0.00    +0.020 A 
ATOM     23  C   UNL     1       4.665   3.723   0.000  0.00  0.00    +0.002 A 
ATOM     24  C   UNL     1       4.920   4.507   0.000  0.00  0.00    +0.002 A 
ATOM     25  C   UNL     1       5.727   4.679   0.000  0.00  0.00    +0.030 A 
ATOM     26  C   UNL     1       6.279   4.066   0.000  0.00  0.00    +0.140 A 
ATOM     27  F   UNL     1       7.086   4.237   0.000  0.00  0.00    -0.204 F 
ATOM     28  C   UNL     1       6.024   3.281   0.000  0.00  0.00    +0.031 A 
ENDBRANCH  18  22
ENDBRANCH  11  15
BRANCH   7   6
ATOM      6  O   UNL     1       1.015  -1.707   0.000  0.00  0.00    -0.340 OA
BRANCH   6   5
ATOM      5  C   UNL     1       0.208  -1.879   0.000  0.00  0.00    +0.252 C 
BRANCH   5   3
ATOM      3  C   UNL     1      -0.047  -2.663   0.000  0.00  0.00    +0.348 C 
ATOM      4  O   UNL     1       0.505  -3.276   0.000  0.00  0.00    -0.247 OA
BRANCH   3   2
ATOM      1  C   UNL     1      -1.109  -3.619   0.000  0.00  0.00    +0.256 C 
ATOM      2  O   UNL     1      -0.854  -2.835   0.000  0.00  0.00    -0.443 OA
ENDBRANCH   3   2
ENDBRANCH   5   3
ENDBRANCH   6   5
ENDBRANCH   7   6
TORSDOF 6
