MODEL 1
REMARK VINA RESULT:     -10.7      0.000      0.000
REMARK  Name = 
REMARK  10 active torsions:
REMARK  status: ('A' for Active; 'I' for Inactive)
REMARK    1  A    between atoms: O_2  and  C_3
REMARK    2  A    between atoms: C_8  and  C_9
REMARK    3  A    between atoms: C_9  and  C_10
REMARK    4  A    between atoms: C_12  and  C_13
REMARK    5  A    between atoms: C_16  and  C_17
REMARK    6  A    between atoms: C_17  and  N_18
REMARK    7  A    between atoms: C_19  and  C_21
REMARK    8  A    between atoms: C_21  and  C_22
REMARK    9  A    between atoms: C_22  and  C_23
REMARK   10  A    between atoms: C_23  and  C_24
REMARK                            x       y       z     vdW  Elec       q    Type
REMARK                         _______ _______ _______ _____ _____    ______ ____
ROOT
ATOM     10  C   UNL     1      -4.693   0.968  24.560  0.00  0.00    +0.026 C 
ATOM     11  C   UNL     1      -4.253   1.168  23.891  0.00  0.00    +0.005 C 
ATOM     12  C   UNL     1      -3.872   1.898  23.851  0.00  0.00    +0.006 C 
ATOM     16  C   UNL     1      -3.930   2.429  24.479  0.00  0.00    +0.043 C 
ATOM     31  C   UNL     1      -4.370   2.230  25.148  0.00  0.00    -0.033 C 
ATOM     32  C   UNL     1      -4.751   1.499  25.189  0.00  0.00    -0.048 C 
ATOM     33  C   UNL     1      -5.191   1.300  25.858  0.00  0.00    +0.026 C 
ENDROOT
BRANCH  12  13
ATOM     13  C   UNL     1      -3.432   2.098  23.182  0.00  0.00    +0.000 C 
ATOM     14  C   UNL     1      -2.700   1.743  23.048  0.00  0.00    +0.000 C 
ATOM     15  C   UNL     1      -3.725   2.654  22.646  0.00  0.00    +0.000 C 
ENDBRANCH  12  13
BRANCH  10   9
ATOM      9  C   UNL     1      -5.074   0.238  24.601  0.00  0.00    +0.070 C 
BRANCH   9   8
ATOM      3  C   UNL     1      -2.974  -2.621  24.617  0.00  0.00    +0.140 A 
ATOM      4  C   UNL     1      -3.108  -1.896  24.987  0.00  0.00    +0.058 A 
ATOM      5  C   UNL     1      -3.727  -1.412  24.736  0.00  0.00    +0.103 A 
ATOM      6  C   UNL     1      -4.213  -1.653  24.115  0.00  0.00    +0.100 A 
ATOM      7  N   UNL     1      -4.776  -1.065  23.988  0.00  0.00    -0.229 NA
ATOM      8  C   UNL     1      -4.639  -0.460  24.532  0.00  0.00    +0.139 A 
ATOM     34  N   UNL     1      -3.991  -0.675  24.993  0.00  0.00    -0.229 NA
ATOM     35  C   UNL     1      -4.079  -2.379  23.744  0.00  0.00    +0.024 A 
ATOM     36  C   UNL     1      -3.460  -2.862  23.995  0.00  0.00    +0.039 A 
BRANCH   3   2
ATOM      1  C   UNL     1      -1.578  -2.922  24.657  0.00  0.00    +0.252 C 
ATOM      2  O   UNL     1      -2.355  -3.104  24.867  0.00  0.00    -0.471 OA
ENDBRANCH   3   2
ENDBRANCH   9   8
ENDBRANCH  10   9
BRANCH  16  17
ATOM     17  C   UNL     1      -3.549   3.160  24.440  0.00  0.00    +0.119 C 
BRANCH  17  18
ATOM     18  N   UNL     1      -2.889   3.307  24.911  0.00  0.00    -0.205 NA
ATOM     19  C   UNL     1      -2.677   4.084  25.095  0.00  0.00    +0.241 C 
ATOM     20  O   UNL     1      -3.127   4.712  24.806  0.00  0.00    -0.273 OA
BRANCH  19  21
ATOM     21  C   UNL     1      -2.017   4.231  25.566  0.00  0.00    +0.087 C 
BRANCH  21  22
ATOM     22  C   UNL     1      -1.291   4.408  25.216  0.00  0.00    +0.019 C 
ATOM     27  C   UNL     1      -1.586   5.178  25.197  0.00  0.00    +0.001 C 
ATOM     28  C   UNL     1      -1.012   5.662  24.855  0.00  0.00    +0.000 C 
ATOM     29  C   UNL     1      -0.363   5.191  24.663  0.00  0.00    +0.000 C 
ATOM     30  C   UNL     1      -0.535   4.416  24.886  0.00  0.00    +0.001 C 
BRANCH  22  23
ATOM     23  C   UNL     1      -1.148   3.601  25.308  0.00  0.00    +0.115 C 
BRANCH  23  24
ATOM     24  C   UNL     1      -0.580   3.342  25.848  0.00  0.00    +0.365 C 
ATOM     25  O   UNL     1      -0.747   3.347  26.656  0.00  0.00    -0.246 OA
ATOM     26  O   UNL     1       0.153   3.077  25.579  0.00  0.00    -0.246 OA
ENDBRANCH  23  24
ENDBRANCH  22  23
ENDBRANCH  21  22
ENDBRANCH  19  21
ENDBRANCH  17  18
ENDBRANCH  16  17
TORSDOF 10
ENDMDL
MODEL 2
REMARK VINA RESULT:     -10.5      3.311      4.760
REMARK  Name = 
REMARK  10 active torsions:
REMARK  status: ('A' for Active; 'I' for Inactive)
REMARK    1  A    between atoms: O_2  and  C_3
REMARK    2  A    between atoms: C_8  and  C_9
REMARK    3  A    between atoms: C_9  and  C_10
REMARK    4  A    between atoms: C_12  and  C_13
REMARK    5  A    between atoms: C_16  and  C_17
REMARK    6  A    between atoms: C_17  and  N_18
REMARK    7  A    between atoms: C_19  and  C_21
REMARK    8  A    between atoms: C_21  and  C_22
REMARK    9  A    between atoms: C_22  and  C_23
REMARK   10  A    between atoms: C_23  and  C_24
REMARK                            x       y       z     vdW  Elec       q    Type
REMARK                         _______ _______ _______ _____ _____    ______ ____
ROOT
ATOM     10  C   UNL     1      -0.699   0.181  24.453  0.00  0.00    +0.026 C 
ATOM     11  C   UNL     1      -0.387   0.925  24.621  0.00  0.00    +0.005 C 
ATOM     12  C   UNL     1      -0.891   1.551  24.807  0.00  0.00    +0.006 C 
ATOM     16  C   UNL     1      -1.707   1.433  24.824  0.00  0.00    +0.043 C 
ATOM     31  C   UNL     1      -2.019   0.689  24.656  0.00  0.00    -0.033 C 
ATOM     32  C   UNL     1      -1.516   0.062  24.470  0.00  0.00    -0.048 C 
ATOM     33  C   UNL     1      -1.829  -0.683  24.302  0.00  0.00    +0.026 C 
ENDROOT
BRANCH  12  13
ATOM     13  C   UNL     1      -0.578   2.296  24.976  0.00  0.00    +0.000 C 
ATOM     14  C   UNL     1      -0.350   2.483  25.746  0.00  0.00    +0.000 C 
ATOM     15  C   UNL     1      -0.494   2.854  24.373  0.00  0.00    +0.000 C 
ENDBRANCH  12  13
BRANCH  10   9
ATOM      9  C   UNL     1      -0.196  -0.446  24.267  0.00  0.00    +0.070 C 
BRANCH   9   8
ATOM      3  C   UNL     1       2.713   0.137  22.324  0.00  0.00    +0.140 A 
ATOM      4  C   UNL     1       2.422   0.139  23.095  0.00  0.00    +0.058 A 
ATOM      5  C   UNL     1       1.634  -0.059  23.239  0.00  0.00    +0.103 A 
ATOM      6  C   UNL     1       1.137  -0.258  22.611  0.00  0.00    +0.100 A 
ATOM      7  N   UNL     1       0.392  -0.427  22.920  0.00  0.00    -0.229 NA
ATOM      8  C   UNL     1       0.427  -0.333  23.738  0.00  0.00    +0.139 A 
ATOM     34  N   UNL     1       1.195  -0.105  23.935  0.00  0.00    -0.229 NA
ATOM     35  C   UNL     1       1.429  -0.260  21.839  0.00  0.00    +0.024 A 
ATOM     36  C   UNL     1       2.217  -0.062  21.696  0.00  0.00    +0.039 A 
BRANCH   3   2
ATOM      1  C   UNL     1       3.894   0.857  22.683  0.00  0.00    +0.252 C 
ATOM      2  O   UNL     1       3.501   0.335  22.180  0.00  0.00    -0.471 OA
ENDBRANCH   3   2
ENDBRANCH   9   8
ENDBRANCH  10   9
BRANCH  16  17
ATOM     17  C   UNL     1      -2.211   2.060  25.010  0.00  0.00    +0.119 C 
BRANCH  17  18
ATOM     18  N   UNL     1      -2.992   2.052  24.747  0.00  0.00    -0.205 NA
ATOM     19  C   UNL     1      -3.551   2.547  25.100  0.00  0.00    +0.241 C 
ATOM     20  O   UNL     1      -3.328   3.049  25.715  0.00  0.00    -0.273 OA
BRANCH  19  21
ATOM     21  C   UNL     1      -4.333   2.540  24.837  0.00  0.00    +0.087 C 
BRANCH  21  22
ATOM     22  C   UNL     1      -4.911   2.959  25.249  0.00  0.00    +0.019 C 
ATOM     27  C   UNL     1      -4.610   3.609  24.838  0.00  0.00    +0.001 C 
ATOM     28  C   UNL     1      -5.039   4.275  25.064  0.00  0.00    +0.000 C 
ATOM     29  C   UNL     1      -5.606   4.039  25.614  0.00  0.00    +0.000 C 
ATOM     30  C   UNL     1      -5.527   3.226  25.728  0.00  0.00    +0.001 C 
BRANCH  22  23
ATOM     23  C   UNL     1      -5.092   2.224  25.573  0.00  0.00    +0.115 C 
BRANCH  23  24
ATOM     24  C   UNL     1      -5.828   1.879  25.430  0.00  0.00    +0.365 C 
ATOM     25  O   UNL     1      -6.066   1.720  24.657  0.00  0.00    -0.246 OA
ATOM     26  O   UNL     1      -6.326   1.695  26.062  0.00  0.00    -0.246 OA
ENDBRANCH  23  24
ENDBRANCH  22  23
ENDBRANCH  21  22
ENDBRANCH  19  21
ENDBRANCH  17  18
ENDBRANCH  16  17
TORSDOF 10
ENDMDL
MODEL 3
REMARK VINA RESULT:      -9.6      1.915      2.905
REMARK  Name = 
REMARK  10 active torsions:
REMARK  status: ('A' for Active; 'I' for Inactive)
REMARK    1  A    between atoms: O_2  and  C_3
REMARK    2  A    between atoms: C_8  and  C_9
REMARK    3  A    between atoms: C_9  and  C_10
REMARK    4  A    between atoms: C_12  and  C_13
REMARK    5  A    between atoms: C_16  and  C_17
REMARK    6  A    between atoms: C_17  and  N_18
REMARK    7  A    between atoms: C_19  and  C_21
REMARK    8  A    between atoms: C_21  and  C_22
REMARK    9  A    between atoms: C_22  and  C_23
REMARK   10  A    between atoms: C_23  and  C_24
REMARK                            x       y       z     vdW  Elec       q    Type
REMARK                         _______ _______ _______ _____ _____    ______ ____
ROOT
ATOM     10  C   UNL     1      -0.746  -0.552  25.317  0.00  0.00    +0.026 C 
ATOM     11  C   UNL     1      -0.566  -0.245  24.573  0.00  0.00    +0.005 C 
ATOM     12  C   UNL     1      -0.487   0.570  24.471  0.00  0.00    +0.006 C 
ATOM     16  C   UNL     1      -0.589   1.077  25.113  0.00  0.00    +0.043 C 
ATOM     31  C   UNL     1      -0.769   0.770  25.857  0.00  0.00    -0.033 C 
ATOM     32  C   UNL     1      -0.848  -0.044  25.960  0.00  0.00    -0.048 C 
ATOM     33  C   UNL     1      -1.029  -0.352  26.704  0.00  0.00    +0.026 C 
ENDROOT
BRANCH  12  13
ATOM     13  C   UNL     1      -0.306   0.877  23.727  0.00  0.00    +0.000 C 
ATOM     14  C   UNL     1      -0.912   1.113  23.220  0.00  0.00    +0.000 C 
ATOM     15  C   UNL     1       0.481   0.949  23.490  0.00  0.00    +0.000 C 
ENDBRANCH  12  13
BRANCH  10   9
ATOM      9  C   UNL     1      -0.825  -1.367  25.419  0.00  0.00    +0.070 C 
BRANCH   9   8
ATOM      3  C   UNL     1      -3.774  -2.815  24.080  0.00  0.00    +0.140 A 
ATOM      4  C   UNL     1      -3.495  -2.199  24.552  0.00  0.00    +0.058 A 
ATOM      5  C   UNL     1      -2.685  -2.119  24.691  0.00  0.00    +0.103 A 
ATOM      6  C   UNL     1      -2.155  -2.655  24.357  0.00  0.00    +0.100 A 
ATOM      7  N   UNL     1      -1.394  -2.439  24.589  0.00  0.00    -0.229 NA
ATOM      8  C   UNL     1      -1.453  -1.769  25.066  0.00  0.00    +0.139 A 
ATOM     34  N   UNL     1      -2.252  -1.572  25.129  0.00  0.00    -0.229 NA
ATOM     35  C   UNL     1      -2.434  -3.271  23.884  0.00  0.00    +0.024 A 
ATOM     36  C   UNL     1      -3.243  -3.351  23.746  0.00  0.00    +0.039 A 
BRANCH   3   2
ATOM      1  C   UNL     1      -4.996  -2.297  23.551  0.00  0.00    +0.252 C 
ATOM      2  O   UNL     1      -4.582  -2.894  23.942  0.00  0.00    -0.471 OA
ENDBRANCH   3   2
ENDBRANCH   9   8
ENDBRANCH  10   9
BRANCH  16  17
ATOM     17  C   UNL     1      -0.510   1.893  25.012  0.00  0.00    +0.119 C 
BRANCH  17  18
ATOM     18  N   UNL     1      -1.033   2.408  25.387  0.00  0.00    -0.205 NA
ATOM     19  C   UNL     1      -0.858   3.213  25.434  0.00  0.00    +0.241 C 
ATOM     20  O   UNL     1      -0.160   3.502  25.104  0.00  0.00    -0.273 OA
BRANCH  19  21
ATOM     21  C   UNL     1      -1.381   3.728  25.809  0.00  0.00    +0.087 C 
BRANCH  21  22
ATOM     22  C   UNL     1      -1.793   4.292  25.370  0.00  0.00    +0.019 C 
ATOM     27  C   UNL     1      -1.072   4.694  25.373  0.00  0.00    +0.001 C 
ATOM     28  C   UNL     1      -1.171   5.397  24.954  0.00  0.00    +0.000 C 
ATOM     29  C   UNL     1      -1.952   5.431  24.692  0.00  0.00    +0.000 C 
ATOM     30  C   UNL     1      -2.336   4.748  24.949  0.00  0.00    +0.001 C 
BRANCH  22  23
ATOM     23  C   UNL     1      -2.427   3.773  25.459  0.00  0.00    +0.115 C 
BRANCH  23  24
ATOM     24  C   UNL     1      -3.094   4.006  25.886  0.00  0.00    +0.365 C 
ATOM     25  O   UNL     1      -3.018   4.249  26.670  0.00  0.00    -0.246 OA
ATOM     26  O   UNL     1      -3.837   3.995  25.527  0.00  0.00    -0.246 OA
ENDBRANCH  23  24
ENDBRANCH  22  23
ENDBRANCH  21  22
ENDBRANCH  19  21
ENDBRANCH  17  18
ENDBRANCH  16  17
TORSDOF 10
ENDMDL
MODEL 4
REMARK VINA RESULT:      -9.4      4.054      6.281
REMARK  Name = 
REMARK  10 active torsions:
REMARK  status: ('A' for Active; 'I' for Inactive)
REMARK    1  A    between atoms: O_2  and  C_3
REMARK    2  A    between atoms: C_8  and  C_9
REMARK    3  A    between atoms: C_9  and  C_10
REMARK    4  A    between atoms: C_12  and  C_13
REMARK    5  A    between atoms: C_16  and  C_17
REMARK    6  A    between atoms: C_17  and  N_18
REMARK    7  A    between atoms: C_19  and  C_21
REMARK    8  A    between atoms: C_21  and  C_22
REMARK    9  A    between atoms: C_22  and  C_23
REMARK   10  A    between atoms: C_23  and  C_24
REMARK                            x       y       z     vdW  Elec       q    Type
REMARK                         _______ _______ _______ _____ _____    ______ ____
ROOT
ATOM     10  C   UNL     1       0.762   0.176  22.995  0.00  0.00    +0.026 C 
ATOM     11  C   UNL     1       0.691   0.888  23.405  0.00  0.00    +0.005 C 
ATOM     12  C   UNL     1       0.107   0.974  23.982  0.00  0.00    +0.006 C 
ATOM     16  C   UNL     1      -0.405   0.350  24.148  0.00  0.00    +0.043 C 
ATOM     31  C   UNL     1      -0.333  -0.362  23.738  0.00  0.00    -0.033 C 
ATOM     32  C   UNL     1       0.250  -0.450  23.161  0.00  0.00    -0.048 C 
ATOM     33  C   UNL     1       0.321  -1.162  22.751  0.00  0.00    +0.026 C 
ENDROOT
BRANCH  12  13
ATOM     13  C   UNL     1       0.036   1.687  24.392  0.00  0.00    +0.000 C 
ATOM     14  C   UNL     1      -0.392   2.311  24.064  0.00  0.00    +0.000 C 
ATOM     15  C   UNL     1       0.393   1.775  25.131  0.00  0.00    +0.000 C 
ENDBRANCH  12  13
BRANCH  10   9
ATOM      9  C   UNL     1       1.345   0.088  22.418  0.00  0.00    +0.070 C 
BRANCH   9   8
ATOM      3  C   UNL     1       4.738  -0.088  23.437  0.00  0.00    +0.140 A 
ATOM      4  C   UNL     1       4.038  -0.521  23.393  0.00  0.00    +0.058 A 
ATOM      5  C   UNL     1       3.358  -0.175  23.078  0.00  0.00    +0.103 A 
ATOM      6  C   UNL     1       3.379   0.605  22.809  0.00  0.00    +0.100 A 
ATOM      7  N   UNL     1       2.628   0.798  22.529  0.00  0.00    -0.229 NA
ATOM      8  C   UNL     1       2.142   0.138  22.625  0.00  0.00    +0.139 A 
ATOM     34  N   UNL     1       2.594  -0.463  22.964  0.00  0.00    -0.229 NA
ATOM     35  C   UNL     1       4.080   1.038  22.854  0.00  0.00    +0.024 A 
ATOM     36  C   UNL     1       4.759   0.692  23.168  0.00  0.00    +0.039 A 
BRANCH   3   2
ATOM      1  C   UNL     1       5.786  -0.099  24.409  0.00  0.00    +0.252 C 
ATOM      2  O   UNL     1       5.417  -0.434  23.751  0.00  0.00    -0.471 OA
ENDBRANCH   3   2
ENDBRANCH   9   8
ENDBRANCH  10   9
BRANCH  16  17
ATOM     17  C   UNL     1      -0.988   0.437  24.725  0.00  0.00    +0.119 C 
BRANCH  17  18
ATOM     18  N   UNL     1      -1.510  -0.182  24.881  0.00  0.00    -0.205 NA
ATOM     19  C   UNL     1      -2.236  -0.030  25.242  0.00  0.00    +0.241 C 
ATOM     20  O   UNL     1      -2.440   0.742  25.448  0.00  0.00    -0.273 OA
BRANCH  19  21
ATOM     21  C   UNL     1      -2.758  -0.649  25.398  0.00  0.00    +0.087 C 
BRANCH  21  22
ATOM     22  C   UNL     1      -3.430  -0.751  24.930  0.00  0.00    +0.019 C 
ATOM     27  C   UNL     1      -3.659  -0.027  25.255  0.00  0.00    +0.001 C 
ATOM     28  C   UNL     1      -4.395   0.172  24.941  0.00  0.00    +0.000 C 
ATOM     29  C   UNL     1      -4.621  -0.428  24.422  0.00  0.00    +0.000 C 
ATOM     30  C   UNL     1      -4.025  -0.998  24.416  0.00  0.00    +0.001 C 
BRANCH  22  23
ATOM     23  C   UNL     1      -3.061  -1.452  24.704  0.00  0.00    +0.115 C 
BRANCH  23  24
ATOM     24  C   UNL     1      -3.397  -2.179  24.905  0.00  0.00    +0.365 C 
ATOM     25  O   UNL     1      -3.624  -2.707  24.314  0.00  0.00    -0.246 OA
ATOM     26  O   UNL     1      -3.505  -2.376  25.699  0.00  0.00    -0.246 OA
ENDBRANCH  23  24
ENDBRANCH  22  23
ENDBRANCH  21  22
ENDBRANCH  19  21
ENDBRANCH  17  18
ENDBRANCH  16  17
TORSDOF 10
ENDMDL
MODEL 5
REMARK VINA RESULT:      -8.9      2.796      4.563
REMARK  Name = 
REMARK  10 active torsions:
REMARK  status: ('A' for Active; 'I' for Inactive)
REMARK    1  A    between atoms: O_2  and  C_3
REMARK    2  A    between atoms: C_8  and  C_9
REMARK    3  A    between atoms: C_9  and  C_10
REMARK    4  A    between atoms: C_12  and  C_13
REMARK    5  A    between atoms: C_16  and  C_17
REMARK    6  A    between atoms: C_17  and  N_18
REMARK    7  A    between atoms: C_19  and  C_21
REMARK    8  A    between atoms: C_21  and  C_22
REMARK    9  A    between atoms: C_22  and  C_23
REMARK   10  A    between atoms: C_23  and  C_24
REMARK                            x       y       z     vdW  Elec       q    Type
REMARK                         _______ _______ _______ _____ _____    ______ ____
ROOT
ATOM     10  C   UNL     1      -1.436  -0.771  24.976  0.00  0.00    +0.026 C 
ATOM     11  C   UNL     1      -2.001  -1.241  24.602  0.00  0.00    +0.005 C 
ATOM     12  C   UNL     1      -2.791  -1.004  24.589  0.00  0.00    +0.006 C 
ATOM     16  C   UNL     1      -3.017  -0.298  24.950  0.00  0.00    +0.043 C 
ATOM     31  C   UNL     1      -2.452   0.172  25.324  0.00  0.00    -0.033 C 
ATOM     32  C   UNL     1      -1.661  -0.063  25.338  0.00  0.00    -0.048 C 
ATOM     33  C   UNL     1      -1.096   0.407  25.713  0.00  0.00    +0.026 C 
ENDROOT
BRANCH  12  13
ATOM     13  C   UNL     1      -3.356  -1.474  24.214  0.00  0.00    +0.000 C 
ATOM     14  C   UNL     1      -3.672  -2.129  24.603  0.00  0.00    +0.000 C 
ATOM     15  C   UNL     1      -3.605  -1.289  23.449  0.00  0.00    +0.000 C 
ENDBRANCH  12  13
BRANCH  10   9
ATOM      9  C   UNL     1      -0.646  -1.006  24.990  0.00  0.00    +0.070 C 
BRANCH   9   8
ATOM      3  C   UNL     1       1.745   0.142  22.635  0.00  0.00    +0.140 A 
ATOM      4  C   UNL     1       1.533   0.174  23.431  0.00  0.00    +0.058 A 
ATOM      5  C   UNL     1       0.868  -0.234  23.698  0.00  0.00    +0.103 A 
ATOM      6  C   UNL     1       0.414  -0.674  23.167  0.00  0.00    +0.100 A 
ATOM      7  N   UNL     1      -0.208  -1.016  23.587  0.00  0.00    -0.229 NA
ATOM      8  C   UNL     1      -0.139  -0.789  24.376  0.00  0.00    +0.139 A 
ATOM     34  N   UNL     1       0.526  -0.306  24.444  0.00  0.00    -0.229 NA
ATOM     35  C   UNL     1       0.625  -0.705  22.370  0.00  0.00    +0.024 A 
ATOM     36  C   UNL     1       1.291  -0.297  22.104  0.00  0.00    +0.039 A 
BRANCH   3   2
ATOM      1  C   UNL     1       3.153   0.193  22.398  0.00  0.00    +0.252 C 
ATOM      2  O   UNL     1       2.410   0.550  22.368  0.00  0.00    -0.471 OA
ENDBRANCH   3   2
ENDBRANCH   9   8
ENDBRANCH  10   9
BRANCH  16  17
ATOM     17  C   UNL     1      -3.807  -0.061  24.937  0.00  0.00    +0.119 C 
BRANCH  17  18
ATOM     18  N   UNL     1      -4.007   0.697  24.681  0.00  0.00    -0.205 NA
ATOM     19  C   UNL     1      -4.661   1.083  25.004  0.00  0.00    +0.241 C 
ATOM     20  O   UNL     1      -5.115   0.710  25.583  0.00  0.00    -0.273 OA
BRANCH  19  21
ATOM     21  C   UNL     1      -4.860   1.841  24.749  0.00  0.00    +0.087 C 
BRANCH  21  22
ATOM     22  C   UNL     1      -5.221   2.371  25.268  0.00  0.00    +0.019 C 
ATOM     27  C   UNL     1      -5.912   1.970  25.060  0.00  0.00    +0.001 C 
ATOM     28  C   UNL     1      -6.539   2.312  25.472  0.00  0.00    +0.000 C 
ATOM     29  C   UNL     1      -6.236   2.924  25.934  0.00  0.00    +0.000 C 
ATOM     30  C   UNL     1      -5.422   2.961  25.808  0.00  0.00    +0.001 C 
BRANCH  22  23
ATOM     23  C   UNL     1      -4.456   2.661  25.368  0.00  0.00    +0.115 C 
BRANCH  23  24
ATOM     24  C   UNL     1      -4.271   3.428  25.127  0.00  0.00    +0.365 C 
ATOM     25  O   UNL     1      -4.347   3.642  24.334  0.00  0.00    -0.246 OA
ATOM     26  O   UNL     1      -4.010   3.982  25.680  0.00  0.00    -0.246 OA
ENDBRANCH  23  24
ENDBRANCH  22  23
ENDBRANCH  21  22
ENDBRANCH  19  21
ENDBRANCH  17  18
ENDBRANCH  16  17
TORSDOF 10
ENDMDL
MODEL 6
REMARK VINA RESULT:      -8.8      2.485      4.672
REMARK  Name = 
REMARK  10 active torsions:
REMARK  status: ('A' for Active; 'I' for Inactive)
REMARK    1  A    between atoms: O_2  and  C_3
REMARK    2  A    between atoms: C_8  and  C_9
REMARK    3  A    between atoms: C_9  and  C_10
REMARK    4  A    between atoms: C_12  and  C_13
REMARK    5  A    between atoms: C_16  and  C_17
REMARK    6  A    between atoms: C_17  and  N_18
REMARK    7  A    between atoms: C_19  and  C_21
REMARK    8  A    between atoms: C_21  and  C_22
REMARK    9  A    between atoms: C_22  and  C_23
REMARK   10  A    between atoms: C_23  and  C_24
REMARK                            x       y       z     vdW  Elec       q    Type
REMARK                         _______ _______ _______ _____ _____    ______ ____
ROOT
ATOM     10  C   UNL     1      -2.861   3.009  23.792  0.00  0.00    +0.026 C 
ATOM     11  C   UNL     1      -2.458   3.364  24.418  0.00  0.00    +0.005 C 
ATOM     12  C   UNL     1      -1.673   3.159  24.571  0.00  0.00    +0.006 C 
ATOM     16  C   UNL     1      -1.293   2.599  24.100  0.00  0.00    +0.043 C 
ATOM     31  C   UNL     1      -1.697   2.244  23.475  0.00  0.00    -0.033 C 
ATOM     32  C   UNL     1      -2.481   2.448  23.320  0.00  0.00    -0.048 C 
ATOM     33  C   UNL     1      -2.885   2.092  22.695  0.00  0.00    +0.026 C 
ENDROOT
BRANCH  12  13
ATOM     13  C   UNL     1      -1.269   3.515  25.196  0.00  0.00    +0.000 C 
ATOM     14  C   UNL     1      -0.852   4.216  25.073  0.00  0.00    +0.000 C 
ATOM     15  C   UNL     1      -1.282   3.169  25.946  0.00  0.00    +0.000 C 
ENDBRANCH  12  13
BRANCH  10   9
ATOM      9  C   UNL     1      -3.646   3.213  23.638  0.00  0.00    +0.070 C 
BRANCH   9   8
ATOM      3  C   UNL     1      -6.156   2.119  25.892  0.00  0.00    +0.140 A 
ATOM      4  C   UNL     1      -5.653   1.867  25.290  0.00  0.00    +0.058 A 
ATOM      5  C   UNL     1      -5.140   2.402  24.929  0.00  0.00    +0.103 A 
ATOM      6  C   UNL     1      -5.130   3.191  25.171  0.00  0.00    +0.100 A 
ATOM      7  N   UNL     1      -4.570   3.591  24.717  0.00  0.00    -0.229 NA
ATOM      8  C   UNL     1      -4.232   3.049  24.194  0.00  0.00    +0.139 A 
ATOM     34  N   UNL     1      -4.585   2.315  24.326  0.00  0.00    -0.229 NA
ATOM     35  C   UNL     1      -5.634   3.444  25.774  0.00  0.00    +0.024 A 
ATOM     36  C   UNL     1      -6.147   2.907  26.134  0.00  0.00    +0.039 A 
BRANCH   3   2
ATOM      1  C   UNL     1      -6.588   1.411  27.056  0.00  0.00    +0.252 C 
ATOM      2  O   UNL     1      -6.668   1.583  26.253  0.00  0.00    -0.471 OA
ENDBRANCH   3   2
ENDBRANCH   9   8
ENDBRANCH  10   9
BRANCH  16  17
ATOM     17  C   UNL     1      -0.509   2.394  24.254  0.00  0.00    +0.119 C 
BRANCH  17  18
ATOM     18  N   UNL     1      -0.292   1.601  24.307  0.00  0.00    -0.205 NA
ATOM     19  C   UNL     1       0.481   1.370  24.132  0.00  0.00    +0.241 C 
ATOM     20  O   UNL     1       1.037   1.935  23.904  0.00  0.00    -0.273 OA
BRANCH  19  21
ATOM     21  C   UNL     1       0.697   0.577  24.185  0.00  0.00    +0.087 C 
BRANCH  21  22
ATOM     22  C   UNL     1       0.769   0.121  23.501  0.00  0.00    +0.019 C 
ATOM     27  C   UNL     1       1.498   0.501  23.429  0.00  0.00    +0.001 C 
ATOM     28  C   UNL     1       1.865   0.220  22.746  0.00  0.00    +0.000 C 
ATOM     29  C   UNL     1       1.363  -0.332  22.395  0.00  0.00    +0.000 C 
ATOM     30  C   UNL     1       0.686  -0.393  22.862  0.00  0.00    +0.001 C 
BRANCH  22  23
ATOM     23  C   UNL     1       0.026  -0.163  23.716  0.00  0.00    +0.115 C 
BRANCH  23  24
ATOM     24  C   UNL     1      -0.056  -0.935  23.996  0.00  0.00    +0.365 C 
ATOM     25  O   UNL     1       0.377  -1.184  24.653  0.00  0.00    -0.246 OA
ATOM     26  O   UNL     1      -0.570  -1.459  23.618  0.00  0.00    -0.246 OA
ENDBRANCH  23  24
ENDBRANCH  22  23
ENDBRANCH  21  22
ENDBRANCH  19  21
ENDBRANCH  17  18
ENDBRANCH  16  17
TORSDOF 10
ENDMDL
MODEL 7
REMARK VINA RESULT:      -8.4     14.185     16.678
REMARK  Name = 
REMARK  10 active torsions:
REMARK  status: ('A' for Active; 'I' for Inactive)
REMARK    1  A    between atoms: O_2  and  C_3
REMARK    2  A    between atoms: C_8  and  C_9
REMARK    3  A    between atoms: C_9  and  C_10
REMARK    4  A    between atoms: C_12  and  C_13
REMARK    5  A    between atoms: C_16  and  C_17
REMARK    6  A    between atoms: C_17  and  N_18
REMARK    7  A    between atoms: C_19  and  C_21
REMARK    8  A    between atoms: C_21  and  C_22
REMARK    9  A    between atoms: C_22  and  C_23
REMARK   10  A    between atoms: C_23  and  C_24
REMARK                            x       y       z     vdW  Elec       q    Type
REMARK                         _______ _______ _______ _____ _____    ______ ____
ROOT
ATOM     10  C   UNL     1      -6.536 -10.271  15.187  0.00  0.00    +0.026 C 
ATOM     11  C   UNL     1      -7.105 -10.240  14.590  0.00  0.00    +0.005 C 
ATOM     12  C   UNL     1      -6.876 -10.096  13.810  0.00  0.00    +0.006 C 
ATOM     16  C   UNL     1      -6.080  -9.983  13.627  0.00  0.00    +0.043 C 
ATOM     31  C   UNL     1      -5.512 -10.013  14.224  0.00  0.00    -0.033 C 
ATOM     32  C   UNL     1      -5.739 -10.158  15.004  0.00  0.00    -0.048 C 
ATOM     33  C   UNL     1      -5.170 -10.188  15.601  0.00  0.00    +0.026 C 
ENDROOT
BRANCH  12  13
ATOM     13  C   UNL     1      -7.444 -10.065  13.213  0.00  0.00    +0.000 C 
ATOM     14  C   UNL     1      -7.701 -10.760  12.851  0.00  0.00    +0.000 C 
ATOM     15  C   UNL     1      -7.757  -9.338  12.978  0.00  0.00    +0.000 C 
ENDBRANCH  12  13
BRANCH  10   9
ATOM      9  C   UNL     1      -6.763 -10.415  15.967  0.00  0.00    +0.070 C 
BRANCH   9   8
ATOM      3  C   UNL     1      -9.481  -8.557  17.286  0.00  0.00    +0.140 A 
ATOM      4  C   UNL     1      -8.693  -8.499  17.051  0.00  0.00    +0.058 A 
ATOM      5  C   UNL     1      -8.298  -9.164  16.762  0.00  0.00    +0.103 A 
ATOM      6  C   UNL     1      -8.693  -9.886  16.708  0.00  0.00    +0.100 A 
ATOM      7  N   UNL     1      -8.166 -10.443  16.404  0.00  0.00    -0.229 NA
ATOM      8  C   UNL     1      -7.446 -10.065  16.269  0.00  0.00    +0.139 A 
ATOM     34  N   UNL     1      -7.528  -9.274  16.491  0.00  0.00    -0.229 NA
ATOM     35  C   UNL     1      -9.482  -9.944  16.944  0.00  0.00    +0.024 A 
ATOM     36  C   UNL     1      -9.876  -9.279  17.233  0.00  0.00    +0.039 A 
BRANCH   3   2
ATOM      1  C   UNL     1     -10.363  -7.452  17.077  0.00  0.00    +0.252 C 
ATOM      2  O   UNL     1      -9.875  -7.892  17.575  0.00  0.00    -0.471 OA
ENDBRANCH   3   2
ENDBRANCH   9   8
ENDBRANCH  10   9
BRANCH  16  17
ATOM     17  C   UNL     1      -5.851  -9.838  12.848  0.00  0.00    +0.119 C 
BRANCH  17  18
ATOM     18  N   UNL     1      -5.178 -10.201  12.541  0.00  0.00    -0.205 NA
ATOM     19  C   UNL     1      -4.814  -9.895  11.867  0.00  0.00    +0.241 C 
ATOM     20  O   UNL     1      -5.125  -9.225  11.500  0.00  0.00    -0.273 OA
BRANCH  19  21
ATOM     21  C   UNL     1      -4.140 -10.258  11.560  0.00  0.00    +0.087 C 
BRANCH  21  22
ATOM     22  C   UNL     1      -3.915 -10.118  10.779  0.00  0.00    +0.019 C 
ATOM     27  C   UNL     1      -4.512 -10.660  10.602  0.00  0.00    +0.001 C 
ATOM     28  C   UNL     1      -4.541 -10.749   9.782  0.00  0.00    +0.000 C 
ATOM     29  C   UNL     1      -3.963 -10.263   9.453  0.00  0.00    +0.000 C 
ATOM     30  C   UNL     1      -3.576  -9.873  10.068  0.00  0.00    +0.001 C 
BRANCH  22  23
ATOM     23  C   UNL     1      -3.366  -9.606  11.118  0.00  0.00    +0.115 C 
BRANCH  23  24
ATOM     24  C   UNL     1      -2.564  -9.804  11.121  0.00  0.00    +0.365 C 
ATOM     25  O   UNL     1      -2.307 -10.478  11.522  0.00  0.00    -0.246 OA
ATOM     26  O   UNL     1      -2.021  -9.328  10.723  0.00  0.00    -0.246 OA
ENDBRANCH  23  24
ENDBRANCH  22  23
ENDBRANCH  21  22
ENDBRANCH  19  21
ENDBRANCH  17  18
ENDBRANCH  16  17
TORSDOF 10
ENDMDL
