MODEL 1
REMARK VINA RESULT:     -10.7      0.000      0.000
REMARK  Name = 
REMARK  2 active torsions:
REMARK  status: ('A' for Active; 'I' for Inactive)
REMARK    1  A    between atoms: C_7  and  C_8
REMARK    2  A    between atoms: C_10  and  C_13
REMARK                            x       y       z     vdW  Elec       q    Type
REMARK                         _______ _______ _______ _____ _____    ______ ____
ROOT
ATOM      8  C   UNL     1      -4.165   1.378  24.634  0.00  0.00    +0.251 A 
ATOM      9  N   UNL     1      -4.207   0.623  24.966  0.00  0.00    -0.190 NA
ATOM     10  C   UNL     1      -3.883   0.089  24.427  0.00  0.00    +0.203 A 
ATOM     11  N   UNL     1      -3.640   0.513  23.763  0.00  0.00    -0.056 NA
ATOM     12  O   UNL     1      -3.814   1.309  23.891  0.00  0.00    -0.336 OA
ENDROOT
BRANCH   8   7
ATOM      1  C   UNL     1      -3.138   2.773  25.097  0.00  0.00    +0.090 C 
ATOM      2  N   UNL     1      -3.955   2.718  25.198  0.00  0.00    -0.263 NA
ATOM      3  C   UNL     1      -4.442   3.295  25.529  0.00  0.00    +0.106 C 
ATOM      4  C   UNL     1      -5.216   3.010  25.521  0.00  0.00    +0.170 C 
ATOM      5  O   UNL     1      -5.882   3.408  25.800  0.00  0.00    -0.222 OA
ATOM      6  C   UNL     1      -5.206   2.257  25.185  0.00  0.00    +0.060 C 
ATOM      7  C   UNL     1      -4.426   2.076  24.985  0.00  0.00    +0.140 C 
ENDBRANCH   8   7
BRANCH  10  13
ATOM     13  C   UNL     1      -3.814  -0.726  24.533  0.00  0.00    +0.039 A 
ATOM     14  C   UNL     1      -3.446  -1.024  25.209  0.00  0.00    +0.003 A 
ATOM     15  C   UNL     1      -3.377  -1.839  25.316  0.00  0.00    +0.000 A 
ATOM     16  C   UNL     1      -3.677  -2.356  24.747  0.00  0.00    +0.000 A 
ATOM     17  C   UNL     1      -4.045  -2.059  24.072  0.00  0.00    +0.000 A 
ATOM     18  C   UNL     1      -4.114  -1.244  23.965  0.00  0.00    +0.003 A 
ENDBRANCH  10  13
TORSDOF 2
ENDMDL
MODEL 2
REMARK VINA RESULT:     -10.4      1.262      1.555
REMARK  Name = 
REMARK  2 active torsions:
REMARK  status: ('A' for Active; 'I' for Inactive)
REMARK    1  A    between atoms: C_7  and  C_8
REMARK    2  A    between atoms: C_10  and  C_13
REMARK                            x       y       z     vdW  Elec       q    Type
REMARK                         _______ _______ _______ _____ _____    ______ ____
ROOT
ATOM      8  C   UNL     1      -3.832   0.940  24.707  0.00  0.00    +0.251 A 
ATOM      9  N   UNL     1      -3.621   0.230  24.343  0.00  0.00    -0.190 NA
ATOM     10  C   UNL     1      -3.954  -0.388  24.777  0.00  0.00    +0.203 A 
ATOM     11  N   UNL     1      -4.371  -0.059  25.408  0.00  0.00    -0.056 NA
ATOM     12  O   UNL     1      -4.296   0.760  25.365  0.00  0.00    -0.336 OA
ENDROOT
BRANCH   8   7
ATOM      1  C   UNL     1      -2.249   1.734  24.988  0.00  0.00    +0.090 C 
ATOM      2  N   UNL     1      -2.890   2.061  24.585  0.00  0.00    -0.263 NA
ATOM      3  C   UNL     1      -2.915   2.810  24.240  0.00  0.00    +0.106 C 
ATOM      4  C   UNL     1      -3.659   2.908  23.897  0.00  0.00    +0.170 C 
ATOM      5  O   UNL     1      -3.922   3.576  23.493  0.00  0.00    -0.222 OA
ATOM      6  C   UNL     1      -4.094   2.219  24.030  0.00  0.00    +0.060 C 
ATOM      7  C   UNL     1      -3.618   1.695  24.455  0.00  0.00    +0.140 C 
ENDBRANCH   8   7
BRANCH  10  13
ATOM     13  C   UNL     1      -3.882  -1.192  24.609  0.00  0.00    +0.039 A 
ATOM     14  C   UNL     1      -4.268  -1.513  23.955  0.00  0.00    +0.003 A 
ATOM     15  C   UNL     1      -4.197  -2.318  23.787  0.00  0.00    +0.000 A 
ATOM     16  C   UNL     1      -3.739  -2.801  24.273  0.00  0.00    +0.000 A 
ATOM     17  C   UNL     1      -3.352  -2.481  24.928  0.00  0.00    +0.000 A 
ATOM     18  C   UNL     1      -3.424  -1.676  25.096  0.00  0.00    +0.003 A 
ENDBRANCH  10  13
TORSDOF 2
ENDMDL
MODEL 3
REMARK VINA RESULT:      -9.9      1.271      4.004
REMARK  Name = 
REMARK  2 active torsions:
REMARK  status: ('A' for Active; 'I' for Inactive)
REMARK    1  A    between atoms: C_7  and  C_8
REMARK    2  A    between atoms: C_10  and  C_13
REMARK                            x       y       z     vdW  Elec       q    Type
REMARK                         _______ _______ _______ _____ _____    ______ ____
ROOT
ATOM      8  C   UNL     1      -3.794  -0.164  24.398  0.00  0.00    +0.251 A 
ATOM      9  N   UNL     1      -4.287   0.304  24.867  0.00  0.00    -0.190 NA
ATOM     10  C   UNL     1      -4.256   1.076  24.577  0.00  0.00    +0.203 A 
ATOM     11  N   UNL     1      -3.744   1.085  23.931  0.00  0.00    -0.056 NA
ATOM     12  O   UNL     1      -3.459   0.320  23.820  0.00  0.00    -0.336 OA
ENDROOT
BRANCH   8   7
ATOM      1  C   UNL     1      -2.584  -0.912  25.491  0.00  0.00    +0.090 C 
ATOM      2  N   UNL     1      -3.104  -1.316  24.994  0.00  0.00    -0.263 NA
ATOM      3  C   UNL     1      -3.158  -2.135  24.914  0.00  0.00    +0.106 C 
ATOM      4  C   UNL     1      -3.749  -2.297  24.360  0.00  0.00    +0.170 C 
ATOM      5  O   UNL     1      -3.987  -3.047  24.112  0.00  0.00    -0.222 OA
ATOM      6  C   UNL     1      -4.059  -1.579  24.100  0.00  0.00    +0.060 C 
ATOM      7  C   UNL     1      -3.660  -0.972  24.492  0.00  0.00    +0.140 C 
ENDBRANCH   8   7
BRANCH  10  13
ATOM     13  C   UNL     1      -4.666   1.724  24.882  0.00  0.00    +0.039 A 
ATOM     14  C   UNL     1      -4.263   2.425  25.047  0.00  0.00    +0.003 A 
ATOM     15  C   UNL     1      -4.673   3.074  25.352  0.00  0.00    +0.000 A 
ATOM     16  C   UNL     1      -5.484   3.021  25.490  0.00  0.00    +0.000 A 
ATOM     17  C   UNL     1      -5.887   2.320  25.325  0.00  0.00    +0.000 A 
ATOM     18  C   UNL     1      -5.477   1.672  25.021  0.00  0.00    +0.003 A 
ENDBRANCH  10  13
TORSDOF 2
ENDMDL
