MODEL 1
REMARK VINA RESULT:      -8.8      0.000      0.000
REMARK  Name = 
REMARK  6 active torsions:
REMARK  status: ('A' for Active; 'I' for Inactive)
REMARK    1  A    between atoms: N_3  and  C_4
REMARK    2  A    between atoms: C_4  and  C_5
REMARK    3  A    between atoms: N_11  and  C_12
REMARK    4  A    between atoms: C_16  and  O_20
REMARK    5  A    between atoms: O_20  and  C_21
REMARK    6  A    between atoms: C_21  and  C_22
REMARK                            x       y       z     vdW  Elec       q    Type
REMARK                         _______ _______ _______ _____ _____    ______ ____
ROOT
ATOM     12  C   UNL     1      -0.721   1.403  24.338  0.00  0.00    +0.156 C 
ATOM     13  C   UNL     1      -0.280   2.062  24.563  0.00  0.00    +0.166 C 
ATOM     14  O   UNL     1       0.491   1.958  24.288  0.00  0.00    -0.349 OA
ATOM     15  C   UNL     1       0.526   1.235  23.894  0.00  0.00    +0.173 C 
ATOM     16  C   UNL     1       1.023   0.722  23.480  0.00  0.00    +0.175 C 
ATOM     17  C   UNL     1       0.581   0.063  23.256  0.00  0.00    +0.174 C 
ATOM     18  O   UNL     1      -0.189   0.167  23.531  0.00  0.00    -0.349 OA
ATOM     19  C   UNL     1      -0.224   0.891  23.925  0.00  0.00    +0.167 C 
ENDROOT
BRANCH  12  11
ATOM      1  O   UNL     1      -1.791   2.655  24.235  0.00  0.00    -0.249 OA
ATOM      2  C   UNL     1      -2.056   1.903  24.448  0.00  0.00    +0.340 C 
ATOM      3  N   UNL     1      -2.855   1.777  24.609  0.00  0.00    -0.182 NA
ATOM     11  N   UNL     1      -1.521   1.277  24.500  0.00  0.00    -0.184 NA
BRANCH   3   4
ATOM      4  C   UNL     1      -3.390   2.403  24.557  0.00  0.00    +0.143 C 
BRANCH   4   5
ATOM      5  C   UNL     1      -4.165   2.307  24.823  0.00  0.00    -0.001 A 
ATOM      6  C   UNL     1      -4.508   2.880  25.307  0.00  0.00    -0.003 A 
ATOM      7  C   UNL     1      -5.283   2.785  25.574  0.00  0.00    -0.000 A 
ATOM      8  C   UNL     1      -5.715   2.116  25.356  0.00  0.00    -0.000 A 
ATOM      9  C   UNL     1      -5.371   1.543  24.872  0.00  0.00    -0.000 A 
ATOM     10  C   UNL     1      -4.596   1.639  24.606  0.00  0.00    -0.003 A 
ENDBRANCH   4   5
ENDBRANCH   3   4
ENDBRANCH  12  11
BRANCH  16  20
ATOM     20  O   UNL     1       1.822   0.848  23.319  0.00  0.00    -0.346 OA
BRANCH  20  21
ATOM     21  C   UNL     1       2.265   0.261  22.946  0.00  0.00    +0.169 C 
BRANCH  21  22
ATOM     22  C   UNL     1       3.090   0.302  22.948  0.00  0.00    +0.007 A 
ATOM     23  C   UNL     1       3.470   0.966  22.640  0.00  0.00    -0.002 A 
ATOM     24  C   UNL     1       4.294   1.008  22.641  0.00  0.00    -0.000 A 
ATOM     25  C   UNL     1       4.738   0.384  22.951  0.00  0.00    -0.000 A 
ATOM     26  C   UNL     1       4.357  -0.279  23.259  0.00  0.00    -0.000 A 
ATOM     27  C   UNL     1       3.533  -0.321  23.257  0.00  0.00    -0.002 A 
ENDBRANCH  21  22
ENDBRANCH  20  21
ENDBRANCH  16  20
TORSDOF 6
ENDMDL
MODEL 2
REMARK VINA RESULT:      -8.7      0.963      6.850
REMARK  Name = 
REMARK  6 active torsions:
REMARK  status: ('A' for Active; 'I' for Inactive)
REMARK    1  A    between atoms: N_3  and  C_4
REMARK    2  A    between atoms: C_4  and  C_5
REMARK    3  A    between atoms: N_11  and  C_12
REMARK    4  A    between atoms: C_16  and  O_20
REMARK    5  A    between atoms: O_20  and  C_21
REMARK    6  A    between atoms: C_21  and  C_22
REMARK                            x       y       z     vdW  Elec       q    Type
REMARK                         _______ _______ _______ _____ _____    ______ ____
ROOT
ATOM     12  C   UNL     1      -0.264   1.130  24.092  0.00  0.00    +0.156 C 
ATOM     13  C   UNL     1      -0.621   0.395  24.202  0.00  0.00    +0.166 C 
ATOM     14  O   UNL     1      -1.425   0.521  24.341  0.00  0.00    -0.349 OA
ATOM     15  C   UNL     1      -1.564   1.333  24.317  0.00  0.00    +0.173 C 
ATOM     16  C   UNL     1      -2.146   1.913  24.388  0.00  0.00    +0.175 C 
ATOM     17  C   UNL     1      -1.789   2.649  24.278  0.00  0.00    +0.174 C 
ATOM     18  O   UNL     1      -0.986   2.523  24.139  0.00  0.00    -0.349 OA
ATOM     19  C   UNL     1      -0.846   1.710  24.163  0.00  0.00    +0.167 C 
ENDROOT
BRANCH  12  11
ATOM      1  O   UNL     1       0.600   0.031  23.216  0.00  0.00    -0.249 OA
ATOM      2  C   UNL     1       0.968   0.713  23.500  0.00  0.00    +0.340 C 
ATOM      3  N   UNL     1       1.768   0.845  23.347  0.00  0.00    -0.182 NA
ATOM     11  N   UNL     1       0.536   1.263  23.938  0.00  0.00    -0.184 NA
BRANCH   3   4
ATOM      4  C   UNL     1       2.200   0.296  22.909  0.00  0.00    +0.143 C 
BRANCH   4   5
ATOM      5  C   UNL     1       3.024   0.319  22.915  0.00  0.00    -0.001 A 
ATOM      6  C   UNL     1       3.420   0.986  22.631  0.00  0.00    -0.003 A 
ATOM      7  C   UNL     1       4.245   1.010  22.638  0.00  0.00    -0.000 A 
ATOM      8  C   UNL     1       4.674   0.368  22.927  0.00  0.00    -0.000 A 
ATOM      9  C   UNL     1       4.278  -0.299  23.211  0.00  0.00    -0.000 A 
ATOM     10  C   UNL     1       3.454  -0.323  23.205  0.00  0.00    -0.003 A 
ENDBRANCH   4   5
ENDBRANCH   3   4
ENDBRANCH  12  11
BRANCH  16  20
ATOM     20  O   UNL     1      -2.946   1.781  24.542  0.00  0.00    -0.346 OA
BRANCH  20  21
ATOM     21  C   UNL     1      -3.477   2.412  24.534  0.00  0.00    +0.169 C 
BRANCH  21  22
ATOM     22  C   UNL     1      -4.245   2.309  24.820  0.00  0.00    +0.007 A 
ATOM     23  C   UNL     1      -4.685   1.651  24.590  0.00  0.00    -0.002 A 
ATOM     24  C   UNL     1      -5.453   1.547  24.875  0.00  0.00    -0.000 A 
ATOM     25  C   UNL     1      -5.779   2.103  25.391  0.00  0.00    -0.000 A 
ATOM     26  C   UNL     1      -5.338   2.761  25.620  0.00  0.00    -0.000 A 
ATOM     27  C   UNL     1      -4.570   2.864  25.335  0.00  0.00    -0.002 A 
ENDBRANCH  21  22
ENDBRANCH  20  21
ENDBRANCH  16  20
TORSDOF 6
ENDMDL
MODEL 3
REMARK VINA RESULT:      -8.4      1.947      2.392
REMARK  Name = 
REMARK  6 active torsions:
REMARK  status: ('A' for Active; 'I' for Inactive)
REMARK    1  A    between atoms: N_3  and  C_4
REMARK    2  A    between atoms: C_4  and  C_5
REMARK    3  A    between atoms: N_11  and  C_12
REMARK    4  A    between atoms: C_16  and  O_20
REMARK    5  A    between atoms: O_20  and  C_21
REMARK    6  A    between atoms: C_21  and  C_22
REMARK                            x       y       z     vdW  Elec       q    Type
REMARK                         _______ _______ _______ _____ _____    ______ ____
ROOT
ATOM     12  C   UNL     1       0.094   0.655  23.619  0.00  0.00    +0.156 C 
ATOM     13  C   UNL     1       0.403   1.190  24.165  0.00  0.00    +0.166 C 
ATOM     14  O   UNL     1       1.220   1.221  24.056  0.00  0.00    -0.349 OA
ATOM     15  C   UNL     1       1.416   0.706  23.444  0.00  0.00    +0.173 C 
ATOM     16  C   UNL     1       2.041   0.406  22.997  0.00  0.00    +0.175 C 
ATOM     17  C   UNL     1       1.732  -0.129  22.451  0.00  0.00    +0.174 C 
ATOM     18  O   UNL     1       0.915  -0.160  22.560  0.00  0.00    -0.349 OA
ATOM     19  C   UNL     1       0.720   0.356  23.173  0.00  0.00    +0.167 C 
ENDROOT
BRANCH  12  11
ATOM      1  O   UNL     1      -0.714  -0.062  24.866  0.00  0.00    -0.249 OA
ATOM      2  C   UNL     1      -1.106   0.096  24.157  0.00  0.00    +0.340 C 
ATOM      3  N   UNL     1      -1.902  -0.105  24.073  0.00  0.00    -0.182 NA
ATOM     11  N   UNL     1      -0.702   0.454  23.534  0.00  0.00    -0.184 NA
BRANCH   3   4
ATOM      4  C   UNL     1      -2.306  -0.464  24.696  0.00  0.00    +0.143 C 
BRANCH   4   5
ATOM      5  C   UNL     1      -2.977  -0.919  24.546  0.00  0.00    -0.001 A 
ATOM      6  C   UNL     1      -3.673  -0.556  24.293  0.00  0.00    -0.003 A 
ATOM      7  C   UNL     1      -4.345  -1.012  24.142  0.00  0.00    -0.000 A 
ATOM      8  C   UNL     1      -4.320  -1.830  24.244  0.00  0.00    -0.000 A 
ATOM      9  C   UNL     1      -3.622  -2.193  24.497  0.00  0.00    -0.000 A 
ATOM     10  C   UNL     1      -2.952  -1.737  24.647  0.00  0.00    -0.003 A 
ENDBRANCH   4   5
ENDBRANCH   3   4
ENDBRANCH  12  11
BRANCH  16  20
ATOM     20  O   UNL     1       2.837   0.607  23.082  0.00  0.00    -0.346 OA
BRANCH  20  21
ATOM     21  C   UNL     1       3.422   0.110  22.781  0.00  0.00    +0.169 C 
BRANCH  21  22
ATOM     22  C   UNL     1       4.167   0.086  23.136  0.00  0.00    +0.007 A 
ATOM     23  C   UNL     1       4.425  -0.603  23.509  0.00  0.00    -0.002 A 
ATOM     24  C   UNL     1       5.169  -0.627  23.864  0.00  0.00    -0.000 A 
ATOM     25  C   UNL     1       5.656   0.040  23.845  0.00  0.00    -0.000 A 
ATOM     26  C   UNL     1       5.398   0.728  23.473  0.00  0.00    -0.000 A 
ATOM     27  C   UNL     1       4.653   0.752  23.117  0.00  0.00    -0.002 A 
ENDBRANCH  21  22
ENDBRANCH  20  21
ENDBRANCH  16  20
TORSDOF 6
ENDMDL
MODEL 4
REMARK VINA RESULT:      -6.8     15.367     16.896
REMARK  Name = 
REMARK  6 active torsions:
REMARK  status: ('A' for Active; 'I' for Inactive)
REMARK    1  A    between atoms: N_3  and  C_4
REMARK    2  A    between atoms: C_4  and  C_5
REMARK    3  A    between atoms: N_11  and  C_12
REMARK    4  A    between atoms: C_16  and  O_20
REMARK    5  A    between atoms: O_20  and  C_21
REMARK    6  A    between atoms: C_21  and  C_22
REMARK                            x       y       z     vdW  Elec       q    Type
REMARK                         _______ _______ _______ _____ _____    ______ ____
ROOT
ATOM     12  C   UNL     1      -5.103 -10.294  13.736  0.00  0.00    +0.156 C 
ATOM     13  C   UNL     1      -4.436 -10.633  14.081  0.00  0.00    +0.166 C 
ATOM     14  O   UNL     1      -4.593 -10.744  14.883  0.00  0.00    -0.349 OA
ATOM     15  C   UNL     1      -5.357 -10.474  15.034  0.00  0.00    +0.173 C 
ATOM     16  C   UNL     1      -5.927 -10.375  15.622  0.00  0.00    +0.175 C 
ATOM     17  C   UNL     1      -6.594 -10.035  15.277  0.00  0.00    +0.174 C 
ATOM     18  O   UNL     1      -6.437  -9.924  14.475  0.00  0.00    -0.349 OA
ATOM     19  C   UNL     1      -5.672 -10.195  14.325  0.00  0.00    +0.167 C 
ENDROOT
BRANCH  12  11
ATOM      1  O   UNL     1      -3.811 -10.403  12.716  0.00  0.00    -0.249 OA
ATOM      2  C   UNL     1      -4.541 -10.143  12.430  0.00  0.00    +0.340 C 
ATOM      3  N   UNL     1      -4.624  -9.938  11.636  0.00  0.00    -0.182 NA
ATOM     11  N   UNL     1      -5.187 -10.088  12.941  0.00  0.00    -0.184 NA
BRANCH   3   4
ATOM      4  C   UNL     1      -3.978  -9.992  11.126  0.00  0.00    +0.143 C 
BRANCH   4   5
ATOM      5  C   UNL     1      -4.065  -9.801  10.328  0.00  0.00    -0.001 A 
ATOM      6  C   UNL     1      -4.357 -10.362   9.799  0.00  0.00    -0.003 A 
ATOM      7  C   UNL     1      -4.444 -10.170   9.001  0.00  0.00    -0.000 A 
ATOM      8  C   UNL     1      -4.239  -9.418   8.732  0.00  0.00    -0.000 A 
ATOM      9  C   UNL     1      -3.946  -8.857   9.263  0.00  0.00    -0.000 A 
ATOM     10  C   UNL     1      -3.860  -9.048  10.060  0.00  0.00    -0.003 A 
ENDBRANCH   4   5
ENDBRANCH   3   4
ENDBRANCH  12  11
BRANCH  16  20
ATOM     20  O   UNL     1      -5.843 -10.580  16.417  0.00  0.00    -0.346 OA
BRANCH  20  21
ATOM     21  C   UNL     1      -6.191 -10.114  17.002  0.00  0.00    +0.169 C 
BRANCH  21  22
ATOM     22  C   UNL     1      -6.114 -10.324  17.797  0.00  0.00    +0.007 A 
ATOM     23  C   UNL     1      -5.384 -10.571  18.089  0.00  0.00    -0.002 A 
ATOM     24  C   UNL     1      -5.306 -10.781  18.883  0.00  0.00    -0.000 A 
ATOM     25  C   UNL     1      -5.960 -10.742  19.385  0.00  0.00    -0.000 A 
ATOM     26  C   UNL     1      -6.690 -10.495  19.092  0.00  0.00    -0.000 A 
ATOM     27  C   UNL     1      -6.768 -10.285  18.298  0.00  0.00    -0.002 A 
ENDBRANCH  21  22
ENDBRANCH  20  21
ENDBRANCH  16  20
TORSDOF 6
ENDMDL
MODEL 5
REMARK VINA RESULT:      -6.2     17.456     18.221
REMARK  Name = 
REMARK  6 active torsions:
REMARK  status: ('A' for Active; 'I' for Inactive)
REMARK    1  A    between atoms: N_3  and  C_4
REMARK    2  A    between atoms: C_4  and  C_5
REMARK    3  A    between atoms: N_11  and  C_12
REMARK    4  A    between atoms: C_16  and  O_20
REMARK    5  A    between atoms: O_20  and  C_21
REMARK    6  A    between atoms: C_21  and  C_22
REMARK                            x       y       z     vdW  Elec       q    Type
REMARK                         _______ _______ _______ _____ _____    ______ ____
ROOT
ATOM     12  C   UNL     1      -7.015  -8.606   9.612  0.00  0.00    +0.156 C 
ATOM     13  C   UNL     1      -6.511  -8.829   8.999  0.00  0.00    +0.166 C 
ATOM     14  O   UNL     1      -5.844  -9.181   9.333  0.00  0.00    -0.349 OA
ATOM     15  C   UNL     1      -5.935  -9.175  10.152  0.00  0.00    +0.173 C 
ATOM     16  C   UNL     1      -5.581  -9.389  10.865  0.00  0.00    +0.175 C 
ATOM     17  C   UNL     1      -6.085  -9.166  11.479  0.00  0.00    +0.174 C 
ATOM     18  O   UNL     1      -6.751  -8.814  11.145  0.00  0.00    -0.349 OA
ATOM     19  C   UNL     1      -6.659  -8.820  10.325  0.00  0.00    +0.167 C 
ENDROOT
BRANCH  12  11
ATOM      1  O   UNL     1      -7.199  -7.388   8.514  0.00  0.00    -0.249 OA
ATOM      2  C   UNL     1      -7.839  -7.625   8.978  0.00  0.00    +0.340 C 
ATOM      3  N   UNL     1      -8.570  -7.252   8.894  0.00  0.00    -0.182 NA
ATOM     11  N   UNL     1      -7.746  -8.233   9.528  0.00  0.00    -0.184 NA
BRANCH   3   4
ATOM      4  C   UNL     1      -8.662  -6.644   8.344  0.00  0.00    +0.143 C 
BRANCH   4   5
ATOM      5  C   UNL     1      -9.307  -6.133   8.399  0.00  0.00    -0.001 A 
ATOM      6  C   UNL     1      -9.184  -5.325   8.516  0.00  0.00    -0.003 A 
ATOM      7  C   UNL     1      -9.830  -4.814   8.570  0.00  0.00    -0.000 A 
ATOM      8  C   UNL     1     -10.597  -5.109   8.508  0.00  0.00    -0.000 A 
ATOM      9  C   UNL     1     -10.720  -5.918   8.392  0.00  0.00    -0.000 A 
ATOM     10  C   UNL     1     -10.075  -6.428   8.337  0.00  0.00    -0.003 A 
ENDBRANCH   4   5
ENDBRANCH   3   4
ENDBRANCH  12  11
BRANCH  16  20
ATOM     20  O   UNL     1      -4.849  -9.762  10.950  0.00  0.00    -0.346 OA
BRANCH  20  21
ATOM     21  C   UNL     1      -4.441  -9.712  11.665  0.00  0.00    +0.169 C 
BRANCH  21  22
ATOM     22  C   UNL     1      -3.679 -10.023  11.729  0.00  0.00    +0.007 A 
ATOM     23  C   UNL     1      -3.470 -10.470  12.389  0.00  0.00    -0.002 A 
ATOM     24  C   UNL     1      -2.708 -10.781  12.453  0.00  0.00    -0.000 A 
ATOM     25  C   UNL     1      -2.156 -10.645  11.855  0.00  0.00    -0.000 A 
ATOM     26  C   UNL     1      -2.366 -10.198  11.194  0.00  0.00    -0.000 A 
ATOM     27  C   UNL     1      -3.128  -9.887  11.130  0.00  0.00    -0.002 A 
ENDBRANCH  21  22
ENDBRANCH  20  21
ENDBRANCH  16  20
TORSDOF 6
ENDMDL
MODEL 6
REMARK VINA RESULT:      -5.7     16.281     17.158
REMARK  Name = 
REMARK  6 active torsions:
REMARK  status: ('A' for Active; 'I' for Inactive)
REMARK    1  A    between atoms: N_3  and  C_4
REMARK    2  A    between atoms: C_4  and  C_5
REMARK    3  A    between atoms: N_11  and  C_12
REMARK    4  A    between atoms: C_16  and  O_20
REMARK    5  A    between atoms: O_20  and  C_21
REMARK    6  A    between atoms: C_21  and  C_22
REMARK                            x       y       z     vdW  Elec       q    Type
REMARK                         _______ _______ _______ _____ _____    ______ ____
ROOT
ATOM     12  C   UNL     1      -5.449  -9.896  12.025  0.00  0.00    +0.156 C 
ATOM     13  C   UNL     1      -5.871  -9.892  12.734  0.00  0.00    +0.166 C 
ATOM     14  O   UNL     1      -5.348 -10.087  13.342  0.00  0.00    -0.349 OA
ATOM     15  C   UNL     1      -4.605 -10.211  13.009  0.00  0.00    +0.173 C 
ATOM     16  C   UNL     1      -3.821 -10.408  13.178  0.00  0.00    +0.175 C 
ATOM     17  C   UNL     1      -3.400 -10.412  12.469  0.00  0.00    +0.174 C 
ATOM     18  O   UNL     1      -3.922 -10.217  11.861  0.00  0.00    -0.349 OA
ATOM     19  C   UNL     1      -4.667 -10.093  12.195  0.00  0.00    +0.167 C 
ENDROOT
BRANCH  12  11
ATOM      1  O   UNL     1      -6.934  -9.191  11.881  0.00  0.00    -0.249 OA
ATOM      2  C   UNL     1      -6.500  -9.379  11.205  0.00  0.00    +0.340 C 
ATOM      3  N   UNL     1      -6.807  -9.215  10.458  0.00  0.00    -0.182 NA
ATOM     11  N   UNL     1      -5.757  -9.732  11.277  0.00  0.00    -0.184 NA
BRANCH   3   4
ATOM      4  C   UNL     1      -7.550  -8.862  10.385  0.00  0.00    +0.143 C 
BRANCH   4   5
ATOM      5  C   UNL     1      -7.888  -8.762   9.640  0.00  0.00    -0.001 A 
ATOM      6  C   UNL     1      -8.584  -9.161   9.447  0.00  0.00    -0.003 A 
ATOM      7  C   UNL     1      -8.923  -9.061   8.701  0.00  0.00    -0.000 A 
ATOM      8  C   UNL     1      -8.566  -8.563   8.148  0.00  0.00    -0.000 A 
ATOM      9  C   UNL     1      -7.870  -8.164   8.342  0.00  0.00    -0.000 A 
ATOM     10  C   UNL     1      -7.531  -8.264   9.087  0.00  0.00    -0.003 A 
ENDBRANCH   4   5
ENDBRANCH   3   4
ENDBRANCH  12  11
BRANCH  16  20
ATOM     20  O   UNL     1      -3.514 -10.573  13.926  0.00  0.00    -0.346 OA
BRANCH  20  21
ATOM     21  C   UNL     1      -2.710 -10.736  14.014  0.00  0.00    +0.169 C 
BRANCH  21  22
ATOM     22  C   UNL     1      -2.345 -10.625  14.746  0.00  0.00    +0.007 A 
ATOM     23  C   UNL     1      -2.761 -10.775  15.442  0.00  0.00    -0.002 A 
ATOM     24  C   UNL     1      -2.397 -10.665  16.174  0.00  0.00    -0.000 A 
ATOM     25  C   UNL     1      -1.614 -10.404  16.209  0.00  0.00    -0.000 A 
ATOM     26  C   UNL     1      -1.198 -10.254  15.513  0.00  0.00    -0.000 A 
ATOM     27  C   UNL     1      -1.563 -10.364  14.781  0.00  0.00    -0.002 A 
ENDBRANCH  21  22
ENDBRANCH  20  21
ENDBRANCH  16  20
TORSDOF 6
ENDMDL
MODEL 7
REMARK VINA RESULT:      -5.4     15.736     17.675
REMARK  Name = 
REMARK  6 active torsions:
REMARK  status: ('A' for Active; 'I' for Inactive)
REMARK    1  A    between atoms: N_3  and  C_4
REMARK    2  A    between atoms: C_4  and  C_5
REMARK    3  A    between atoms: N_11  and  C_12
REMARK    4  A    between atoms: C_16  and  O_20
REMARK    5  A    between atoms: O_20  and  C_21
REMARK    6  A    between atoms: C_21  and  C_22
REMARK                            x       y       z     vdW  Elec       q    Type
REMARK                         _______ _______ _______ _____ _____    ______ ____
ROOT
ATOM     12  C   UNL     1      -7.022  -9.965  13.387  0.00  0.00    +0.156 C 
ATOM     13  C   UNL     1      -6.624 -10.125  14.091  0.00  0.00    +0.166 C 
ATOM     14  O   UNL     1      -7.157 -10.024  14.713  0.00  0.00    -0.349 OA
ATOM     15  C   UNL     1      -7.883  -9.802  14.394  0.00  0.00    +0.173 C 
ATOM     16  C   UNL     1      -8.662  -9.603  14.579  0.00  0.00    +0.175 C 
ATOM     17  C   UNL     1      -9.060  -9.442  13.875  0.00  0.00    +0.174 C 
ATOM     18  O   UNL     1      -8.528  -9.543  13.253  0.00  0.00    -0.349 OA
ATOM     19  C   UNL     1      -7.800  -9.765  13.574  0.00  0.00    +0.167 C 
ENDROOT
BRANCH  12  11
ATOM      1  O   UNL     1      -5.473  -9.459  13.129  0.00  0.00    -0.249 OA
ATOM      2  C   UNL     1      -5.924  -9.745  12.499  0.00  0.00    +0.340 C 
ATOM      3  N   UNL     1      -5.600  -9.778  11.741  0.00  0.00    -0.182 NA
ATOM     11  N   UNL     1      -6.699  -9.998  12.629  0.00  0.00    -0.184 NA
BRANCH   3   4
ATOM      4  C   UNL     1      -4.826  -9.526  11.612  0.00  0.00    +0.143 C 
BRANCH   4   5
ATOM      5  C   UNL     1      -4.526  -9.491  10.844  0.00  0.00    -0.001 A 
ATOM      6  C   UNL     1      -4.182 -10.159  10.505  0.00  0.00    -0.003 A 
ATOM      7  C   UNL     1      -3.882 -10.124   9.737  0.00  0.00    -0.000 A 
ATOM      8  C   UNL     1      -3.925  -9.421   9.308  0.00  0.00    -0.000 A 
ATOM      9  C   UNL     1      -4.270  -8.752   9.648  0.00  0.00    -0.000 A 
ATOM     10  C   UNL     1      -4.570  -8.787  10.416  0.00  0.00    -0.003 A 
ENDBRANCH   4   5
ENDBRANCH   3   4
ENDBRANCH  12  11
BRANCH  16  20
ATOM     20  O   UNL     1      -8.986  -9.569  15.338  0.00  0.00    -0.346 OA
BRANCH  20  21
ATOM     21  C   UNL     1      -9.665  -9.122  15.477  0.00  0.00    +0.169 C 
BRANCH  21  22
ATOM     22  C   UNL     1      -9.928  -9.000  16.250  0.00  0.00    +0.007 A 
ATOM     23  C   UNL     1      -9.740  -8.300  16.644  0.00  0.00    -0.002 A 
ATOM     24  C   UNL     1     -10.002  -8.177  17.416  0.00  0.00    -0.000 A 
ATOM     25  C   UNL     1     -10.453  -8.757  17.795  0.00  0.00    -0.000 A 
ATOM     26  C   UNL     1     -10.640  -9.456  17.401  0.00  0.00    -0.000 A 
ATOM     27  C   UNL     1     -10.378  -9.579  16.628  0.00  0.00    -0.002 A 
ENDBRANCH  21  22
ENDBRANCH  20  21
ENDBRANCH  16  20
TORSDOF 6
ENDMDL
