MODEL 1
REMARK VINA RESULT:     -11.9      0.000      0.000
REMARK  Name = 
REMARK  5 active torsions:
REMARK  status: ('A' for Active; 'I' for Inactive)
REMARK    1  A    between atoms: N_4  and  C_25
REMARK    2  A    between atoms: C_7  and  C_8
REMARK    3  A    between atoms: C_10  and  N_11
REMARK    4  A    between atoms: N_14  and  C_15
REMARK    5  A    between atoms: C_17  and  C_21
REMARK                            x       y       z     vdW  Elec       q    Type
REMARK                         _______ _______ _______ _____ _____    ______ ____
ROOT
ATOM      8  C   UNL     1      -4.361   2.056  25.038  0.00  0.00    +0.048 C 
ATOM      9  C   UNL     1      -4.198   1.329  25.391  0.00  0.00    +0.035 C 
ATOM     10  C   UNL     1      -4.690   0.763  25.050  0.00  0.00    +0.119 C 
ATOM     23  C   UNL     1      -5.159   1.140  24.484  0.00  0.00    -0.009 C 
ATOM     24  C   UNL     1      -4.955   1.939  24.477  0.00  0.00    -0.025 C 
ENDROOT
BRANCH   8   7
ATOM      1  C   UNL     1      -5.051   3.377  26.040  0.00  0.00    +0.054 C 
ATOM      2  C   UNL     1      -4.311   3.382  25.673  0.00  0.00    +0.077 A 
ATOM      3  N   UNL     1      -3.761   3.994  25.703  0.00  0.00    -0.170 NA
ATOM      4  N   UNL     1      -3.102   3.765  25.260  0.00  0.00    -0.234 N 
ATOM      5  C   UNL     1      -3.247   3.012  24.958  0.00  0.00    +0.058 A 
ATOM      6  C   UNL     1      -2.734   2.573  24.483  0.00  0.00    +0.052 C 
ATOM      7  C   UNL     1      -3.995   2.774  25.213  0.00  0.00    +0.010 A 
BRANCH   4  25
ATOM     25  C   UNL     1      -2.418   4.212  25.141  0.00  0.00    +0.083 A 
ATOM     26  C   UNL     1      -1.681   3.894  25.328  0.00  0.00    +0.030 A 
ATOM     27  C   UNL     1      -0.997   4.341  25.209  0.00  0.00    +0.055 A 
ATOM     28 CL   UNL     1      -0.259   4.023  25.396  0.00  0.00    -0.083 Cl
ATOM     29  C   UNL     1      -1.051   5.104  24.904  0.00  0.00    -0.011 A 
ATOM     30  C   UNL     1      -0.368   5.551  24.786  0.00  0.00    +0.032 C 
ATOM     31  C   UNL     1      -1.790   5.423  24.718  0.00  0.00    -0.002 A 
ATOM     32  C   UNL     1      -2.474   4.976  24.837  0.00  0.00    +0.019 A 
ENDBRANCH   4  25
ENDBRANCH   8   7
BRANCH  10  11
ATOM     11  N   UNL     1      -4.712  -0.040  25.239  0.00  0.00    -0.184 NA
ATOM     12  C   UNL     1      -4.157  -0.556  24.913  0.00  0.00    +0.344 C 
ATOM     13  O   UNL     1      -3.580  -0.271  24.398  0.00  0.00    -0.249 OA
ATOM     14  N   UNL     1      -4.180  -1.359  25.103  0.00  0.00    -0.161 NA
BRANCH  14  15
ATOM     15  C   UNL     1      -3.625  -1.876  24.777  0.00  0.00    +0.076 A 
ATOM     16  C   UNL     1      -2.833  -1.822  24.999  0.00  0.00    +0.027 A 
ATOM     17  C   UNL     1      -2.277  -2.339  24.673  0.00  0.00    +0.070 A 
ATOM     18  C   UNL     1      -2.516  -2.909  24.126  0.00  0.00    +0.010 A 
ATOM     19  C   UNL     1      -3.309  -2.962  23.905  0.00  0.00    +0.002 A 
ATOM     20  C   UNL     1      -3.864  -2.446  24.230  0.00  0.00    +0.017 A 
BRANCH  17  21
ATOM     21  C   UNL     1      -1.485  -2.286  24.895  0.00  0.00    +0.100 C 
ATOM     22  N   UNL     1      -0.692  -2.232  25.116  0.00  0.00    -0.191 NA
ENDBRANCH  17  21
ENDBRANCH  14  15
ENDBRANCH  10  11
TORSDOF 5
ENDMDL
MODEL 2
REMARK VINA RESULT:     -11.9      1.787      5.522
REMARK  Name = 
REMARK  5 active torsions:
REMARK  status: ('A' for Active; 'I' for Inactive)
REMARK    1  A    between atoms: N_4  and  C_25
REMARK    2  A    between atoms: C_7  and  C_8
REMARK    3  A    between atoms: C_10  and  N_11
REMARK    4  A    between atoms: N_14  and  C_15
REMARK    5  A    between atoms: C_17  and  C_21
REMARK                            x       y       z     vdW  Elec       q    Type
REMARK                         _______ _______ _______ _____ _____    ______ ____
ROOT
ATOM      8  C   UNL     1      -4.628   1.932  24.776  0.00  0.00    +0.048 C 
ATOM      9  C   UNL     1      -4.105   2.403  25.205  0.00  0.00    +0.035 C 
ATOM     10  C   UNL     1      -4.164   3.175  24.921  0.00  0.00    +0.119 C 
ATOM     23  C   UNL     1      -4.725   3.180  24.315  0.00  0.00    -0.009 C 
ATOM     24  C   UNL     1      -5.011   2.413  24.225  0.00  0.00    -0.025 C 
ENDROOT
BRANCH   8   7
ATOM      1  C   UNL     1      -5.985   1.169  25.672  0.00  0.00    +0.054 C 
ATOM      2  C   UNL     1      -5.370   0.771  25.289  0.00  0.00    +0.077 A 
ATOM      3  N   UNL     1      -5.273  -0.047  25.251  0.00  0.00    -0.170 NA
ATOM      4  N   UNL     1      -4.589  -0.202  24.816  0.00  0.00    -0.234 N 
ATOM      5  C   UNL     1      -4.264   0.521  24.585  0.00  0.00    +0.058 A 
ATOM      6  C   UNL     1      -3.577   0.623  24.140  0.00  0.00    +0.052 C 
ATOM      7  C   UNL     1      -4.748   1.122  24.878  0.00  0.00    +0.010 A 
BRANCH   4  25
ATOM     25  C   UNL     1      -4.283  -0.949  24.642  0.00  0.00    +0.083 A 
ATOM     26  C   UNL     1      -3.795  -1.331  25.187  0.00  0.00    +0.030 A 
ATOM     27  C   UNL     1      -3.489  -2.077  25.013  0.00  0.00    +0.055 A 
ATOM     28 CL   UNL     1      -3.001  -2.460  25.558  0.00  0.00    -0.083 Cl
ATOM     29  C   UNL     1      -3.671  -2.441  24.296  0.00  0.00    -0.011 A 
ATOM     30  C   UNL     1      -3.365  -3.188  24.122  0.00  0.00    +0.032 C 
ATOM     31  C   UNL     1      -4.159  -2.059  23.751  0.00  0.00    -0.002 A 
ATOM     32  C   UNL     1      -4.465  -1.312  23.925  0.00  0.00    +0.019 A 
ENDBRANCH   4  25
ENDBRANCH   8   7
BRANCH  10  11
ATOM     11  N   UNL     1      -3.739   3.827  25.193  0.00  0.00    -0.184 NA
ATOM     12  C   UNL     1      -2.925   3.870  25.070  0.00  0.00    +0.344 C 
ATOM     13  O   UNL     1      -2.534   3.261  24.675  0.00  0.00    -0.249 OA
ATOM     14  N   UNL     1      -2.500   4.523  25.343  0.00  0.00    -0.161 NA
BRANCH  14  15
ATOM     15  C   UNL     1      -1.685   4.566  25.220  0.00  0.00    +0.076 A 
ATOM     16  C   UNL     1      -1.200   3.942  25.454  0.00  0.00    +0.027 A 
ATOM     17  C   UNL     1      -0.385   3.985  25.331  0.00  0.00    +0.070 A 
ATOM     18  C   UNL     1      -0.056   4.652  24.974  0.00  0.00    +0.010 A 
ATOM     19  C   UNL     1      -0.542   5.277  24.740  0.00  0.00    +0.002 A 
ATOM     20  C   UNL     1      -1.357   5.234  24.863  0.00  0.00    +0.017 A 
BRANCH  17  21
ATOM     21  C   UNL     1       0.101   3.361  25.565  0.00  0.00    +0.100 C 
ATOM     22  N   UNL     1       0.587   2.736  25.799  0.00  0.00    -0.191 NA
ENDBRANCH  17  21
ENDBRANCH  14  15
ENDBRANCH  10  11
TORSDOF 5
ENDMDL
MODEL 3
REMARK VINA RESULT:     -11.6      3.919      5.447
REMARK  Name = 
REMARK  5 active torsions:
REMARK  status: ('A' for Active; 'I' for Inactive)
REMARK    1  A    between atoms: N_4  and  C_25
REMARK    2  A    between atoms: C_7  and  C_8
REMARK    3  A    between atoms: C_10  and  N_11
REMARK    4  A    between atoms: N_14  and  C_15
REMARK    5  A    between atoms: C_17  and  C_21
REMARK                            x       y       z     vdW  Elec       q    Type
REMARK                         _______ _______ _______ _____ _____    ______ ____
ROOT
ATOM      8  C   UNL     1      -0.746   0.326  24.273  0.00  0.00    +0.048 C 
ATOM      9  C   UNL     1      -0.262   0.513  23.634  0.00  0.00    +0.035 C 
ATOM     10  C   UNL     1       0.255  -0.117  23.511  0.00  0.00    +0.119 C 
ATOM     23  C   UNL     1       0.089  -0.696  24.076  0.00  0.00    -0.009 C 
ATOM     24  C   UNL     1      -0.529  -0.422  24.547  0.00  0.00    -0.025 C 
ENDROOT
BRANCH   8   7
ATOM      1  C   UNL     1      -0.530   1.639  25.480  0.00  0.00    +0.054 C 
ATOM      2  C   UNL     1      -1.245   1.404  25.140  0.00  0.00    +0.077 A 
ATOM      3  N   UNL     1      -1.985   1.732  25.296  0.00  0.00    -0.170 NA
ATOM      4  N   UNL     1      -2.543   1.331  24.838  0.00  0.00    -0.234 N 
ATOM      5  C   UNL     1      -2.146   0.756  24.400  0.00  0.00    +0.058 A 
ATOM      6  C   UNL     1      -2.492   0.228  23.868  0.00  0.00    +0.052 C 
ATOM      7  C   UNL     1      -1.344   0.801  24.587  0.00  0.00    +0.010 A 
BRANCH   4  25
ATOM     25  C   UNL     1      -3.355   1.479  24.822  0.00  0.00    +0.083 A 
ATOM     26  C   UNL     1      -3.637   2.191  24.517  0.00  0.00    +0.030 A 
ATOM     27  C   UNL     1      -4.449   2.340  24.500  0.00  0.00    +0.055 A 
ATOM     28 CL   UNL     1      -4.732   3.052  24.194  0.00  0.00    -0.083 Cl
ATOM     29  C   UNL     1      -4.977   1.777  24.789  0.00  0.00    -0.011 A 
ATOM     30  C   UNL     1      -5.789   1.925  24.772  0.00  0.00    +0.032 C 
ATOM     31  C   UNL     1      -4.694   1.064  25.095  0.00  0.00    -0.002 A 
ATOM     32  C   UNL     1      -3.883   0.915  25.111  0.00  0.00    +0.019 A 
ENDBRANCH   4  25
ENDBRANCH   8   7
BRANCH  10  11
ATOM     11  N   UNL     1       0.835  -0.163  22.926  0.00  0.00    -0.184 NA
ATOM     12  C   UNL     1       1.610   0.066  23.094  0.00  0.00    +0.344 C 
ATOM     13  O   UNL     1       1.805   0.341  23.847  0.00  0.00    -0.249 OA
ATOM     14  N   UNL     1       2.190   0.020  22.509  0.00  0.00    -0.161 NA
BRANCH  14  15
ATOM     15  C   UNL     1       2.964   0.249  22.677  0.00  0.00    +0.076 A 
ATOM     16  C   UNL     1       3.477  -0.277  23.052  0.00  0.00    +0.027 A 
ATOM     17  C   UNL     1       4.252  -0.048  23.221  0.00  0.00    +0.070 A 
ATOM     18  C   UNL     1       4.513   0.707  23.012  0.00  0.00    +0.010 A 
ATOM     19  C   UNL     1       4.000   1.232  22.636  0.00  0.00    +0.002 A 
ATOM     20  C   UNL     1       3.225   1.003  22.468  0.00  0.00    +0.017 A 
BRANCH  17  21
ATOM     21  C   UNL     1       4.765  -0.573  23.596  0.00  0.00    +0.100 C 
ATOM     22  N   UNL     1       5.278  -1.099  23.972  0.00  0.00    -0.191 NA
ENDBRANCH  17  21
ENDBRANCH  14  15
ENDBRANCH  10  11
TORSDOF 5
ENDMDL
MODEL 4
REMARK VINA RESULT:     -10.9      2.391      6.388
REMARK  Name = 
REMARK  5 active torsions:
REMARK  status: ('A' for Active; 'I' for Inactive)
REMARK    1  A    between atoms: N_4  and  C_25
REMARK    2  A    between atoms: C_7  and  C_8
REMARK    3  A    between atoms: C_10  and  N_11
REMARK    4  A    between atoms: N_14  and  C_15
REMARK    5  A    between atoms: C_17  and  C_21
REMARK                            x       y       z     vdW  Elec       q    Type
REMARK                         _______ _______ _______ _____ _____    ______ ____
ROOT
ATOM      8  C   UNL     1      -0.620   0.121  24.540  0.00  0.00    +0.048 C 
ATOM      9  C   UNL     1      -0.624   0.787  25.026  0.00  0.00    +0.035 C 
ATOM     10  C   UNL     1      -0.067   1.319  24.733  0.00  0.00    +0.119 C 
ATOM     23  C   UNL     1       0.282   0.982  24.066  0.00  0.00    -0.009 C 
ATOM     24  C   UNL     1      -0.059   0.241  23.947  0.00  0.00    -0.025 C 
ENDROOT
BRANCH   8   7
ATOM      1  C   UNL     1      -0.192  -1.358  25.465  0.00  0.00    +0.054 C 
ATOM      2  C   UNL     1      -0.897  -1.229  25.055  0.00  0.00    +0.077 A 
ATOM      3  N   UNL     1      -1.528  -1.756  24.999  0.00  0.00    -0.170 NA
ATOM      4  N   UNL     1      -2.115  -1.403  24.540  0.00  0.00    -0.234 N 
ATOM      5  C   UNL     1      -1.846  -0.657  24.312  0.00  0.00    +0.058 A 
ATOM      6  C   UNL     1      -2.259  -0.114  23.847  0.00  0.00    +0.052 C 
ATOM      7  C   UNL     1      -1.093  -0.549  24.631  0.00  0.00    +0.010 A 
BRANCH   4  25
ATOM     25  C   UNL     1      -2.844  -1.737  24.342  0.00  0.00    +0.083 A 
ATOM     26  C   UNL     1      -2.929  -2.557  24.323  0.00  0.00    +0.030 A 
ATOM     27  C   UNL     1      -3.657  -2.891  24.125  0.00  0.00    +0.055 A 
ATOM     28 CL   UNL     1      -3.743  -3.712  24.106  0.00  0.00    -0.083 Cl
ATOM     29  C   UNL     1      -4.299  -2.406  23.947  0.00  0.00    -0.011 A 
ATOM     30  C   UNL     1      -5.028  -2.740  23.750  0.00  0.00    +0.032 C 
ATOM     31  C   UNL     1      -4.214  -1.585  23.966  0.00  0.00    -0.002 A 
ATOM     32  C   UNL     1      -3.485  -1.251  24.164  0.00  0.00    +0.019 A 
ENDBRANCH   4  25
ENDBRANCH   8   7
BRANCH  10  11
ATOM     11  N   UNL     1       0.111   2.060  25.051  0.00  0.00    -0.184 NA
ATOM     12  C   UNL     1      -0.443   2.670  25.014  0.00  0.00    +0.344 C 
ATOM     13  O   UNL     1      -1.176   2.540  24.659  0.00  0.00    -0.249 OA
ATOM     14  N   UNL     1      -0.263   3.410  25.332  0.00  0.00    -0.161 NA
BRANCH  14  15
ATOM     15  C   UNL     1      -0.818   4.020  25.295  0.00  0.00    +0.076 A 
ATOM     16  C   UNL     1      -1.551   3.933  25.661  0.00  0.00    +0.027 A 
ATOM     17  C   UNL     1      -2.106   4.543  25.624  0.00  0.00    +0.070 A 
ATOM     18  C   UNL     1      -1.926   5.240  25.221  0.00  0.00    +0.010 A 
ATOM     19  C   UNL     1      -1.192   5.326  24.854  0.00  0.00    +0.002 A 
ATOM     20  C   UNL     1      -0.638   4.717  24.891  0.00  0.00    +0.017 A 
BRANCH  17  21
ATOM     21  C   UNL     1      -2.839   4.456  25.991  0.00  0.00    +0.100 C 
ATOM     22  N   UNL     1      -3.573   4.369  26.358  0.00  0.00    -0.191 NA
ENDBRANCH  17  21
ENDBRANCH  14  15
ENDBRANCH  10  11
TORSDOF 5
ENDMDL
MODEL 5
REMARK VINA RESULT:     -10.4      2.146      3.101
REMARK  Name = 
REMARK  5 active torsions:
REMARK  status: ('A' for Active; 'I' for Inactive)
REMARK    1  A    between atoms: N_4  and  C_25
REMARK    2  A    between atoms: C_7  and  C_8
REMARK    3  A    between atoms: C_10  and  N_11
REMARK    4  A    between atoms: N_14  and  C_15
REMARK    5  A    between atoms: C_17  and  C_21
REMARK                            x       y       z     vdW  Elec       q    Type
REMARK                         _______ _______ _______ _____ _____    ______ ____
ROOT
ATOM      8  C   UNL     1      -0.236   1.258  24.610  0.00  0.00    +0.048 C 
ATOM      9  C   UNL     1      -0.554   0.534  24.843  0.00  0.00    +0.035 C 
ATOM     10  C   UNL     1      -0.314  -0.036  24.299  0.00  0.00    +0.119 C 
ATOM     23  C   UNL     1       0.152   0.335  23.729  0.00  0.00    -0.009 C 
ATOM     24  C   UNL     1       0.201   1.135  23.921  0.00  0.00    -0.025 C 
ENDROOT
BRANCH   8   7
ATOM      1  C   UNL     1       0.492   1.723  26.186  0.00  0.00    +0.054 C 
ATOM      2  C   UNL     1      -0.002   2.194  25.721  0.00  0.00    +0.077 A 
ATOM      3  N   UNL     1      -0.247   2.961  25.899  0.00  0.00    -0.170 NA
ATOM      4  N   UNL     1      -0.733   3.222  25.285  0.00  0.00    -0.234 N 
ATOM      5  C   UNL     1      -0.788   2.616  24.728  0.00  0.00    +0.058 A 
ATOM      6  C   UNL     1      -1.220   2.641  24.025  0.00  0.00    +0.052 C 
ATOM      7  C   UNL     1      -0.336   1.980  24.997  0.00  0.00    +0.010 A 
BRANCH   4  25
ATOM     25  C   UNL     1      -1.101   3.959  25.237  0.00  0.00    +0.083 A 
ATOM     26  C   UNL     1      -1.853   4.066  25.558  0.00  0.00    +0.030 A 
ATOM     27  C   UNL     1      -2.220   4.804  25.509  0.00  0.00    +0.055 A 
ATOM     28 CL   UNL     1      -2.973   4.912  25.830  0.00  0.00    -0.083 Cl
ATOM     29  C   UNL     1      -1.835   5.433  25.141  0.00  0.00    -0.011 A 
ATOM     30  C   UNL     1      -2.203   6.171  25.092  0.00  0.00    +0.032 C 
ATOM     31  C   UNL     1      -1.082   5.326  24.820  0.00  0.00    -0.002 A 
ATOM     32  C   UNL     1      -0.715   4.588  24.868  0.00  0.00    +0.019 A 
ENDBRANCH   4  25
ENDBRANCH   8   7
BRANCH  10  11
ATOM     11  N   UNL     1      -0.507  -0.838  24.319  0.00  0.00    -0.184 NA
ATOM     12  C   UNL     1      -1.270  -1.075  24.525  0.00  0.00    +0.344 C 
ATOM     13  O   UNL     1      -1.842  -0.510  24.710  0.00  0.00    -0.249 OA
ATOM     14  N   UNL     1      -1.462  -1.878  24.545  0.00  0.00    -0.161 NA
BRANCH  14  15
ATOM     15  C   UNL     1      -2.225  -2.114  24.750  0.00  0.00    +0.076 A 
ATOM     16  C   UNL     1      -2.802  -2.198  24.167  0.00  0.00    +0.027 A 
ATOM     17  C   UNL     1      -3.565  -2.435  24.372  0.00  0.00    +0.070 A 
ATOM     18  C   UNL     1      -3.751  -2.588  25.161  0.00  0.00    +0.010 A 
ATOM     19  C   UNL     1      -3.173  -2.505  25.745  0.00  0.00    +0.002 A 
ATOM     20  C   UNL     1      -2.410  -2.268  25.540  0.00  0.00    +0.017 A 
BRANCH  17  21
ATOM     21  C   UNL     1      -4.142  -2.518  23.789  0.00  0.00    +0.100 C 
ATOM     22  N   UNL     1      -4.720  -2.601  23.205  0.00  0.00    -0.191 NA
ENDBRANCH  17  21
ENDBRANCH  14  15
ENDBRANCH  10  11
TORSDOF 5
ENDMDL
MODEL 6
REMARK VINA RESULT:     -10.1      2.788      4.940
REMARK  Name = 
REMARK  5 active torsions:
REMARK  status: ('A' for Active; 'I' for Inactive)
REMARK    1  A    between atoms: N_4  and  C_25
REMARK    2  A    between atoms: C_7  and  C_8
REMARK    3  A    between atoms: C_10  and  N_11
REMARK    4  A    between atoms: N_14  and  C_15
REMARK    5  A    between atoms: C_17  and  C_21
REMARK                            x       y       z     vdW  Elec       q    Type
REMARK                         _______ _______ _______ _____ _____    ______ ____
ROOT
ATOM      8  C   UNL     1      -1.123   3.356  25.251  0.00  0.00    +0.048 C 
ATOM      9  C   UNL     1      -1.916   3.238  25.442  0.00  0.00    +0.035 C 
ATOM     10  C   UNL     1      -2.286   3.974  25.462  0.00  0.00    +0.119 C 
ATOM     23  C   UNL     1      -1.721   4.549  25.284  0.00  0.00    -0.009 C 
ATOM     24  C   UNL     1      -1.003   4.167  25.153  0.00  0.00    -0.025 C 
ENDROOT
BRANCH   8   7
ATOM      1  C   UNL     1      -0.024   2.769  26.544  0.00  0.00    +0.054 C 
ATOM      2  C   UNL     1      -0.044   2.498  25.764  0.00  0.00    +0.077 A 
ATOM      3  N   UNL     1       0.436   1.911  25.443  0.00  0.00    -0.170 NA
ATOM      4  N   UNL     1       0.229   1.817  24.650  0.00  0.00    -0.234 N 
ATOM      5  C   UNL     1      -0.381   2.347  24.481  0.00  0.00    +0.058 A 
ATOM      6  C   UNL     1      -0.756   2.440  23.752  0.00  0.00    +0.052 C 
ATOM      7  C   UNL     1      -0.550   2.769  25.171  0.00  0.00    +0.010 A 
BRANCH   4  25
ATOM     25  C   UNL     1       0.570   1.286  24.118  0.00  0.00    +0.083 A 
ATOM     26  C   UNL     1       0.212   0.557  23.976  0.00  0.00    +0.030 A 
ATOM     27  C   UNL     1       0.553   0.026  23.444  0.00  0.00    +0.055 A 
ATOM     28 CL   UNL     1       0.195  -0.704  23.302  0.00  0.00    -0.083 Cl
ATOM     29  C   UNL     1       1.252   0.225  23.055  0.00  0.00    -0.011 A 
ATOM     30  C   UNL     1       1.593  -0.306  22.523  0.00  0.00    +0.032 C 
ATOM     31  C   UNL     1       1.611   0.955  23.196  0.00  0.00    -0.002 A 
ATOM     32  C   UNL     1       1.269   1.486  23.728  0.00  0.00    +0.019 A 
ENDBRANCH   4  25
ENDBRANCH   8   7
BRANCH  10  11
ATOM     11  N   UNL     1      -3.082   4.114  25.632  0.00  0.00    -0.184 NA
ATOM     12  C   UNL     1      -3.646   3.532  25.476  0.00  0.00    +0.344 C 
ATOM     13  O   UNL     1      -3.415   2.810  25.152  0.00  0.00    -0.249 OA
ATOM     14  N   UNL     1      -4.441   3.672  25.646  0.00  0.00    -0.161 NA
BRANCH  14  15
ATOM     15  C   UNL     1      -5.005   3.091  25.491  0.00  0.00    +0.076 A 
ATOM     16  C   UNL     1      -5.446   2.770  26.109  0.00  0.00    +0.027 A 
ATOM     17  C   UNL     1      -6.011   2.187  25.954  0.00  0.00    +0.070 A 
ATOM     18  C   UNL     1      -6.133   1.927  25.180  0.00  0.00    +0.010 A 
ATOM     19  C   UNL     1      -5.690   2.249  24.562  0.00  0.00    +0.002 A 
ATOM     20  C   UNL     1      -5.127   2.831  24.717  0.00  0.00    +0.017 A 
BRANCH  17  21
ATOM     21  C   UNL     1      -6.452   1.866  26.572  0.00  0.00    +0.100 C 
ATOM     22  N   UNL     1      -6.895   1.545  27.190  0.00  0.00    -0.191 NA
ENDBRANCH  17  21
ENDBRANCH  14  15
ENDBRANCH  10  11
TORSDOF 5
ENDMDL
MODEL 7
REMARK VINA RESULT:     -10.1      3.139      4.639
REMARK  Name = 
REMARK  5 active torsions:
REMARK  status: ('A' for Active; 'I' for Inactive)
REMARK    1  A    between atoms: N_4  and  C_25
REMARK    2  A    between atoms: C_7  and  C_8
REMARK    3  A    between atoms: C_10  and  N_11
REMARK    4  A    between atoms: N_14  and  C_15
REMARK    5  A    between atoms: C_17  and  C_21
REMARK                            x       y       z     vdW  Elec       q    Type
REMARK                         _______ _______ _______ _____ _____    ______ ____
ROOT
ATOM      8  C   UNL     1      -1.625   3.190  24.967  0.00  0.00    +0.048 C 
ATOM      9  C   UNL     1      -1.150   2.544  25.159  0.00  0.00    +0.035 C 
ATOM     10  C   UNL     1      -0.396   2.683  24.858  0.00  0.00    +0.119 C 
ATOM     23  C   UNL     1      -0.404   3.415  24.478  0.00  0.00    -0.009 C 
ATOM     24  C   UNL     1      -1.163   3.729  24.546  0.00  0.00    -0.025 C 
ENDROOT
BRANCH   8   7
ATOM      1  C   UNL     1      -2.336   4.558  25.888  0.00  0.00    +0.054 C 
ATOM      2  C   UNL     1      -2.749   3.910  25.584  0.00  0.00    +0.077 A 
ATOM      3  N   UNL     1      -3.560   3.779  25.650  0.00  0.00    -0.170 NA
ATOM      4  N   UNL     1      -3.735   3.069  25.267  0.00  0.00    -0.234 N 
ATOM      5  C   UNL     1      -3.031   2.762  24.965  0.00  0.00    +0.058 A 
ATOM      6  C   UNL     1      -2.951   2.058  24.541  0.00  0.00    +0.052 C 
ATOM      7  C   UNL     1      -2.421   3.283  25.161  0.00  0.00    +0.010 A 
BRANCH   4  25
ATOM     25  C   UNL     1      -4.482   2.726  25.198  0.00  0.00    +0.083 A 
ATOM     26  C   UNL     1      -4.929   2.574  25.874  0.00  0.00    +0.030 A 
ATOM     27  C   UNL     1      -5.677   2.231  25.805  0.00  0.00    +0.055 A 
ATOM     28 CL   UNL     1      -6.125   2.079  26.482  0.00  0.00    -0.083 Cl
ATOM     29  C   UNL     1      -5.976   2.040  25.062  0.00  0.00    -0.011 A 
ATOM     30  C   UNL     1      -6.724   1.697  24.993  0.00  0.00    +0.032 C 
ATOM     31  C   UNL     1      -5.529   2.192  24.385  0.00  0.00    -0.002 A 
ATOM     32  C   UNL     1      -4.781   2.535  24.453  0.00  0.00    +0.019 A 
ENDBRANCH   4  25
ENDBRANCH   8   7
BRANCH  10  11
ATOM     11  N   UNL     1       0.254   2.178  24.923  0.00  0.00    -0.184 NA
ATOM     12  C   UNL     1       0.498   1.732  24.274  0.00  0.00    +0.344 C 
ATOM     13  O   UNL     1       0.093   1.790  23.558  0.00  0.00    -0.249 OA
ATOM     14  N   UNL     1       1.148   1.228  24.340  0.00  0.00    -0.161 NA
BRANCH  14  15
ATOM     15  C   UNL     1       1.392   0.782  23.690  0.00  0.00    +0.076 A 
ATOM     16  C   UNL     1       2.154   0.876  23.389  0.00  0.00    +0.027 A 
ATOM     17  C   UNL     1       2.399   0.430  22.739  0.00  0.00    +0.070 A 
ATOM     18  C   UNL     1       1.880  -0.110  22.391  0.00  0.00    +0.010 A 
ATOM     19  C   UNL     1       1.118  -0.203  22.693  0.00  0.00    +0.002 A 
ATOM     20  C   UNL     1       0.874   0.243  23.342  0.00  0.00    +0.017 A 
BRANCH  17  21
ATOM     21  C   UNL     1       3.161   0.523  22.438  0.00  0.00    +0.100 C 
ATOM     22  N   UNL     1       3.923   0.617  22.136  0.00  0.00    -0.191 NA
ENDBRANCH  17  21
ENDBRANCH  14  15
ENDBRANCH  10  11
TORSDOF 5
ENDMDL
