MODEL 1
REMARK VINA RESULT:     -14.0      0.000      0.000
REMARK  Name = 
REMARK  4 active torsions:
REMARK  status: ('A' for Active; 'I' for Inactive)
REMARK    1  A    between atoms: C_10  and  C_12
REMARK    2  A    between atoms: C_12  and  C_13
REMARK    3  A    between atoms: C_18  and  C_20
REMARK    4  A    between atoms: C_31  and  C_33
REMARK                            x       y       z     vdW  Elec       q    Type
REMARK                         _______ _______ _______ _____ _____    ______ ____
ROOT
ATOM     13  C   UNL     1      -3.801   1.505  24.779  0.00  0.00    +0.050 C 
ATOM     14  C   UNL     1      -3.027   1.788  24.723  0.00  0.00    +0.063 A 
ATOM     15  C   UNL     1      -2.863   2.578  24.899  0.00  0.00    +0.023 A 
ATOM     16  C   UNL     1      -3.472   3.084  25.129  0.00  0.00    +0.034 C 
ATOM     17  C   UNL     1      -4.245   2.802  25.185  0.00  0.00    +0.010 C 
ATOM     18  C   UNL     1      -4.853   3.308  25.415  0.00  0.00    +0.059 C 
ATOM     19  C   UNL     1      -4.215   3.830  25.443  0.00  0.00    +0.005 C 
ATOM     22  C   UNL     1      -5.627   3.026  25.471  0.00  0.00    +0.154 C 
ATOM     23  O   UNL     1      -6.236   3.533  25.701  0.00  0.00    -0.223 OA
ATOM     24  C   UNL     1      -5.791   2.237  25.296  0.00  0.00    +0.033 C 
ATOM     25  C   UNL     1      -5.182   1.730  25.065  0.00  0.00    +0.003 C 
ATOM     26  C   UNL     1      -4.409   2.013  25.010  0.00  0.00    +0.006 C 
ATOM     27  C   UNL     1      -4.574   1.223  24.834  0.00  0.00    +0.000 C 
ATOM     28  S   UNL     1      -2.053   2.698  24.796  0.00  0.00    -0.054 S 
ATOM     29  C   UNL     1      -1.718   1.984  24.557  0.00  0.00    +0.185 A 
ATOM     30  N   UNL     1      -0.920   1.855  24.392  0.00  0.00    -0.154 NA
ATOM     31  C   UNL     1      -0.378   2.473  24.461  0.00  0.00    +0.247 C 
ATOM     32  O   UNL     1       0.420   2.343  24.296  0.00  0.00    -0.273 OA
ATOM     37  N   UNL     1      -2.319   1.421  24.512  0.00  0.00    -0.227 NA
ENDROOT
BRANCH  31  33
ATOM     33  C   UNL     1      -0.635   3.221  24.695  0.00  0.00    +0.079 C 
ATOM     34  C   UNL     1      -0.887   3.901  24.300  0.00  0.00    +0.009 C 
ATOM     35  C   UNL     1      -0.999   4.279  25.025  0.00  0.00    +0.001 C 
ATOM     36  C   UNL     1      -0.748   3.600  25.419  0.00  0.00    +0.009 C 
ENDBRANCH  31  33
BRANCH  18  20
ATOM     20  C   UNL     1      -5.241   3.996  25.656  0.00  0.00    +0.184 C 
ATOM     21  O   UNL     1      -4.826   4.707  25.707  0.00  0.00    -0.220 OA
ENDBRANCH  18  20
BRANCH  13  12
ATOM     12  C   UNL     1      -3.965   0.717  24.604  0.00  0.00    +0.091 C 
BRANCH  12  10
ATOM      1  C   UNL     1      -3.510  -3.625  24.640  0.00  0.00    +0.095 C 
ATOM      2  C   UNL     1      -3.759  -3.028  24.127  0.00  0.00    +0.226 C 
ATOM      3  O   UNL     1      -4.017  -3.219  23.368  0.00  0.00    -0.275 OA
ATOM      4  N   UNL     1      -3.748  -2.241  24.375  0.00  0.00    -0.276 N 
ATOM      5  C   UNL     1      -3.996  -1.644  23.862  0.00  0.00    +0.115 C 
ATOM      6  C   UNL     1      -3.986  -0.857  24.110  0.00  0.00    +0.115 C 
ATOM      7  N   UNL     1      -3.727  -0.667  24.869  0.00  0.00    -0.276 N 
ATOM      8  C   UNL     1      -3.479  -1.263  25.381  0.00  0.00    +0.115 C 
ATOM      9  C   UNL     1      -3.490  -2.050  25.134  0.00  0.00    +0.115 C 
ATOM     10  C   UNL     1      -3.717   0.120  25.116  0.00  0.00    +0.226 C 
ATOM     11  O   UNL     1      -3.458   0.311  25.876  0.00  0.00    -0.275 OA
ENDBRANCH  12  10
ENDBRANCH  13  12
TORSDOF 4
ENDMDL
MODEL 2
REMARK VINA RESULT:     -12.4      1.690      3.546
REMARK  Name = 
REMARK  4 active torsions:
REMARK  status: ('A' for Active; 'I' for Inactive)
REMARK    1  A    between atoms: C_10  and  C_12
REMARK    2  A    between atoms: C_12  and  C_13
REMARK    3  A    between atoms: C_18  and  C_20
REMARK    4  A    between atoms: C_31  and  C_33
REMARK                            x       y       z     vdW  Elec       q    Type
REMARK                         _______ _______ _______ _____ _____    ______ ____
ROOT
ATOM     13  C   UNL     1      -1.957   2.235  24.772  0.00  0.00    +0.050 C 
ATOM     14  C   UNL     1      -2.771   2.233  24.906  0.00  0.00    +0.063 A 
ATOM     15  C   UNL     1      -3.163   2.941  25.069  0.00  0.00    +0.023 A 
ATOM     16  C   UNL     1      -2.741   3.649  25.098  0.00  0.00    +0.034 C 
ATOM     17  C   UNL     1      -1.928   3.650  24.963  0.00  0.00    +0.010 C 
ATOM     18  C   UNL     1      -1.506   4.358  24.992  0.00  0.00    +0.059 C 
ATOM     19  C   UNL     1      -2.265   4.637  25.156  0.00  0.00    +0.005 C 
ATOM     22  C   UNL     1      -0.692   4.360  24.857  0.00  0.00    +0.154 C 
ATOM     23  O   UNL     1      -0.270   5.069  24.886  0.00  0.00    -0.223 OA
ATOM     24  C   UNL     1      -0.300   3.653  24.694  0.00  0.00    +0.033 C 
ATOM     25  C   UNL     1      -0.722   2.944  24.666  0.00  0.00    +0.003 C 
ATOM     26  C   UNL     1      -1.535   2.943  24.800  0.00  0.00    +0.006 C 
ATOM     27  C   UNL     1      -1.143   2.236  24.637  0.00  0.00    +0.000 C 
ATOM     28  S   UNL     1      -3.964   2.769  25.178  0.00  0.00    -0.054 S 
ATOM     29  C   UNL     1      -4.065   1.957  25.082  0.00  0.00    +0.185 A 
ATOM     30  N   UNL     1      -4.778   1.547  25.143  0.00  0.00    -0.154 NA
ATOM     31  C   UNL     1      -5.475   1.954  25.315  0.00  0.00    +0.247 C 
ATOM     32  O   UNL     1      -6.188   1.544  25.376  0.00  0.00    -0.273 OA
ATOM     37  N   UNL     1      -3.329   1.625  24.914  0.00  0.00    -0.227 NA
ENDROOT
BRANCH  31  33
ATOM     33  C   UNL     1      -5.457   2.771  25.425  0.00  0.00    +0.079 C 
ATOM     34  C   UNL     1      -5.356   3.270  26.075  0.00  0.00    +0.009 C 
ATOM     35  C   UNL     1      -5.432   3.928  25.583  0.00  0.00    +0.001 C 
ATOM     36  C   UNL     1      -5.533   3.429  24.933  0.00  0.00    +0.009 C 
ENDBRANCH  31  33
BRANCH  18  20
ATOM     20  C   UNL     1      -1.348   5.164  25.077  0.00  0.00    +0.184 C 
ATOM     21  O   UNL     1      -1.939   5.676  25.339  0.00  0.00    -0.220 OA
ENDBRANCH  18  20
BRANCH  13  12
ATOM     12  C   UNL     1      -1.565   1.528  24.609  0.00  0.00    +0.091 C 
BRANCH  12  10
ATOM      1  C   UNL     1      -1.084  -2.773  25.184  0.00  0.00    +0.095 C 
ATOM      2  C   UNL     1      -1.242  -2.239  24.576  0.00  0.00    +0.226 C 
ATOM      3  O   UNL     1      -1.359  -2.514  23.807  0.00  0.00    -0.275 OA
ATOM      4  N   UNL     1      -1.283  -1.431  24.736  0.00  0.00    -0.276 N 
ATOM      5  C   UNL     1      -1.441  -0.897  24.128  0.00  0.00    +0.115 C 
ATOM      6  C   UNL     1      -1.483  -0.088  24.288  0.00  0.00    +0.115 C 
ATOM      7  N   UNL     1      -1.365   0.186  25.057  0.00  0.00    -0.276 N 
ATOM      8  C   UNL     1      -1.207  -0.347  25.665  0.00  0.00    +0.115 C 
ATOM      9  C   UNL     1      -1.166  -1.156  25.505  0.00  0.00    +0.115 C 
ATOM     10  C   UNL     1      -1.406   0.994  25.217  0.00  0.00    +0.226 C 
ATOM     11  O   UNL     1      -1.289   1.269  25.986  0.00  0.00    -0.275 OA
ENDBRANCH  12  10
ENDBRANCH  13  12
TORSDOF 4
ENDMDL
MODEL 3
REMARK VINA RESULT:     -11.1      2.058      3.576
REMARK  Name = 
REMARK  4 active torsions:
REMARK  status: ('A' for Active; 'I' for Inactive)
REMARK    1  A    between atoms: C_10  and  C_12
REMARK    2  A    between atoms: C_12  and  C_13
REMARK    3  A    between atoms: C_18  and  C_20
REMARK    4  A    between atoms: C_31  and  C_33
REMARK                            x       y       z     vdW  Elec       q    Type
REMARK                         _______ _______ _______ _____ _____    ______ ____
ROOT
ATOM     13  C   UNL     1      -2.046   1.042  24.105  0.00  0.00    +0.050 C 
ATOM     14  C   UNL     1      -1.931   1.820  24.356  0.00  0.00    +0.063 A 
ATOM     15  C   UNL     1      -2.534   2.219  24.752  0.00  0.00    +0.023 A 
ATOM     16  C   UNL     1      -3.253   1.841  24.897  0.00  0.00    +0.034 C 
ATOM     17  C   UNL     1      -3.368   1.064  24.647  0.00  0.00    +0.010 C 
ATOM     18  C   UNL     1      -4.087   0.686  24.792  0.00  0.00    +0.059 C 
ATOM     19  C   UNL     1      -4.239   1.421  25.134  0.00  0.00    +0.005 C 
ATOM     22  C   UNL     1      -4.203  -0.091  24.541  0.00  0.00    +0.154 C 
ATOM     23  O   UNL     1      -4.922  -0.470  24.686  0.00  0.00    -0.223 OA
ATOM     24  C   UNL     1      -3.599  -0.491  24.145  0.00  0.00    +0.033 C 
ATOM     25  C   UNL     1      -2.880  -0.113  23.999  0.00  0.00    +0.003 C 
ATOM     26  C   UNL     1      -2.765   0.664  24.250  0.00  0.00    +0.006 C 
ATOM     27  C   UNL     1      -2.162   0.265  23.854  0.00  0.00    +0.000 C 
ATOM     28  S   UNL     1      -2.262   2.977  24.933  0.00  0.00    -0.054 S 
ATOM     29  C   UNL     1      -1.492   3.046  24.648  0.00  0.00    +0.185 A 
ATOM     30  N   UNL     1      -1.010   3.713  24.709  0.00  0.00    -0.154 NA
ATOM     31  C   UNL     1      -1.291   4.392  25.082  0.00  0.00    +0.247 C 
ATOM     32  O   UNL     1      -0.809   5.059  25.143  0.00  0.00    -0.273 OA
ATOM     37  N   UNL     1      -1.286   2.331  24.291  0.00  0.00    -0.227 NA
ENDROOT
BRANCH  31  33
ATOM     33  C   UNL     1      -2.054   4.404  25.395  0.00  0.00    +0.079 C 
ATOM     34  C   UNL     1      -2.388   4.214  26.125  0.00  0.00    +0.009 C 
ATOM     35  C   UNL     1      -3.134   4.420  25.838  0.00  0.00    +0.001 C 
ATOM     36  C   UNL     1      -2.800   4.610  25.108  0.00  0.00    +0.009 C 
ENDBRANCH  31  33
BRANCH  18  20
ATOM     20  C   UNL     1      -4.859   0.563  25.056  0.00  0.00    +0.184 C 
ATOM     21  O   UNL     1      -5.296   1.192  25.362  0.00  0.00    -0.220 OA
ENDBRANCH  18  20
BRANCH  13  12
ATOM     12  C   UNL     1      -1.444   0.643  23.709  0.00  0.00    +0.091 C 
BRANCH  12  10
ATOM      1  C   UNL     1       2.711  -0.408  22.872  0.00  0.00    +0.095 C 
ATOM      2  C   UNL     1       2.032  -0.177  22.465  0.00  0.00    +0.226 C 
ATOM      3  O   UNL     1       2.053  -0.093  21.645  0.00  0.00    -0.275 OA
ATOM      4  N   UNL     1       1.333  -0.029  22.878  0.00  0.00    -0.276 N 
ATOM      5  C   UNL     1       0.654   0.202  22.471  0.00  0.00    +0.115 C 
ATOM      6  C   UNL     1      -0.045   0.349  22.883  0.00  0.00    +0.115 C 
ATOM      7  N   UNL     1      -0.065   0.265  23.703  0.00  0.00    -0.276 N 
ATOM      8  C   UNL     1       0.613   0.034  24.111  0.00  0.00    +0.115 C 
ATOM      9  C   UNL     1       1.312  -0.113  23.698  0.00  0.00    +0.115 C 
ATOM     10  C   UNL     1      -0.764   0.412  24.116  0.00  0.00    +0.226 C 
ATOM     11  O   UNL     1      -0.785   0.328  24.936  0.00  0.00    -0.275 OA
ENDBRANCH  12  10
ENDBRANCH  13  12
TORSDOF 4
ENDMDL
MODEL 4
REMARK VINA RESULT:     -11.0      1.565      4.558
REMARK  Name = 
REMARK  4 active torsions:
REMARK  status: ('A' for Active; 'I' for Inactive)
REMARK    1  A    between atoms: C_10  and  C_12
REMARK    2  A    between atoms: C_12  and  C_13
REMARK    3  A    between atoms: C_18  and  C_20
REMARK    4  A    between atoms: C_31  and  C_33
REMARK                            x       y       z     vdW  Elec       q    Type
REMARK                         _______ _______ _______ _____ _____    ______ ____
ROOT
ATOM     13  C   UNL     1      -3.015   0.047  24.833  0.00  0.00    +0.050 C 
ATOM     14  C   UNL     1      -2.266   0.334  24.638  0.00  0.00    +0.063 A 
ATOM     15  C   UNL     1      -1.674  -0.187  24.396  0.00  0.00    +0.023 A 
ATOM     16  C   UNL     1      -1.831  -0.996  24.349  0.00  0.00    +0.034 C 
ATOM     17  C   UNL     1      -2.579  -1.283  24.544  0.00  0.00    +0.010 C 
ATOM     18  C   UNL     1      -2.735  -2.091  24.497  0.00  0.00    +0.059 C 
ATOM     19  C   UNL     1      -1.946  -2.084  24.257  0.00  0.00    +0.005 C 
ATOM     22  C   UNL     1      -3.483  -2.380  24.692  0.00  0.00    +0.154 C 
ATOM     23  O   UNL     1      -3.640  -3.188  24.646  0.00  0.00    -0.223 OA
ATOM     24  C   UNL     1      -4.075  -1.858  24.934  0.00  0.00    +0.033 C 
ATOM     25  C   UNL     1      -3.919  -1.049  24.981  0.00  0.00    +0.003 C 
ATOM     26  C   UNL     1      -3.171  -0.762  24.786  0.00  0.00    +0.006 C 
ATOM     27  C   UNL     1      -3.763  -0.241  25.027  0.00  0.00    +0.000 C 
ATOM     28  S   UNL     1      -0.994   0.254  24.240  0.00  0.00    -0.054 S 
ATOM     29  C   UNL     1      -1.166   1.047  24.385  0.00  0.00    +0.185 A 
ATOM     30  N   UNL     1      -0.644   1.680  24.300  0.00  0.00    -0.154 NA
ATOM     31  C   UNL     1       0.130   1.545  24.048  0.00  0.00    +0.247 C 
ATOM     32  O   UNL     1       0.652   2.178  23.962  0.00  0.00    -0.273 OA
ATOM     37  N   UNL     1      -1.952   1.097  24.631  0.00  0.00    -0.227 NA
ENDROOT
BRANCH  31  33
ATOM     33  C   UNL     1       0.381   0.777  23.881  0.00  0.00    +0.079 C 
ATOM     34  C   UNL     1       0.422   0.312  23.201  0.00  0.00    +0.009 C 
ATOM     35  C   UNL     1       0.736  -0.309  23.645  0.00  0.00    +0.001 C 
ATOM     36  C   UNL     1       0.694   0.156  24.325  0.00  0.00    +0.009 C 
ENDBRANCH  31  33
BRANCH  18  20
ATOM     20  C   UNL     1      -2.617  -2.898  24.367  0.00  0.00    +0.184 C 
ATOM     21  O   UNL     1      -1.891  -3.170  24.087  0.00  0.00    -0.220 OA
ENDBRANCH  18  20
BRANCH  13  12
ATOM     12  C   UNL     1      -3.606   0.567  25.074  0.00  0.00    +0.091 C 
BRANCH  12  10
ATOM      1  C   UNL     1      -5.813   4.335  25.075  0.00  0.00    +0.095 C 
ATOM      2  C   UNL     1      -5.485   3.804  25.615  0.00  0.00    +0.226 C 
ATOM      3  O   UNL     1      -5.545   3.950  26.424  0.00  0.00    -0.275 OA
ATOM      4  N   UNL     1      -5.097   3.127  25.345  0.00  0.00    -0.276 N 
ATOM      5  C   UNL     1      -4.769   2.596  25.884  0.00  0.00    +0.115 C 
ATOM      6  C   UNL     1      -4.382   1.920  25.614  0.00  0.00    +0.115 C 
ATOM      7  N   UNL     1      -4.322   1.775  24.805  0.00  0.00    -0.276 N 
ATOM      8  C   UNL     1      -4.650   2.305  24.265  0.00  0.00    +0.115 C 
ATOM      9  C   UNL     1      -5.037   2.981  24.535  0.00  0.00    +0.115 C 
ATOM     10  C   UNL     1      -3.934   1.098  24.535  0.00  0.00    +0.226 C 
ATOM     11  O   UNL     1      -3.874   0.952  23.725  0.00  0.00    -0.275 OA
ENDBRANCH  12  10
ENDBRANCH  13  12
TORSDOF 4
ENDMDL
MODEL 5
REMARK VINA RESULT:     -11.0      2.136      4.680
REMARK  Name = 
REMARK  4 active torsions:
REMARK  status: ('A' for Active; 'I' for Inactive)
REMARK    1  A    between atoms: C_10  and  C_12
REMARK    2  A    between atoms: C_12  and  C_13
REMARK    3  A    between atoms: C_18  and  C_20
REMARK    4  A    between atoms: C_31  and  C_33
REMARK                            x       y       z     vdW  Elec       q    Type
REMARK                         _______ _______ _______ _____ _____    ______ ____
ROOT
ATOM     13  C   UNL     1      -1.662   0.076  24.142  0.00  0.00    +0.050 C 
ATOM     14  C   UNL     1      -2.088   0.783  24.166  0.00  0.00    +0.063 A 
ATOM     15  C   UNL     1      -2.817   0.813  24.549  0.00  0.00    +0.023 A 
ATOM     16  C   UNL     1      -3.122   0.136  24.910  0.00  0.00    +0.034 C 
ATOM     17  C   UNL     1      -2.698  -0.570  24.886  0.00  0.00    +0.010 C 
ATOM     18  C   UNL     1      -3.002  -1.246  25.247  0.00  0.00    +0.059 C 
ATOM     19  C   UNL     1      -3.606  -0.710  25.415  0.00  0.00    +0.005 C 
ATOM     22  C   UNL     1      -2.578  -1.954  25.224  0.00  0.00    +0.154 C 
ATOM     23  O   UNL     1      -2.882  -2.631  25.584  0.00  0.00    -0.223 OA
ATOM     24  C   UNL     1      -1.848  -1.984  24.840  0.00  0.00    +0.033 C 
ATOM     25  C   UNL     1      -1.543  -1.307  24.479  0.00  0.00    +0.003 C 
ATOM     26  C   UNL     1      -1.968  -0.600  24.503  0.00  0.00    +0.006 C 
ATOM     27  C   UNL     1      -1.238  -0.631  24.119  0.00  0.00    +0.000 C 
ATOM     28  S   UNL     1      -3.109   1.583  24.483  0.00  0.00    -0.054 S 
ATOM     29  C   UNL     1      -2.559   2.027  24.058  0.00  0.00    +0.185 A 
ATOM     30  N   UNL     1      -2.629   2.825  23.864  0.00  0.00    -0.154 NA
ATOM     31  C   UNL     1      -3.295   3.251  24.098  0.00  0.00    +0.247 C 
ATOM     32  O   UNL     1      -3.364   4.050  23.903  0.00  0.00    -0.273 OA
ATOM     37  N   UNL     1      -1.928   1.534  23.862  0.00  0.00    -0.227 NA
ENDROOT
BRANCH  31  33
ATOM     33  C   UNL     1      -3.892   2.878  24.528  0.00  0.00    +0.079 C 
ATOM     34  C   UNL     1      -4.576   2.461  24.332  0.00  0.00    +0.009 C 
ATOM     35  C   UNL     1      -4.737   2.349  25.134  0.00  0.00    +0.001 C 
ATOM     36  C   UNL     1      -4.052   2.766  25.329  0.00  0.00    +0.009 C 
ENDBRANCH  31  33
BRANCH  18  20
ATOM     20  C   UNL     1      -3.517  -1.737  25.666  0.00  0.00    +0.184 C 
ATOM     21  O   UNL     1      -3.987  -1.425  26.266  0.00  0.00    -0.220 OA
ENDBRANCH  18  20
BRANCH  13  12
ATOM     12  C   UNL     1      -0.934   0.045  23.759  0.00  0.00    +0.091 C 
BRANCH  12  10
ATOM      1  C   UNL     1       3.258   0.807  22.805  0.00  0.00    +0.095 C 
ATOM      2  C   UNL     1       2.606   0.418  22.483  0.00  0.00    +0.226 C 
ATOM      3  O   UNL     1       2.677   0.024  21.762  0.00  0.00    -0.275 OA
ATOM      4  N   UNL     1       1.884   0.422  22.882  0.00  0.00    -0.276 N 
ATOM      5  C   UNL     1       1.232   0.032  22.561  0.00  0.00    +0.115 C 
ATOM      6  C   UNL     1       0.510   0.037  22.960  0.00  0.00    +0.115 C 
ATOM      7  N   UNL     1       0.440   0.430  23.681  0.00  0.00    -0.276 N 
ATOM      8  C   UNL     1       1.092   0.820  24.003  0.00  0.00    +0.115 C 
ATOM      9  C   UNL     1       1.814   0.816  23.604  0.00  0.00    +0.115 C 
ATOM     10  C   UNL     1      -0.281   0.435  24.080  0.00  0.00    +0.226 C 
ATOM     11  O   UNL     1      -0.352   0.829  24.802  0.00  0.00    -0.275 OA
ENDBRANCH  12  10
ENDBRANCH  13  12
TORSDOF 4
ENDMDL
MODEL 6
REMARK VINA RESULT:     -10.8      1.656      5.303
REMARK  Name = 
REMARK  4 active torsions:
REMARK  status: ('A' for Active; 'I' for Inactive)
REMARK    1  A    between atoms: C_10  and  C_12
REMARK    2  A    between atoms: C_12  and  C_13
REMARK    3  A    between atoms: C_18  and  C_20
REMARK    4  A    between atoms: C_31  and  C_33
REMARK                            x       y       z     vdW  Elec       q    Type
REMARK                         _______ _______ _______ _____ _____    ______ ____
ROOT
ATOM     13  C   UNL     1      -1.747   1.229  24.713  0.00  0.00    +0.050 C 
ATOM     14  C   UNL     1      -2.046   0.460  24.765  0.00  0.00    +0.063 A 
ATOM     15  C   UNL     1      -1.571  -0.181  24.556  0.00  0.00    +0.023 A 
ATOM     16  C   UNL     1      -0.799  -0.055  24.295  0.00  0.00    +0.034 C 
ATOM     17  C   UNL     1      -0.501   0.712  24.242  0.00  0.00    +0.010 C 
ATOM     18  C   UNL     1       0.271   0.837  23.981  0.00  0.00    +0.059 C 
ATOM     19  C   UNL     1       0.237   0.014  23.938  0.00  0.00    +0.005 C 
ATOM     22  C   UNL     1       0.570   1.605  23.928  0.00  0.00    +0.154 C 
ATOM     23  O   UNL     1       1.342   1.731  23.667  0.00  0.00    -0.223 OA
ATOM     24  C   UNL     1       0.095   2.247  24.137  0.00  0.00    +0.033 C 
ATOM     25  C   UNL     1      -0.678   2.121  24.399  0.00  0.00    +0.003 C 
ATOM     26  C   UNL     1      -0.975   1.354  24.451  0.00  0.00    +0.006 C 
ATOM     27  C   UNL     1      -1.450   1.995  24.660  0.00  0.00    +0.000 C 
ATOM     28  S   UNL     1      -2.013  -0.870  24.664  0.00  0.00    -0.054 S 
ATOM     29  C   UNL     1      -2.759  -0.654  24.940  0.00  0.00    +0.185 A 
ATOM     30  N   UNL     1      -3.377  -1.170  25.121  0.00  0.00    -0.154 NA
ATOM     31  C   UNL     1      -3.275  -1.983  25.031  0.00  0.00    +0.247 C 
ATOM     32  O   UNL     1      -3.893  -2.499  25.212  0.00  0.00    -0.273 OA
ATOM     37  N   UNL     1      -2.780   0.168  25.002  0.00  0.00    -0.227 NA
ENDROOT
BRANCH  31  33
ATOM     33  C   UNL     1      -2.555  -2.281  24.759  0.00  0.00    +0.079 C 
ATOM     34  C   UNL     1      -2.249  -2.480  24.020  0.00  0.00    +0.009 C 
ATOM     35  C   UNL     1      -1.537  -2.701  24.374  0.00  0.00    +0.001 C 
ATOM     36  C   UNL     1      -1.844  -2.502  25.114  0.00  0.00    +0.009 C 
ENDBRANCH  31  33
BRANCH  18  20
ATOM     20  C   UNL     1       1.032   0.678  23.705  0.00  0.00    +0.184 C 
ATOM     21  O   UNL     1       1.176  -0.002  23.261  0.00  0.00    -0.220 OA
ENDBRANCH  18  20
BRANCH  13  12
ATOM     12  C   UNL     1      -2.221   1.870  24.921  0.00  0.00    +0.091 C 
BRANCH  12  10
ATOM      1  C   UNL     1      -5.963   4.104  25.182  0.00  0.00    +0.095 C 
ATOM      2  C   UNL     1      -5.336   3.879  25.668  0.00  0.00    +0.226 C 
ATOM      3  O   UNL     1      -5.331   4.100  26.463  0.00  0.00    -0.275 OA
ATOM      4  N   UNL     1      -4.714   3.433  25.360  0.00  0.00    -0.276 N 
ATOM      5  C   UNL     1      -4.087   3.208  25.846  0.00  0.00    +0.115 C 
ATOM      6  C   UNL     1      -3.465   2.762  25.538  0.00  0.00    +0.115 C 
ATOM      7  N   UNL     1      -3.470   2.541  24.743  0.00  0.00    -0.276 N 
ATOM      8  C   UNL     1      -4.097   2.766  24.257  0.00  0.00    +0.115 C 
ATOM      9  C   UNL     1      -4.719   3.212  24.565  0.00  0.00    +0.115 C 
ATOM     10  C   UNL     1      -2.848   2.095  24.435  0.00  0.00    +0.226 C 
ATOM     11  O   UNL     1      -2.853   1.874  23.640  0.00  0.00    -0.275 OA
ENDBRANCH  12  10
ENDBRANCH  13  12
TORSDOF 4
ENDMDL
MODEL 7
REMARK VINA RESULT:     -10.1      2.355      4.959
REMARK  Name = 
REMARK  4 active torsions:
REMARK  status: ('A' for Active; 'I' for Inactive)
REMARK    1  A    between atoms: C_10  and  C_12
REMARK    2  A    between atoms: C_12  and  C_13
REMARK    3  A    between atoms: C_18  and  C_20
REMARK    4  A    between atoms: C_31  and  C_33
REMARK                            x       y       z     vdW  Elec       q    Type
REMARK                         _______ _______ _______ _____ _____    ______ ____
ROOT
ATOM     13  C   UNL     1      -0.874   0.937  24.320  0.00  0.00    +0.050 C 
ATOM     14  C   UNL     1      -1.262   0.218  24.438  0.00  0.00    +0.063 A 
ATOM     15  C   UNL     1      -2.063   0.209  24.638  0.00  0.00    +0.023 A 
ATOM     16  C   UNL     1      -2.475   0.920  24.720  0.00  0.00    +0.034 C 
ATOM     17  C   UNL     1      -2.087   1.638  24.602  0.00  0.00    +0.010 C 
ATOM     18  C   UNL     1      -2.499   2.347  24.684  0.00  0.00    +0.059 C 
ATOM     19  C   UNL     1      -3.103   1.811  24.851  0.00  0.00    +0.005 C 
ATOM     22  C   UNL     1      -2.111   3.066  24.566  0.00  0.00    +0.154 C 
ATOM     23  O   UNL     1      -2.523   3.776  24.648  0.00  0.00    -0.223 OA
ATOM     24  C   UNL     1      -1.311   3.074  24.366  0.00  0.00    +0.033 C 
ATOM     25  C   UNL     1      -0.898   2.364  24.284  0.00  0.00    +0.003 C 
ATOM     26  C   UNL     1      -1.287   1.646  24.402  0.00  0.00    +0.006 C 
ATOM     27  C   UNL     1      -0.486   1.654  24.202  0.00  0.00    +0.000 C 
ATOM     28  S   UNL     1      -2.297  -0.578  24.720  0.00  0.00    -0.054 S 
ATOM     29  C   UNL     1      -1.642  -1.055  24.570  0.00  0.00    +0.185 A 
ATOM     30  N   UNL     1      -1.628  -1.880  24.591  0.00  0.00    -0.154 NA
ATOM     31  C   UNL     1      -2.313  -2.300  24.775  0.00  0.00    +0.247 C 
ATOM     32  O   UNL     1      -2.300  -3.124  24.796  0.00  0.00    -0.273 OA
ATOM     37  N   UNL     1      -1.002  -0.564  24.396  0.00  0.00    -0.227 NA
ENDROOT
BRANCH  31  33
ATOM     33  C   UNL     1      -3.013  -1.894  24.938  0.00  0.00    +0.079 C 
ATOM     34  C   UNL     1      -3.362  -1.584  25.618  0.00  0.00    +0.009 C 
ATOM     35  C   UNL     1      -4.003  -1.321  25.169  0.00  0.00    +0.001 C 
ATOM     36  C   UNL     1      -3.654  -1.631  24.489  0.00  0.00    +0.009 C 
ENDBRANCH  31  33
BRANCH  18  20
ATOM     20  C   UNL     1      -3.121   2.871  24.824  0.00  0.00    +0.184 C 
ATOM     21  O   UNL     1      -3.860   2.584  25.051  0.00  0.00    -0.220 OA
ENDBRANCH  18  20
BRANCH  13  12
ATOM     12  C   UNL     1      -0.075   0.945  24.120  0.00  0.00    +0.091 C 
BRANCH  12  10
ATOM      1  C   UNL     1       3.645   0.177  21.966  0.00  0.00    +0.095 C 
ATOM      2  C   UNL     1       3.393   0.511  22.677  0.00  0.00    +0.226 C 
ATOM      3  O   UNL     1       3.947   0.821  23.205  0.00  0.00    -0.275 OA
ATOM      4  N   UNL     1       2.589   0.536  22.860  0.00  0.00    -0.276 N 
ATOM      5  C   UNL     1       2.338   0.871  23.571  0.00  0.00    +0.115 C 
ATOM      6  C   UNL     1       1.534   0.895  23.754  0.00  0.00    +0.115 C 
ATOM      7  N   UNL     1       0.981   0.586  23.227  0.00  0.00    -0.276 N 
ATOM      8  C   UNL     1       1.232   0.251  22.516  0.00  0.00    +0.115 C 
ATOM      9  C   UNL     1       2.036   0.226  22.333  0.00  0.00    +0.115 C 
ATOM     10  C   UNL     1       0.177   0.610  23.410  0.00  0.00    +0.226 C 
ATOM     11  O   UNL     1      -0.376   0.301  22.882  0.00  0.00    -0.275 OA
ENDBRANCH  12  10
ENDBRANCH  13  12
TORSDOF 4
ENDMDL
MODEL 8
REMARK VINA RESULT:     -10.0      1.917      4.193
REMARK  Name = 
REMARK  4 active torsions:
REMARK  status: ('A' for Active; 'I' for Inactive)
REMARK    1  A    between atoms: C_10  and  C_12
REMARK    2  A    between atoms: C_12  and  C_13
REMARK    3  A    between atoms: C_18  and  C_20
REMARK    4  A    between atoms: C_31  and  C_33
REMARK                            x       y       z     vdW  Elec       q    Type
REMARK                         _______ _______ _______ _____ _____    ______ ____
ROOT
ATOM     13  C   UNL     1      -1.546   2.122  24.313  0.00  0.00    +0.050 C 
ATOM     14  C   UNL     1      -2.205   1.627  24.357  0.00  0.00    +0.063 A 
ATOM     15  C   UNL     1      -2.893   1.888  24.730  0.00  0.00    +0.023 A 
ATOM     16  C   UNL     1      -2.922   2.644  25.059  0.00  0.00    +0.034 C 
ATOM     17  C   UNL     1      -2.264   3.139  25.015  0.00  0.00    +0.010 C 
ATOM     18  C   UNL     1      -2.293   3.894  25.344  0.00  0.00    +0.059 C 
ATOM     19  C   UNL     1      -3.054   3.630  25.525  0.00  0.00    +0.005 C 
ATOM     22  C   UNL     1      -1.635   4.390  25.301  0.00  0.00    +0.154 C 
ATOM     23  O   UNL     1      -1.664   5.146  25.630  0.00  0.00    -0.223 OA
ATOM     24  C   UNL     1      -0.947   4.129  24.927  0.00  0.00    +0.033 C 
ATOM     25  C   UNL     1      -0.917   3.372  24.598  0.00  0.00    +0.003 C 
ATOM     26  C   UNL     1      -1.576   2.878  24.642  0.00  0.00    +0.006 C 
ATOM     27  C   UNL     1      -0.888   2.617  24.269  0.00  0.00    +0.000 C 
ATOM     28  S   UNL     1      -3.451   1.281  24.689  0.00  0.00    -0.054 S 
ATOM     29  C   UNL     1      -3.108   0.647  24.291  0.00  0.00    +0.185 A 
ATOM     30  N   UNL     1      -3.472  -0.076  24.126  0.00  0.00    -0.154 NA
ATOM     31  C   UNL     1      -4.249  -0.211  24.367  0.00  0.00    +0.247 C 
ATOM     32  O   UNL     1      -4.612  -0.934  24.202  0.00  0.00    -0.273 OA
ATOM     37  N   UNL     1      -2.338   0.859  24.085  0.00  0.00    -0.227 NA
ENDROOT
BRANCH  31  33
ATOM     33  C   UNL     1      -4.662   0.376  24.772  0.00  0.00    +0.079 C 
ATOM     34  C   UNL     1      -4.771   0.569  25.567  0.00  0.00    +0.009 C 
ATOM     35  C   UNL     1      -5.247   1.206  25.347  0.00  0.00    +0.001 C 
ATOM     36  C   UNL     1      -5.139   1.013  24.552  0.00  0.00    +0.009 C 
ENDBRANCH  31  33
BRANCH  18  20
ATOM     20  C   UNL     1      -2.586   4.559  25.736  0.00  0.00    +0.184 C 
ATOM     21  O   UNL     1      -3.243   4.490  26.231  0.00  0.00    -0.220 OA
ENDBRANCH  18  20
BRANCH  13  12
ATOM     12  C   UNL     1      -0.859   1.861  23.940  0.00  0.00    +0.091 C 
BRANCH  12  10
ATOM      1  C   UNL     1       2.353  -0.900  22.881  0.00  0.00    +0.095 C 
ATOM      2  C   UNL     1       1.883  -0.323  22.524  0.00  0.00    +0.226 C 
ATOM      3  O   UNL     1       1.981  -0.150  21.724  0.00  0.00    -0.275 OA
ATOM      4  N   UNL     1       1.315   0.079  22.967  0.00  0.00    -0.276 N 
ATOM      5  C   UNL     1       0.845   0.655  22.611  0.00  0.00    +0.115 C 
ATOM      6  C   UNL     1       0.277   1.057  23.054  0.00  0.00    +0.115 C 
ATOM      7  N   UNL     1       0.179   0.883  23.854  0.00  0.00    -0.276 N 
ATOM      8  C   UNL     1       0.649   0.308  24.211  0.00  0.00    +0.115 C 
ATOM      9  C   UNL     1       1.217  -0.095  23.768  0.00  0.00    +0.115 C 
ATOM     10  C   UNL     1      -0.389   1.285  24.297  0.00  0.00    +0.226 C 
ATOM     11  O   UNL     1      -0.487   1.112  25.097  0.00  0.00    -0.275 OA
ENDBRANCH  12  10
ENDBRANCH  13  12
TORSDOF 4
ENDMDL
