MODEL 1
REMARK VINA RESULT:     -10.3      0.000      0.000
REMARK  Name = 
REMARK  8 active torsions:
REMARK  status: ('A' for Active; 'I' for Inactive)
REMARK    1  A    between atoms: O_2  and  C_3
REMARK    2  A    between atoms: C_3  and  C_5
REMARK    3  A    between atoms: C_5  and  N_6
REMARK    4  A    between atoms: C_5  and  C_34
REMARK    5  A    between atoms: C_7  and  C_9
REMARK    6  A    between atoms: C_10  and  N_22
REMARK    7  A    between atoms: C_14  and  C_16
REMARK    8  A    between atoms: N_25  and  C_26
REMARK                            x       y       z     vdW  Elec       q    Type
REMARK                         _______ _______ _______ _____ _____    ______ ____
ROOT
ATOM      9  C   UNL     1      -2.892   1.997  24.847  0.00  0.00    +0.174 C 
ATOM     10  C   UNL     1      -2.779   1.195  25.003  0.00  0.00    +0.126 C 
ATOM     11  C   UNL     1      -1.966   1.051  25.019  0.00  0.00    +0.045 C 
ATOM     12  C   UNL     1      -1.578   1.765  24.873  0.00  0.00    +0.096 C 
ATOM     13  N   UNL     1      -2.151   2.349  24.767  0.00  0.00    -0.267 N 
ATOM     14  C   UNL     1      -2.008   3.146  24.608  0.00  0.00    +0.265 C 
ATOM     15  O   UNL     1      -2.640   3.669  24.515  0.00  0.00    -0.268 OA
ENDROOT
BRANCH  14  16
ATOM     16  C   UNL     1      -1.233   3.421  24.542  0.00  0.00    +0.114 A 
ATOM     17  C   UNL     1      -0.614   3.038  24.153  0.00  0.00    +0.023 A 
ATOM     18  C   UNL     1       0.061   3.506  24.224  0.00  0.00    +0.020 A 
ATOM     19  C   UNL     1      -0.140   4.179  24.657  0.00  0.00    +0.076 A 
ATOM     20  N   UNL     1      -0.940   4.126  24.854  0.00  0.00    -0.320 N 
ATOM     21  C   UNL     1      -1.370   4.681  25.287  0.00  0.00    +0.131 C 
ENDBRANCH  14  16
BRANCH  10  22
ATOM     22  N   UNL     1      -3.372   0.634  25.122  0.00  0.00    -0.186 NA
ATOM     23  C   UNL     1      -3.257  -0.146  24.880  0.00  0.00    +0.344 C 
ATOM     24  O   UNL     1      -2.549  -0.366  24.518  0.00  0.00    -0.249 OA
ATOM     25  N   UNL     1      -3.851  -0.706  24.999  0.00  0.00    -0.159 NA
BRANCH  25  26
ATOM     26  C   UNL     1      -3.736  -1.487  24.757  0.00  0.00    +0.102 A 
ATOM     27  C   UNL     1      -4.209  -1.807  24.161  0.00  0.00    +0.158 A 
ATOM     28  F   UNL     1      -4.795  -1.347  23.807  0.00  0.00    -0.203 F 
ATOM     29  C   UNL     1      -4.094  -2.587  23.918  0.00  0.00    +0.061 A 
ATOM     30  C   UNL     1      -3.508  -3.047  24.272  0.00  0.00    +0.142 A 
ATOM     31  F   UNL     1      -3.393  -3.827  24.029  0.00  0.00    -0.204 F 
ATOM     32  C   UNL     1      -3.035  -2.727  24.868  0.00  0.00    +0.031 A 
ATOM     33  C   UNL     1      -3.150  -1.946  25.110  0.00  0.00    +0.021 A 
ENDBRANCH  25  26
ENDBRANCH  10  22
BRANCH   9   7
ATOM      6  N   UNL     1      -4.106   2.455  25.446  0.00  0.00    -0.194 NA
ATOM      7  C   UNL     1      -3.621   2.380  24.783  0.00  0.00    +0.262 C 
ATOM      8  O   UNL     1      -3.864   2.686  24.056  0.00  0.00    -0.271 OA
BRANCH   6   5
ATOM      5  C   UNL     1      -4.835   2.838  25.381  0.00  0.00    +0.193 C 
BRANCH   5  34
ATOM     34  C   UNL     1      -4.918   3.615  25.646  0.00  0.00    +0.031 C 
ATOM     35  C   UNL     1      -4.690   3.816  26.413  0.00  0.00    +0.002 C 
ATOM     36  C   UNL     1      -5.229   4.191  25.143  0.00  0.00    +0.002 C 
ENDBRANCH   5  34
BRANCH   5   3
ATOM      3  C   UNL     1      -5.480   2.442  25.053  0.00  0.00    +0.337 C 
ATOM      4  O   UNL     1      -5.651   2.526  24.250  0.00  0.00    -0.248 OA
BRANCH   3   2
ATOM      1  C   UNL     1      -6.607   1.576  25.202  0.00  0.00    +0.256 C 
ATOM      2  O   UNL     1      -5.955   1.962  25.528  0.00  0.00    -0.443 OA
ENDBRANCH   3   2
ENDBRANCH   5   3
ENDBRANCH   6   5
ENDBRANCH   9   7
TORSDOF 8
ENDMDL
MODEL 2
REMARK VINA RESULT:     -10.1      1.361      3.309
REMARK  Name = 
REMARK  8 active torsions:
REMARK  status: ('A' for Active; 'I' for Inactive)
REMARK    1  A    between atoms: O_2  and  C_3
REMARK    2  A    between atoms: C_3  and  C_5
REMARK    3  A    between atoms: C_5  and  N_6
REMARK    4  A    between atoms: C_5  and  C_34
REMARK    5  A    between atoms: C_7  and  C_9
REMARK    6  A    between atoms: C_10  and  N_22
REMARK    7  A    between atoms: C_14  and  C_16
REMARK    8  A    between atoms: N_25  and  C_26
REMARK                            x       y       z     vdW  Elec       q    Type
REMARK                         _______ _______ _______ _____ _____    ______ ____
ROOT
ATOM      9  C   UNL     1      -2.915   1.861  24.752  0.00  0.00    +0.174 C 
ATOM     10  C   UNL     1      -3.193   1.087  24.696  0.00  0.00    +0.126 C 
ATOM     11  C   UNL     1      -3.999   1.092  24.876  0.00  0.00    +0.045 C 
ATOM     12  C   UNL     1      -4.218   1.870  25.042  0.00  0.00    +0.096 C 
ATOM     13  N   UNL     1      -3.548   2.345  24.966  0.00  0.00    -0.267 N 
ATOM     14  C   UNL     1      -3.516   3.161  25.083  0.00  0.00    +0.265 C 
ATOM     15  O   UNL     1      -2.803   3.565  24.986  0.00  0.00    -0.268 OA
ENDROOT
BRANCH  14  16
ATOM     16  C   UNL     1      -4.197   3.574  25.296  0.00  0.00    +0.114 A 
ATOM     17  C   UNL     1      -4.920   3.556  24.899  0.00  0.00    +0.023 A 
ATOM     18  C   UNL     1      -5.445   4.048  25.301  0.00  0.00    +0.020 A 
ATOM     19  C   UNL     1      -5.048   4.371  25.948  0.00  0.00    +0.076 A 
ATOM     20  N   UNL     1      -4.276   4.078  25.945  0.00  0.00    -0.320 N 
ATOM     21  C   UNL     1      -3.687   4.258  26.494  0.00  0.00    +0.131 C 
ENDBRANCH  14  16
BRANCH  10  22
ATOM     22  N   UNL     1      -2.746   0.423  24.497  0.00  0.00    -0.186 NA
ATOM     23  C   UNL     1      -3.091  -0.327  24.508  0.00  0.00    +0.344 C 
ATOM     24  O   UNL     1      -3.883  -0.412  24.720  0.00  0.00    -0.249 OA
ATOM     25  N   UNL     1      -2.643  -0.990  24.308  0.00  0.00    -0.159 NA
BRANCH  25  26
ATOM     26  C   UNL     1      -2.988  -1.739  24.320  0.00  0.00    +0.102 A 
ATOM     27  C   UNL     1      -2.589  -2.371  24.670  0.00  0.00    +0.158 A 
ATOM     28  F   UNL     1      -1.846  -2.254  25.008  0.00  0.00    -0.203 F 
ATOM     29  C   UNL     1      -2.934  -3.121  24.681  0.00  0.00    +0.061 A 
ATOM     30  C   UNL     1      -3.677  -3.238  24.343  0.00  0.00    +0.142 A 
ATOM     31  F   UNL     1      -4.023  -3.987  24.355  0.00  0.00    -0.204 F 
ATOM     32  C   UNL     1      -4.076  -2.606  23.994  0.00  0.00    +0.031 A 
ATOM     33  C   UNL     1      -3.731  -1.856  23.982  0.00  0.00    +0.021 A 
ENDBRANCH  25  26
ENDBRANCH  10  22
BRANCH   9   7
ATOM      6  N   UNL     1      -1.535   1.863  25.124  0.00  0.00    -0.194 NA
ATOM      7  C   UNL     1      -2.139   2.108  24.618  0.00  0.00    +0.262 C 
ATOM      8  O   UNL     1      -1.967   2.600  23.978  0.00  0.00    -0.271 OA
BRANCH   6   5
ATOM      5  C   UNL     1      -0.759   2.110  24.990  0.00  0.00    +0.193 C 
BRANCH   5  34
ATOM     34  C   UNL     1      -0.407   2.660  25.495  0.00  0.00    +0.031 C 
ATOM     35  C   UNL     1      -0.275   2.467  26.287  0.00  0.00    +0.002 C 
ATOM     36  C   UNL     1      -0.189   3.402  25.209  0.00  0.00    +0.002 C 
ENDBRANCH   5  34
BRANCH   5   3
ATOM      3  C   UNL     1      -0.335   1.807  24.350  0.00  0.00    +0.337 C 
ATOM      4  O   UNL     1      -0.251   2.253  23.662  0.00  0.00    -0.248 OA
BRANCH   3   2
ATOM      1  C   UNL     1       0.472   0.774  23.782  0.00  0.00    +0.256 C 
ATOM      2  O   UNL     1       0.004   1.056  24.400  0.00  0.00    -0.443 OA
ENDBRANCH   3   2
ENDBRANCH   5   3
ENDBRANCH   6   5
ENDBRANCH   9   7
TORSDOF 8
ENDMDL
MODEL 3
REMARK VINA RESULT:      -9.8      2.861      4.625
REMARK  Name = 
REMARK  8 active torsions:
REMARK  status: ('A' for Active; 'I' for Inactive)
REMARK    1  A    between atoms: O_2  and  C_3
REMARK    2  A    between atoms: C_3  and  C_5
REMARK    3  A    between atoms: C_5  and  N_6
REMARK    4  A    between atoms: C_5  and  C_34
REMARK    5  A    between atoms: C_7  and  C_9
REMARK    6  A    between atoms: C_10  and  N_22
REMARK    7  A    between atoms: C_14  and  C_16
REMARK    8  A    between atoms: N_25  and  C_26
REMARK                            x       y       z     vdW  Elec       q    Type
REMARK                         _______ _______ _______ _____ _____    ______ ____
ROOT
ATOM      9  C   UNL     1      -1.655   1.130  24.510  0.00  0.00    +0.174 C 
ATOM     10  C   UNL     1      -0.987   1.178  24.028  0.00  0.00    +0.126 C 
ATOM     11  C   UNL     1      -0.847   1.975  23.864  0.00  0.00    +0.045 C 
ATOM     12  C   UNL     1      -1.430   2.419  24.246  0.00  0.00    +0.096 C 
ATOM     13  N   UNL     1      -1.928   1.896  24.644  0.00  0.00    -0.267 N 
ATOM     14  C   UNL     1      -2.585   2.103  25.098  0.00  0.00    +0.265 C 
ATOM     15  O   UNL     1      -3.034   1.517  25.466  0.00  0.00    -0.268 OA
ENDROOT
BRANCH  14  16
ATOM     16  C   UNL     1      -2.794   2.897  25.184  0.00  0.00    +0.114 A 
ATOM     17  C   UNL     1      -2.319   3.491  25.505  0.00  0.00    +0.023 A 
ATOM     18  C   UNL     1      -2.744   4.197  25.484  0.00  0.00    +0.020 A 
ATOM     19  C   UNL     1      -3.482   4.040  25.150  0.00  0.00    +0.076 A 
ATOM     20  N   UNL     1      -3.513   3.236  24.964  0.00  0.00    -0.320 N 
ATOM     21  C   UNL     1      -4.150   2.842  24.620  0.00  0.00    +0.131 C 
ENDBRANCH  14  16
BRANCH  10  22
ATOM     22  N   UNL     1      -0.537   0.542  23.756  0.00  0.00    -0.186 NA
ATOM     23  C   UNL     1       0.234   0.666  23.489  0.00  0.00    +0.344 C 
ATOM     24  O   UNL     1       0.555   1.426  23.493  0.00  0.00    -0.249 OA
ATOM     25  N   UNL     1       0.683   0.029  23.217  0.00  0.00    -0.159 NA
BRANCH  25  26
ATOM     26  C   UNL     1       1.454   0.153  22.950  0.00  0.00    +0.102 A 
ATOM     27  C   UNL     1       1.680  -0.120  22.205  0.00  0.00    +0.158 A 
ATOM     28  F   UNL     1       1.137  -0.516  21.728  0.00  0.00    -0.203 F 
ATOM     29  C   UNL     1       2.451   0.004  21.937  0.00  0.00    +0.061 A 
ATOM     30  C   UNL     1       2.995   0.401  22.415  0.00  0.00    +0.142 A 
ATOM     31  F   UNL     1       3.766   0.524  22.147  0.00  0.00    -0.204 F 
ATOM     32  C   UNL     1       2.768   0.673  23.160  0.00  0.00    +0.031 A 
ATOM     33  C   UNL     1       1.997   0.550  23.427  0.00  0.00    +0.021 A 
ENDBRANCH  25  26
ENDBRANCH  10  22
BRANCH   9   7
ATOM      6  N   UNL     1      -2.360  -0.094  24.292  0.00  0.00    -0.194 NA
ATOM      7  C   UNL     1      -1.990   0.436  24.805  0.00  0.00    +0.262 C 
ATOM      8  O   UNL     1      -1.956   0.272  25.613  0.00  0.00    -0.271 OA
BRANCH   6   5
ATOM      5  C   UNL     1      -2.695  -0.788  24.588  0.00  0.00    +0.193 C 
BRANCH   5  34
ATOM     34  C   UNL     1      -3.515  -0.858  24.646  0.00  0.00    +0.031 C 
ATOM     35  C   UNL     1      -3.869  -0.959  25.386  0.00  0.00    +0.002 C 
ATOM     36  C   UNL     1      -3.982  -0.826  23.967  0.00  0.00    +0.002 C 
ENDBRANCH   5  34
BRANCH   5   3
ATOM      3  C   UNL     1      -2.210  -1.412  24.824  0.00  0.00    +0.337 C 
ATOM      4  O   UNL     1      -2.018  -1.507  25.621  0.00  0.00    -0.248 OA
BRANCH   3   2
ATOM      1  C   UNL     1      -1.505  -2.613  24.506  0.00  0.00    +0.256 C 
ATOM      2  O   UNL     1      -1.916  -1.941  24.262  0.00  0.00    -0.443 OA
ENDBRANCH   3   2
ENDBRANCH   5   3
ENDBRANCH   6   5
ENDBRANCH   9   7
TORSDOF 8
ENDMDL
MODEL 4
REMARK VINA RESULT:      -9.6      2.136      5.446
REMARK  Name = 
REMARK  8 active torsions:
REMARK  status: ('A' for Active; 'I' for Inactive)
REMARK    1  A    between atoms: O_2  and  C_3
REMARK    2  A    between atoms: C_3  and  C_5
REMARK    3  A    between atoms: C_5  and  N_6
REMARK    4  A    between atoms: C_5  and  C_34
REMARK    5  A    between atoms: C_7  and  C_9
REMARK    6  A    between atoms: C_10  and  N_22
REMARK    7  A    between atoms: C_14  and  C_16
REMARK    8  A    between atoms: N_25  and  C_26
REMARK                            x       y       z     vdW  Elec       q    Type
REMARK                         _______ _______ _______ _____ _____    ______ ____
ROOT
ATOM      9  C   UNL     1      -2.531   0.222  24.699  0.00  0.00    +0.174 C 
ATOM     10  C   UNL     1      -3.168   0.732  24.582  0.00  0.00    +0.126 C 
ATOM     11  C   UNL     1      -3.849   0.274  24.496  0.00  0.00    +0.045 C 
ATOM     12  C   UNL     1      -3.632  -0.520  24.560  0.00  0.00    +0.096 C 
ATOM     13  N   UNL     1      -2.817  -0.551  24.686  0.00  0.00    -0.267 N 
ATOM     14  C   UNL     1      -2.368  -1.237  24.781  0.00  0.00    +0.265 C 
ATOM     15  O   UNL     1      -1.553  -1.183  24.903  0.00  0.00    -0.268 OA
ENDROOT
BRANCH  14  16
ATOM     16  C   UNL     1      -2.732  -1.976  24.754  0.00  0.00    +0.114 A 
ATOM     17  C   UNL     1      -3.458  -2.172  25.096  0.00  0.00    +0.023 A 
ATOM     18  C   UNL     1      -3.610  -2.966  24.934  0.00  0.00    +0.020 A 
ATOM     19  C   UNL     1      -2.978  -3.263  24.494  0.00  0.00    +0.076 A 
ATOM     20  N   UNL     1      -2.436  -2.650  24.382  0.00  0.00    -0.320 N 
ATOM     21  C   UNL     1      -1.723  -2.703  23.971  0.00  0.00    +0.131 C 
ENDBRANCH  14  16
BRANCH  10  22
ATOM     22  N   UNL     1      -3.132   1.556  24.555  0.00  0.00    -0.186 NA
ATOM     23  C   UNL     1      -3.780   2.006  24.795  0.00  0.00    +0.344 C 
ATOM     24  O   UNL     1      -4.465   1.632  25.063  0.00  0.00    -0.249 OA
ATOM     25  N   UNL     1      -3.743   2.830  24.768  0.00  0.00    -0.159 NA
BRANCH  25  26
ATOM     26  C   UNL     1      -4.392   3.279  25.009  0.00  0.00    +0.102 A 
ATOM     27  C   UNL     1      -4.518   4.027  24.684  0.00  0.00    +0.158 A 
ATOM     28  F   UNL     1      -3.996   4.325  24.119  0.00  0.00    -0.203 F 
ATOM     29  C   UNL     1      -5.167   4.477  24.924  0.00  0.00    +0.061 A 
ATOM     30  C   UNL     1      -5.689   4.179  25.489  0.00  0.00    +0.142 A 
ATOM     31  F   UNL     1      -6.338   4.629  25.730  0.00  0.00    -0.204 F 
ATOM     32  C   UNL     1      -5.563   3.431  25.814  0.00  0.00    +0.031 A 
ATOM     33  C   UNL     1      -4.914   2.981  25.574  0.00  0.00    +0.021 A 
ENDBRANCH  25  26
ENDBRANCH  10  22
BRANCH   9   7
ATOM      6  N   UNL     1      -1.327   0.803  24.195  0.00  0.00    -0.194 NA
ATOM      7  C   UNL     1      -1.744   0.446  24.810  0.00  0.00    +0.262 C 
ATOM      8  O   UNL     1      -1.376   0.313  25.537  0.00  0.00    -0.271 OA
BRANCH   6   5
ATOM      5  C   UNL     1      -0.540   1.028  24.306  0.00  0.00    +0.193 C 
BRANCH   5  34
ATOM     34  C   UNL     1      -0.363   1.727  24.707  0.00  0.00    +0.031 C 
ATOM     35  C   UNL     1      -0.148   1.703  25.504  0.00  0.00    +0.002 C 
ATOM     36  C   UNL     1      -0.400   2.450  24.312  0.00  0.00    +0.002 C 
ENDBRANCH   5  34
BRANCH   5   3
ATOM      3  C   UNL     1       0.069   0.552  24.017  0.00  0.00    +0.337 C 
ATOM      4  O   UNL     1       0.604   0.203  24.538  0.00  0.00    -0.248 OA
BRANCH   3   2
ATOM      1  C   UNL     1       0.779  -0.007  22.910  0.00  0.00    +0.256 C 
ATOM      2  O   UNL     1       0.141   0.426  23.204  0.00  0.00    -0.443 OA
ENDBRANCH   3   2
ENDBRANCH   5   3
ENDBRANCH   6   5
ENDBRANCH   9   7
TORSDOF 8
ENDMDL
MODEL 5
REMARK VINA RESULT:      -9.5      2.021      4.594
REMARK  Name = 
REMARK  8 active torsions:
REMARK  status: ('A' for Active; 'I' for Inactive)
REMARK    1  A    between atoms: O_2  and  C_3
REMARK    2  A    between atoms: C_3  and  C_5
REMARK    3  A    between atoms: C_5  and  N_6
REMARK    4  A    between atoms: C_5  and  C_34
REMARK    5  A    between atoms: C_7  and  C_9
REMARK    6  A    between atoms: C_10  and  N_22
REMARK    7  A    between atoms: C_14  and  C_16
REMARK    8  A    between atoms: N_25  and  C_26
REMARK                            x       y       z     vdW  Elec       q    Type
REMARK                         _______ _______ _______ _____ _____    ______ ____
ROOT
ATOM      9  C   UNL     1      -1.912   0.596  24.383  0.00  0.00    +0.174 C 
ATOM     10  C   UNL     1      -2.457   1.177  24.169  0.00  0.00    +0.126 C 
ATOM     11  C   UNL     1      -2.046   1.787  23.794  0.00  0.00    +0.045 C 
ATOM     12  C   UNL     1      -1.246   1.582  23.777  0.00  0.00    +0.096 C 
ATOM     13  N   UNL     1      -1.164   0.846  24.141  0.00  0.00    -0.267 N 
ATOM     14  C   UNL     1      -0.458   0.432  24.244  0.00  0.00    +0.265 C 
ATOM     15  O   UNL     1      -0.461  -0.303  24.621  0.00  0.00    -0.268 OA
ENDROOT
BRANCH  14  16
ATOM     16  C   UNL     1       0.252   0.752  23.972  0.00  0.00    +0.114 A 
ATOM     17  C   UNL     1       0.565   1.486  24.182  0.00  0.00    +0.023 A 
ATOM     18  C   UNL     1       1.279   1.583  23.782  0.00  0.00    +0.020 A 
ATOM     19  C   UNL     1       1.409   0.909  23.324  0.00  0.00    +0.076 A 
ATOM     20  N   UNL     1       0.773   0.395  23.442  0.00  0.00    -0.320 N 
ATOM     21  C   UNL     1       0.677  -0.345  23.091  0.00  0.00    +0.131 C 
ENDBRANCH  14  16
BRANCH  10  22
ATOM     22  N   UNL     1      -3.270   1.154  24.305  0.00  0.00    -0.186 NA
ATOM     23  C   UNL     1      -3.664   1.830  24.571  0.00  0.00    +0.344 C 
ATOM     24  O   UNL     1      -3.244   2.528  24.701  0.00  0.00    -0.249 OA
ATOM     25  N   UNL     1      -4.477   1.806  24.707  0.00  0.00    -0.159 NA
BRANCH  25  26
ATOM     26  C   UNL     1      -4.870   2.481  24.973  0.00  0.00    +0.102 A 
ATOM     27  C   UNL     1      -5.500   2.410  25.501  0.00  0.00    +0.158 A 
ATOM     28  F   UNL     1      -5.736   1.664  25.764  0.00  0.00    -0.203 F 
ATOM     29  C   UNL     1      -5.893   3.085  25.767  0.00  0.00    +0.061 A 
ATOM     30  C   UNL     1      -5.657   3.830  25.504  0.00  0.00    +0.142 A 
ATOM     31  F   UNL     1      -6.050   4.505  25.770  0.00  0.00    -0.204 F 
ATOM     32  C   UNL     1      -5.027   3.901  24.976  0.00  0.00    +0.031 A 
ATOM     33  C   UNL     1      -4.634   3.226  24.710  0.00  0.00    +0.021 A 
ENDBRANCH  25  26
ENDBRANCH  10  22
BRANCH   9   7
ATOM      6  N   UNL     1      -2.496  -0.708  24.377  0.00  0.00    -0.194 NA
ATOM      7  C   UNL     1      -2.086  -0.111  24.771  0.00  0.00    +0.262 C 
ATOM      8  O   UNL     1      -1.849  -0.221  25.554  0.00  0.00    -0.271 OA
BRANCH   6   5
ATOM      5  C   UNL     1      -2.669  -1.415  24.765  0.00  0.00    +0.193 C 
BRANCH   5  34
ATOM     34  C   UNL     1      -3.348  -1.475  25.230  0.00  0.00    +0.031 C 
ATOM     35  C   UNL     1      -3.291  -1.431  26.053  0.00  0.00    +0.002 C 
ATOM     36  C   UNL     1      -4.085  -1.579  24.874  0.00  0.00    +0.002 C 
ENDBRANCH   5  34
BRANCH   5   3
ATOM      3  C   UNL     1      -2.163  -2.062  24.688  0.00  0.00    +0.337 C 
ATOM      4  O   UNL     1      -1.737  -2.334  25.340  0.00  0.00    -0.248 OA
BRANCH   3   2
ATOM      1  C   UNL     1      -1.636  -3.129  23.896  0.00  0.00    +0.256 C 
ATOM      2  O   UNL     1      -2.083  -2.438  23.957  0.00  0.00    -0.443 OA
ENDBRANCH   3   2
ENDBRANCH   5   3
ENDBRANCH   6   5
ENDBRANCH   9   7
TORSDOF 8
ENDMDL
MODEL 6
REMARK VINA RESULT:      -8.7      2.951      5.165
REMARK  Name = 
REMARK  8 active torsions:
REMARK  status: ('A' for Active; 'I' for Inactive)
REMARK    1  A    between atoms: O_2  and  C_3
REMARK    2  A    between atoms: C_3  and  C_5
REMARK    3  A    between atoms: C_5  and  N_6
REMARK    4  A    between atoms: C_5  and  C_34
REMARK    5  A    between atoms: C_7  and  C_9
REMARK    6  A    between atoms: C_10  and  N_22
REMARK    7  A    between atoms: C_14  and  C_16
REMARK    8  A    between atoms: N_25  and  C_26
REMARK                            x       y       z     vdW  Elec       q    Type
REMARK                         _______ _______ _______ _____ _____    ______ ____
ROOT
ATOM      9  C   UNL     1      -1.622   0.089  24.436  0.00  0.00    +0.174 C 
ATOM     10  C   UNL     1      -0.854  -0.053  24.171  0.00  0.00    +0.126 C 
ATOM     11  C   UNL     1      -0.763  -0.868  24.079  0.00  0.00    +0.045 C 
ATOM     12  C   UNL     1      -1.476  -1.229  24.287  0.00  0.00    +0.096 C 
ATOM     13  N   UNL     1      -2.006  -0.637  24.507  0.00  0.00    -0.267 N 
ATOM     14  C   UNL     1      -2.785  -0.752  24.756  0.00  0.00    +0.265 C 
ATOM     15  O   UNL     1      -3.252  -0.104  24.960  0.00  0.00    -0.268 OA
ENDROOT
BRANCH  14  16
ATOM     16  C   UNL     1      -3.096  -1.515  24.800  0.00  0.00    +0.114 A 
ATOM     17  C   UNL     1      -2.798  -2.134  25.257  0.00  0.00    +0.023 A 
ATOM     18  C   UNL     1      -3.277  -2.794  25.135  0.00  0.00    +0.020 A 
ATOM     19  C   UNL     1      -3.870  -2.584  24.603  0.00  0.00    +0.076 A 
ATOM     20  N   UNL     1      -3.758  -1.793  24.395  0.00  0.00    -0.320 N 
ATOM     21  C   UNL     1      -4.227  -1.357  23.875  0.00  0.00    +0.131 C 
ENDBRANCH  14  16
BRANCH  10  22
ATOM     22  N   UNL     1      -0.278   0.519  24.025  0.00  0.00    -0.186 NA
ATOM     23  C   UNL     1       0.423   0.310  23.641  0.00  0.00    +0.344 C 
ATOM     24  O   UNL     1       0.546  -0.471  23.403  0.00  0.00    -0.249 OA
ATOM     25  N   UNL     1       0.999   0.882  23.494  0.00  0.00    -0.159 NA
BRANCH  25  26
ATOM     26  C   UNL     1       1.699   0.673  23.110  0.00  0.00    +0.102 A 
ATOM     27  C   UNL     1       2.374   1.137  23.205  0.00  0.00    +0.158 A 
ATOM     28  F   UNL     1       2.351   1.808  23.683  0.00  0.00    -0.203 F 
ATOM     29  C   UNL     1       3.075   0.928  22.821  0.00  0.00    +0.061 A 
ATOM     30  C   UNL     1       3.098   0.256  22.343  0.00  0.00    +0.142 A 
ATOM     31  F   UNL     1       3.798   0.047  21.959  0.00  0.00    -0.204 F 
ATOM     32  C   UNL     1       2.422  -0.207  22.248  0.00  0.00    +0.031 A 
ATOM     33  C   UNL     1       1.722   0.001  22.632  0.00  0.00    +0.021 A 
ENDBRANCH  25  26
ENDBRANCH  10  22
BRANCH   9   7
ATOM      6  N   UNL     1      -2.025   1.389  24.000  0.00  0.00    -0.194 NA
ATOM      7  C   UNL     1      -1.949   0.829  24.601  0.00  0.00    +0.262 C 
ATOM      8  O   UNL     1      -2.199   1.009  25.366  0.00  0.00    -0.271 OA
BRANCH   6   5
ATOM      5  C   UNL     1      -2.352   2.129  24.164  0.00  0.00    +0.193 C 
BRANCH   5  34
ATOM     34  C   UNL     1      -3.095   2.327  23.866  0.00  0.00    +0.031 C 
ATOM     35  C   UNL     1      -3.230   2.313  23.051  0.00  0.00    +0.002 C 
ATOM     36  C   UNL     1      -3.703   2.541  24.380  0.00  0.00    +0.002 C 
ENDBRANCH   5  34
BRANCH   5   3
ATOM      3  C   UNL     1      -1.935   2.669  24.628  0.00  0.00    +0.337 C 
ATOM      4  O   UNL     1      -2.115   2.751  25.429  0.00  0.00    -0.248 OA
BRANCH   3   2
ATOM      1  C   UNL     1      -0.973   3.721  24.732  0.00  0.00    +0.256 C 
ATOM      2  O   UNL     1      -1.338   3.128  24.289  0.00  0.00    -0.443 OA
ENDBRANCH   3   2
ENDBRANCH   5   3
ENDBRANCH   6   5
ENDBRANCH   9   7
TORSDOF 8
ENDMDL
