MODEL 1
REMARK VINA RESULT:     -12.9      0.000      0.000
REMARK  Name = 
REMARK  7 active torsions:
REMARK  status: ('A' for Active; 'I' for Inactive)
REMARK    1  A    between atoms: C_5  and  C_6
REMARK    2  A    between atoms: C_6  and  C_7
REMARK    3  A    between atoms: N_9  and  C_10
REMARK    4  A    between atoms: C_17  and  C_18
REMARK    5  A    between atoms: C_18  and  N_19
REMARK    6  A    between atoms: N_19  and  C_20
REMARK    7  A    between atoms: C_20  and  C_21
REMARK                            x       y       z     vdW  Elec       q    Type
REMARK                         _______ _______ _______ _____ _____    ______ ____
ROOT
ATOM      1  O   UNL     1      -6.367   1.935  25.018  0.00  0.00    -0.218 OA
ATOM      2  C   UNL     1      -5.600   2.216  25.132  0.00  0.00    +0.213 C 
ATOM      3  C   UNL     1      -5.393   2.926  25.498  0.00  0.00    +0.212 C 
ATOM      4  O   UNL     1      -5.917   3.480  25.813  0.00  0.00    -0.218 OA
ATOM      5  C   UNL     1      -4.571   2.985  25.493  0.00  0.00    +0.157 C 
ATOM     16  O   UNL     1      -4.269   2.312  25.125  0.00  0.00    -0.351 OA
ATOM     17  C   UNL     1      -4.905   1.836  24.902  0.00  0.00    +0.165 C 
ENDROOT
BRANCH   5   6
ATOM      6  C   UNL     1      -4.127   3.609  25.803  0.00  0.00    +0.119 C 
BRANCH   6   7
ATOM      7  C   UNL     1      -3.414   3.822  25.448  0.00  0.00    +0.248 C 
ATOM      8  O   UNL     1      -3.373   3.921  24.630  0.00  0.00    -0.273 OA
ATOM      9  N   UNL     1      -2.741   3.937  25.912  0.00  0.00    -0.179 NA
BRANCH   9  10
ATOM     10  C   UNL     1      -2.028   4.150  25.558  0.00  0.00    +0.073 A 
ATOM     11  C   UNL     1      -1.890   4.937  25.349  0.00  0.00    +0.017 A 
ATOM     12  C   UNL     1      -1.175   5.150  24.995  0.00  0.00    +0.001 A 
ATOM     13  C   UNL     1      -0.600   4.578  24.850  0.00  0.00    +0.000 A 
ATOM     14  C   UNL     1      -0.738   3.791  25.058  0.00  0.00    +0.001 A 
ATOM     15  C   UNL     1      -1.452   3.578  25.412  0.00  0.00    +0.017 A 
ENDBRANCH   9  10
ENDBRANCH   6   7
ENDBRANCH   5   6
BRANCH  17  18
ATOM     18  C   UNL     1      -4.855   1.108  24.516  0.00  0.00    +0.121 C 
BRANCH  18  19
ATOM     19  N   UNL     1      -4.341   0.528  24.797  0.00  0.00    -0.211 NA
BRANCH  19  20
ATOM     20  C   UNL     1      -4.014  -0.021  24.274  0.00  0.00    +0.115 C 
BRANCH  20  21
ATOM     21  C   UNL     1      -3.865  -0.793  24.526  0.00  0.00    -0.005 A 
ATOM     22  C   UNL     1      -3.509  -0.927  25.257  0.00  0.00    -0.001 A 
ATOM     23  C   UNL     1      -3.360  -1.699  25.509  0.00  0.00    +0.029 A 
ATOM     24  C   UNL     1      -3.568  -2.336  25.028  0.00  0.00    +0.140 A 
ATOM     25  F   UNL     1      -3.419  -3.108  25.279  0.00  0.00    -0.204 F 
ATOM     26  C   UNL     1      -3.925  -2.202  24.296  0.00  0.00    +0.029 A 
ATOM     27  C   UNL     1      -4.073  -1.430  24.045  0.00  0.00    -0.001 A 
ENDBRANCH  20  21
ENDBRANCH  19  20
ENDBRANCH  18  19
ENDBRANCH  17  18
TORSDOF 7
ENDMDL
MODEL 2
REMARK VINA RESULT:     -12.0      1.852      5.004
REMARK  Name = 
REMARK  7 active torsions:
REMARK  status: ('A' for Active; 'I' for Inactive)
REMARK    1  A    between atoms: C_5  and  C_6
REMARK    2  A    between atoms: C_6  and  C_7
REMARK    3  A    between atoms: N_9  and  C_10
REMARK    4  A    between atoms: C_17  and  C_18
REMARK    5  A    between atoms: C_18  and  N_19
REMARK    6  A    between atoms: N_19  and  C_20
REMARK    7  A    between atoms: C_20  and  C_21
REMARK                            x       y       z     vdW  Elec       q    Type
REMARK                         _______ _______ _______ _____ _____    ______ ____
ROOT
ATOM      1  O   UNL     1      -5.885   3.436  25.769  0.00  0.00    -0.218 OA
ATOM      2  C   UNL     1      -5.412   2.827  25.477  0.00  0.00    +0.213 C 
ATOM      3  C   UNL     1      -5.679   2.144  25.097  0.00  0.00    +0.212 C 
ATOM      4  O   UNL     1      -6.466   1.952  24.943  0.00  0.00    -0.218 OA
ATOM      5  C   UNL     1      -5.021   1.689  24.899  0.00  0.00    +0.157 C 
ATOM     16  O   UNL     1      -4.347   2.090  25.156  0.00  0.00    -0.351 OA
ATOM     17  C   UNL     1      -4.589   2.792  25.513  0.00  0.00    +0.165 C 
ENDROOT
BRANCH   5   6
ATOM      6  C   UNL     1      -5.034   0.960  24.512  0.00  0.00    +0.119 C 
BRANCH   6   7
ATOM      7  C   UNL     1      -4.541   0.350  24.767  0.00  0.00    +0.248 C 
ATOM      8  O   UNL     1      -4.504   0.156  25.567  0.00  0.00    -0.273 OA
ATOM      9  N   UNL     1      -4.085  -0.066  24.220  0.00  0.00    -0.179 NA
BRANCH   9  10
ATOM     10  C   UNL     1      -3.592  -0.677  24.474  0.00  0.00    +0.073 A 
ATOM     11  C   UNL     1      -3.885  -1.446  24.534  0.00  0.00    +0.017 A 
ATOM     12  C   UNL     1      -3.391  -2.057  24.788  0.00  0.00    +0.001 A 
ATOM     13  C   UNL     1      -2.606  -1.898  24.982  0.00  0.00    +0.000 A 
ATOM     14  C   UNL     1      -2.312  -1.130  24.921  0.00  0.00    +0.001 A 
ATOM     15  C   UNL     1      -2.806  -0.519  24.667  0.00  0.00    +0.017 A 
ENDBRANCH   9  10
ENDBRANCH   6   7
ENDBRANCH   5   6
BRANCH  17  18
ATOM     18  C   UNL     1      -4.094   3.362  25.848  0.00  0.00    +0.121 C 
BRANCH  18  19
ATOM     19  N   UNL     1      -3.337   3.480  25.543  0.00  0.00    -0.211 NA
BRANCH  19  20
ATOM     20  C   UNL     1      -2.776   3.897  25.982  0.00  0.00    +0.115 C 
BRANCH  20  21
ATOM     21  C   UNL     1      -2.114   4.218  25.608  0.00  0.00    -0.005 A 
ATOM     22  C   UNL     1      -1.452   3.747  25.466  0.00  0.00    -0.001 A 
ATOM     23  C   UNL     1      -0.790   4.067  25.092  0.00  0.00    +0.029 A 
ATOM     24  C   UNL     1      -0.790   4.859  24.860  0.00  0.00    +0.140 A 
ATOM     25  F   UNL     1      -0.128   5.180  24.486  0.00  0.00    -0.204 F 
ATOM     26  C   UNL     1      -1.453   5.330  25.002  0.00  0.00    +0.029 A 
ATOM     27  C   UNL     1      -2.114   5.009  25.376  0.00  0.00    -0.001 A 
ENDBRANCH  20  21
ENDBRANCH  19  20
ENDBRANCH  18  19
ENDBRANCH  17  18
TORSDOF 7
ENDMDL
MODEL 3
REMARK VINA RESULT:     -11.5      1.802      3.511
REMARK  Name = 
REMARK  7 active torsions:
REMARK  status: ('A' for Active; 'I' for Inactive)
REMARK    1  A    between atoms: C_5  and  C_6
REMARK    2  A    between atoms: C_6  and  C_7
REMARK    3  A    between atoms: N_9  and  C_10
REMARK    4  A    between atoms: C_17  and  C_18
REMARK    5  A    between atoms: C_18  and  N_19
REMARK    6  A    between atoms: N_19  and  C_20
REMARK    7  A    between atoms: C_20  and  C_21
REMARK                            x       y       z     vdW  Elec       q    Type
REMARK                         _______ _______ _______ _____ _____    ______ ____
ROOT
ATOM      1  O   UNL     1       0.367   1.652  24.459  0.00  0.00    -0.218 OA
ATOM      2  C   UNL     1      -0.430   1.838  24.565  0.00  0.00    +0.213 C 
ATOM      3  C   UNL     1      -0.779   2.574  24.431  0.00  0.00    +0.212 C 
ATOM      4  O   UNL     1      -0.391   3.253  24.169  0.00  0.00    -0.218 OA
ATOM      5  C   UNL     1      -1.582   2.510  24.606  0.00  0.00    +0.157 C 
ATOM     16  O   UNL     1      -1.730   1.736  24.847  0.00  0.00    -0.351 OA
ATOM     17  C   UNL     1      -1.018   1.320  24.822  0.00  0.00    +0.165 C 
ENDROOT
BRANCH   5   6
ATOM      6  C   UNL     1      -2.140   3.116  24.549  0.00  0.00    +0.119 C 
BRANCH   6   7
ATOM      7  C   UNL     1      -2.880   3.027  24.902  0.00  0.00    +0.248 C 
ATOM      8  O   UNL     1      -2.950   3.030  25.723  0.00  0.00    -0.273 OA
ATOM      9  N   UNL     1      -3.552   2.935  24.431  0.00  0.00    -0.179 NA
BRANCH   9  10
ATOM     10  C   UNL     1      -4.293   2.847  24.782  0.00  0.00    +0.073 A 
ATOM     11  C   UNL     1      -4.673   2.114  24.765  0.00  0.00    +0.017 A 
ATOM     12  C   UNL     1      -5.414   2.025  25.117  0.00  0.00    +0.001 A 
ATOM     13  C   UNL     1      -5.775   2.668  25.485  0.00  0.00    +0.000 A 
ATOM     14  C   UNL     1      -5.396   3.401  25.503  0.00  0.00    +0.001 A 
ATOM     15  C   UNL     1      -4.654   3.490  25.151  0.00  0.00    +0.017 A 
ENDBRANCH   9  10
ENDBRANCH   6   7
ENDBRANCH   5   6
BRANCH  17  18
ATOM     18  C   UNL     1      -0.913   0.525  25.018  0.00  0.00    +0.121 C 
BRANCH  18  19
ATOM     19  N   UNL     1      -1.537  -0.007  24.929  0.00  0.00    -0.211 NA
BRANCH  19  20
ATOM     20  C   UNL     1      -1.507  -0.743  25.302  0.00  0.00    +0.115 C 
BRANCH  20  21
ATOM     21  C   UNL     1      -2.096  -1.303  25.159  0.00  0.00    -0.005 A 
ATOM     22  C   UNL     1      -2.840  -1.217  25.503  0.00  0.00    -0.001 A 
ATOM     23  C   UNL     1      -3.429  -1.776  25.360  0.00  0.00    +0.029 A 
ATOM     24  C   UNL     1      -3.273  -2.423  24.871  0.00  0.00    +0.140 A 
ATOM     25  F   UNL     1      -3.862  -2.983  24.728  0.00  0.00    -0.204 F 
ATOM     26  C   UNL     1      -2.529  -2.509  24.526  0.00  0.00    +0.029 A 
ATOM     27  C   UNL     1      -1.940  -1.949  24.670  0.00  0.00    -0.001 A 
ENDBRANCH  20  21
ENDBRANCH  19  20
ENDBRANCH  18  19
ENDBRANCH  17  18
TORSDOF 7
ENDMDL
MODEL 4
REMARK VINA RESULT:     -11.5      2.196      4.975
REMARK  Name = 
REMARK  7 active torsions:
REMARK  status: ('A' for Active; 'I' for Inactive)
REMARK    1  A    between atoms: C_5  and  C_6
REMARK    2  A    between atoms: C_6  and  C_7
REMARK    3  A    between atoms: N_9  and  C_10
REMARK    4  A    between atoms: C_17  and  C_18
REMARK    5  A    between atoms: C_18  and  N_19
REMARK    6  A    between atoms: N_19  and  C_20
REMARK    7  A    between atoms: C_20  and  C_21
REMARK                            x       y       z     vdW  Elec       q    Type
REMARK                         _______ _______ _______ _____ _____    ______ ____
ROOT
ATOM      1  O   UNL     1      -0.526   3.549  25.363  0.00  0.00    -0.218 OA
ATOM      2  C   UNL     1      -0.824   2.781  25.318  0.00  0.00    +0.213 C 
ATOM      3  C   UNL     1      -0.380   2.086  25.351  0.00  0.00    +0.212 C 
ATOM      4  O   UNL     1       0.438   2.037  25.436  0.00  0.00    -0.218 OA
ATOM      5  C   UNL     1      -0.900   1.449  25.285  0.00  0.00    +0.157 C 
ATOM     16  O   UNL     1      -1.664   1.750  25.211  0.00  0.00    -0.351 OA
ATOM     17  C   UNL     1      -1.617   2.573  25.231  0.00  0.00    +0.165 C 
ENDROOT
BRANCH   5   6
ATOM      6  C   UNL     1      -0.692   0.650  25.292  0.00  0.00    +0.119 C 
BRANCH   6   7
ATOM      7  C   UNL     1      -1.238   0.081  25.053  0.00  0.00    +0.248 C 
ATOM      8  O   UNL     1      -1.482   0.046  24.266  0.00  0.00    -0.273 OA
ATOM      9  N   UNL     1      -1.541  -0.456  25.602  0.00  0.00    -0.179 NA
BRANCH   9  10
ATOM     10  C   UNL     1      -2.087  -1.026  25.364  0.00  0.00    +0.073 A 
ATOM     11  C   UNL     1      -1.834  -1.690  24.944  0.00  0.00    +0.017 A 
ATOM     12  C   UNL     1      -2.381  -2.260  24.705  0.00  0.00    +0.001 A 
ATOM     13  C   UNL     1      -3.179  -2.167  24.887  0.00  0.00    +0.000 A 
ATOM     14  C   UNL     1      -3.433  -1.503  25.306  0.00  0.00    +0.001 A 
ATOM     15  C   UNL     1      -2.886  -0.933  25.545  0.00  0.00    +0.017 A 
ENDBRANCH   9  10
ENDBRANCH   6   7
ENDBRANCH   5   6
BRANCH  17  18
ATOM     18  C   UNL     1      -2.253   3.097  25.174  0.00  0.00    +0.121 C 
BRANCH  18  19
ATOM     19  N   UNL     1      -3.015   2.841  25.359  0.00  0.00    -0.211 NA
BRANCH  19  20
ATOM     20  C   UNL     1      -3.668   3.207  25.011  0.00  0.00    +0.115 C 
BRANCH  20  21
ATOM     21  C   UNL     1      -4.416   2.866  25.077  0.00  0.00    -0.005 A 
ATOM     22  C   UNL     1      -4.645   2.268  24.557  0.00  0.00    -0.001 A 
ATOM     23  C   UNL     1      -5.393   1.927  24.623  0.00  0.00    +0.029 A 
ATOM     24  C   UNL     1      -5.913   2.184  25.209  0.00  0.00    +0.140 A 
ATOM     25  F   UNL     1      -6.662   1.844  25.276  0.00  0.00    -0.204 F 
ATOM     26  C   UNL     1      -5.685   2.783  25.729  0.00  0.00    +0.029 A 
ATOM     27  C   UNL     1      -4.937   3.124  25.663  0.00  0.00    -0.001 A 
ENDBRANCH  20  21
ENDBRANCH  19  20
ENDBRANCH  18  19
ENDBRANCH  17  18
TORSDOF 7
ENDMDL
MODEL 5
REMARK VINA RESULT:     -11.5      2.450      3.624
REMARK  Name = 
REMARK  7 active torsions:
REMARK  status: ('A' for Active; 'I' for Inactive)
REMARK    1  A    between atoms: C_5  and  C_6
REMARK    2  A    between atoms: C_6  and  C_7
REMARK    3  A    between atoms: N_9  and  C_10
REMARK    4  A    between atoms: C_17  and  C_18
REMARK    5  A    between atoms: C_18  and  N_19
REMARK    6  A    between atoms: N_19  and  C_20
REMARK    7  A    between atoms: C_20  and  C_21
REMARK                            x       y       z     vdW  Elec       q    Type
REMARK                         _______ _______ _______ _____ _____    ______ ____
ROOT
ATOM      1  O   UNL     1       0.178  -0.765  23.745  0.00  0.00    -0.218 OA
ATOM      2  C   UNL     1      -0.023  -0.045  24.093  0.00  0.00    +0.213 C 
ATOM      3  C   UNL     1       0.328   0.685  23.934  0.00  0.00    +0.212 C 
ATOM      4  O   UNL     1       0.941   0.822  23.400  0.00  0.00    -0.218 OA
ATOM      5  C   UNL     1      -0.042   1.253  24.404  0.00  0.00    +0.157 C 
ATOM     16  O   UNL     1      -0.622   0.874  24.852  0.00  0.00    -0.351 OA
ATOM     17  C   UNL     1      -0.610   0.073  24.660  0.00  0.00    +0.165 C 
ENDROOT
BRANCH   5   6
ATOM      6  C   UNL     1       0.136   2.059  24.422  0.00  0.00    +0.119 C 
BRANCH   6   7
ATOM      7  C   UNL     1      -0.465   2.611  24.537  0.00  0.00    +0.248 C 
ATOM      8  O   UNL     1      -1.088   2.662  23.999  0.00  0.00    -0.273 OA
ATOM      9  N   UNL     1      -0.444   3.113  25.192  0.00  0.00    -0.179 NA
BRANCH   9  10
ATOM     10  C   UNL     1      -1.045   3.665  25.308  0.00  0.00    +0.073 A 
ATOM     11  C   UNL     1      -1.725   3.454  25.726  0.00  0.00    +0.017 A 
ATOM     12  C   UNL     1      -2.327   4.006  25.842  0.00  0.00    +0.001 A 
ATOM     13  C   UNL     1      -2.249   4.769  25.540  0.00  0.00    +0.000 A 
ATOM     14  C   UNL     1      -1.570   4.981  25.122  0.00  0.00    +0.001 A 
ATOM     15  C   UNL     1      -0.968   4.428  25.006  0.00  0.00    +0.017 A 
ENDBRANCH   9  10
ENDBRANCH   6   7
ENDBRANCH   5   6
BRANCH  17  18
ATOM     18  C   UNL     1      -1.100  -0.510  24.979  0.00  0.00    +0.121 C 
BRANCH  18  19
ATOM     19  N   UNL     1      -1.869  -0.602  24.696  0.00  0.00    -0.211 NA
BRANCH  19  20
ATOM     20  C   UNL     1      -2.418  -1.040  25.130  0.00  0.00    +0.115 C 
BRANCH  20  21
ATOM     21  C   UNL     1      -3.030  -1.435  24.742  0.00  0.00    -0.005 A 
ATOM     22  C   UNL     1      -3.630  -1.006  24.374  0.00  0.00    -0.001 A 
ATOM     23  C   UNL     1      -4.242  -1.400  23.986  0.00  0.00    +0.029 A 
ATOM     24  C   UNL     1      -4.254  -2.225  23.966  0.00  0.00    +0.140 A 
ATOM     25  F   UNL     1      -4.865  -2.620  23.579  0.00  0.00    -0.204 F 
ATOM     26  C   UNL     1      -3.653  -2.655  24.334  0.00  0.00    +0.029 A 
ATOM     27  C   UNL     1      -3.042  -2.259  24.722  0.00  0.00    -0.001 A 
ENDBRANCH  20  21
ENDBRANCH  19  20
ENDBRANCH  18  19
ENDBRANCH  17  18
TORSDOF 7
ENDMDL
MODEL 6
REMARK VINA RESULT:      -9.3      1.805      4.708
REMARK  Name = 
REMARK  7 active torsions:
REMARK  status: ('A' for Active; 'I' for Inactive)
REMARK    1  A    between atoms: C_5  and  C_6
REMARK    2  A    between atoms: C_6  and  C_7
REMARK    3  A    between atoms: N_9  and  C_10
REMARK    4  A    between atoms: C_17  and  C_18
REMARK    5  A    between atoms: C_18  and  N_19
REMARK    6  A    between atoms: N_19  and  C_20
REMARK    7  A    between atoms: C_20  and  C_21
REMARK                            x       y       z     vdW  Elec       q    Type
REMARK                         _______ _______ _______ _____ _____    ______ ____
ROOT
ATOM      1  O   UNL     1      -4.446   3.808  24.166  0.00  0.00    -0.218 OA
ATOM      2  C   UNL     1      -4.364   3.010  24.356  0.00  0.00    +0.213 C 
ATOM      3  C   UNL     1      -4.980   2.483  24.512  0.00  0.00    +0.212 C 
ATOM      4  O   UNL     1      -5.785   2.662  24.503  0.00  0.00    -0.218 OA
ATOM      5  C   UNL     1      -4.649   1.746  24.676  0.00  0.00    +0.157 C 
ATOM     16  O   UNL     1      -3.829   1.817  24.623  0.00  0.00    -0.351 OA
ATOM     17  C   UNL     1      -3.653   2.598  24.425  0.00  0.00    +0.165 C 
ENDROOT
BRANCH   5   6
ATOM      6  C   UNL     1      -5.066   1.058  24.862  0.00  0.00    +0.119 C 
BRANCH   6   7
ATOM      7  C   UNL     1      -4.658   0.354  24.996  0.00  0.00    +0.248 C 
ATOM      8  O   UNL     1      -4.365   0.182  25.747  0.00  0.00    -0.273 OA
ATOM      9  N   UNL     1      -4.542  -0.179  24.376  0.00  0.00    -0.179 NA
BRANCH   9  10
ATOM     10  C   UNL     1      -4.134  -0.884  24.509  0.00  0.00    +0.073 A 
ATOM     11  C   UNL     1      -3.682  -0.976  25.194  0.00  0.00    +0.017 A 
ATOM     12  C   UNL     1      -3.274  -1.681  25.326  0.00  0.00    +0.001 A 
ATOM     13  C   UNL     1      -3.318  -2.293  24.776  0.00  0.00    +0.000 A 
ATOM     14  C   UNL     1      -3.770  -2.201  24.091  0.00  0.00    +0.001 A 
ATOM     15  C   UNL     1      -4.178  -1.496  23.958  0.00  0.00    +0.017 A 
ENDBRANCH   9  10
ENDBRANCH   6   7
ENDBRANCH   5   6
BRANCH  17  18
ATOM     18  C   UNL     1      -2.898   2.912  24.316  0.00  0.00    +0.121 C 
BRANCH  18  19
ATOM     19  N   UNL     1      -2.237   2.502  24.591  0.00  0.00    -0.211 NA
BRANCH  19  20
ATOM     20  C   UNL     1      -1.485   2.835  24.518  0.00  0.00    +0.115 C 
BRANCH  20  21
ATOM     21  C   UNL     1      -0.925   2.725  25.114  0.00  0.00    -0.005 A 
ATOM     22  C   UNL     1      -0.896   3.243  25.754  0.00  0.00    -0.001 A 
ATOM     23  C   UNL     1      -0.336   3.133  26.350  0.00  0.00    +0.029 A 
ATOM     24  C   UNL     1       0.195   2.504  26.305  0.00  0.00    +0.140 A 
ATOM     25  F   UNL     1       0.756   2.393  26.900  0.00  0.00    -0.204 F 
ATOM     26  C   UNL     1       0.167   1.985  25.663  0.00  0.00    +0.029 A 
ATOM     27  C   UNL     1      -0.393   2.096  25.068  0.00  0.00    -0.001 A 
ENDBRANCH  20  21
ENDBRANCH  19  20
ENDBRANCH  18  19
ENDBRANCH  17  18
TORSDOF 7
ENDMDL
