MODEL 1
REMARK VINA RESULT:     -10.3      0.000      0.000
REMARK  Name = 
REMARK  4 active torsions:
REMARK  status: ('A' for Active; 'I' for Inactive)
REMARK    1  A    between atoms: O_2  and  C_3
REMARK    2  A    between atoms: C_6  and  C_9
REMARK    3  A    between atoms: C_21  and  C_22
REMARK    4  A    between atoms: C_22  and  C_24
REMARK                            x       y       z     vdW  Elec       q    Type
REMARK                         _______ _______ _______ _____ _____    ______ ____
ROOT
ATOM      9  C   UNL     1       1.898   0.546  23.287  0.00  0.00    +0.271 C 
ATOM     10  O   UNL     1       1.379  -0.071  23.114  0.00  0.00    -0.268 OA
ATOM     11  N   UNL     1       1.609   1.245  23.618  0.00  0.00    -0.151 NA
ATOM     12  C   UNL     1       0.804   1.326  23.776  0.00  0.00    +0.185 A 
ATOM     13  N   UNL     1       0.439   1.989  24.104  0.00  0.00    -0.227 NA
ATOM     14  C   UNL     1      -0.369   1.831  24.164  0.00  0.00    +0.063 A 
ATOM     15  C   UNL     1      -0.502   1.070  23.873  0.00  0.00    +0.023 A 
ATOM     16  C   UNL     1      -1.267   0.760  23.864  0.00  0.00    +0.034 C 
ATOM     17  C   UNL     1      -1.898   1.210  24.146  0.00  0.00    +0.007 C 
ATOM     18  C   UNL     1      -2.031   0.450  23.855  0.00  0.00    +0.000 C 
ATOM     19  C   UNL     1      -2.662   0.900  24.137  0.00  0.00    +0.001 C 
ATOM     20  C   UNL     1      -3.294   1.350  24.419  0.00  0.00    +0.003 C 
ATOM     21  C   UNL     1      -3.160   2.110  24.710  0.00  0.00    +0.039 C 
ATOM     31  C   UNL     1      -2.396   2.421  24.719  0.00  0.00    +0.153 C 
ATOM     32  O   UNL     1      -2.263   3.180  25.010  0.00  0.00    -0.223 OA
ATOM     33  C   UNL     1      -1.765   1.970  24.437  0.00  0.00    +0.036 C 
ATOM     34  C   UNL     1      -1.001   2.281  24.446  0.00  0.00    +0.043 C 
ATOM     35  C   UNL     1      -0.868   3.041  24.737  0.00  0.00    +0.006 C 
ATOM     36  S   UNL     1       0.223   0.758  23.633  0.00  0.00    -0.054 S 
ENDROOT
BRANCH   9   6
ATOM      3  C   UNL     1       4.315   0.304  22.815  0.00  0.00    +0.139 A 
ATOM      4  C   UNL     1       3.945   1.034  22.710  0.00  0.00    +0.037 A 
ATOM      5  C   UNL     1       3.139   1.114  22.867  0.00  0.00    +0.008 A 
ATOM      6  C   UNL     1       2.703   0.466  23.130  0.00  0.00    +0.056 A 
ATOM      7  C   UNL     1       3.073  -0.264  23.235  0.00  0.00    +0.008 A 
ATOM      8  C   UNL     1       3.878  -0.345  23.077  0.00  0.00    +0.037 A 
BRANCH   3   2
ATOM      1  C   UNL     1       5.654   0.124  23.278  0.00  0.00    +0.252 C 
ATOM      2  O   UNL     1       5.121   0.223  22.657  0.00  0.00    -0.471 OA
ENDBRANCH   3   2
ENDBRANCH   9   6
BRANCH  21  22
ATOM     22  C   UNL     1      -3.792   2.561  24.992  0.00  0.00    +0.079 C 
ATOM     23  C   UNL     1      -3.699   3.025  25.667  0.00  0.00    +0.010 C 
BRANCH  22  24
ATOM     24  C   UNL     1      -4.517   2.546  24.598  0.00  0.00    +0.225 C 
ATOM     25  O   UNL     1      -4.554   2.729  23.794  0.00  0.00    -0.275 OA
ATOM     26  N   UNL     1      -5.204   2.349  25.009  0.00  0.00    -0.280 N 
ATOM     27  C   UNL     1      -5.965   2.311  24.690  0.00  0.00    +0.093 C 
ATOM     28  C   UNL     1      -6.483   2.094  25.294  0.00  0.00    +0.023 C 
ATOM     29  C   UNL     1      -6.044   1.996  25.984  0.00  0.00    +0.023 C 
ATOM     30  C   UNL     1      -5.254   2.154  25.808  0.00  0.00    +0.093 C 
ENDBRANCH  22  24
ENDBRANCH  21  22
TORSDOF 4
ENDMDL
MODEL 2
REMARK VINA RESULT:      -8.9      1.314      7.160
REMARK  Name = 
REMARK  4 active torsions:
REMARK  status: ('A' for Active; 'I' for Inactive)
REMARK    1  A    between atoms: O_2  and  C_3
REMARK    2  A    between atoms: C_6  and  C_9
REMARK    3  A    between atoms: C_21  and  C_22
REMARK    4  A    between atoms: C_22  and  C_24
REMARK                            x       y       z     vdW  Elec       q    Type
REMARK                         _______ _______ _______ _____ _____    ______ ____
ROOT
ATOM      9  C   UNL     1      -3.023   1.175  24.250  0.00  0.00    +0.271 C 
ATOM     10  O   UNL     1      -2.979   0.480  23.809  0.00  0.00    -0.268 OA
ATOM     11  N   UNL     1      -2.336   1.599  24.419  0.00  0.00    -0.151 NA
ATOM     12  C   UNL     1      -1.605   1.327  24.148  0.00  0.00    +0.185 A 
ATOM     13  N   UNL     1      -0.876   1.692  24.275  0.00  0.00    -0.227 NA
ATOM     14  C   UNL     1      -0.296   1.233  23.908  0.00  0.00    +0.063 A 
ATOM     15  C   UNL     1      -0.668   0.586  23.555  0.00  0.00    +0.023 A 
ATOM     16  C   UNL     1      -0.220   0.028  23.144  0.00  0.00    +0.034 C 
ATOM     17  C   UNL     1       0.597   0.116  23.086  0.00  0.00    +0.007 C 
ATOM     18  C   UNL     1       0.226  -0.531  22.733  0.00  0.00    +0.000 C 
ATOM     19  C   UNL     1       1.044  -0.442  22.675  0.00  0.00    +0.001 C 
ATOM     20  C   UNL     1       1.862  -0.355  22.616  0.00  0.00    +0.003 C 
ATOM     21  C   UNL     1       2.234   0.292  22.969  0.00  0.00    +0.039 C 
ATOM     31  C   UNL     1       1.787   0.851  23.380  0.00  0.00    +0.153 C 
ATOM     32  O   UNL     1       2.158   1.497  23.732  0.00  0.00    -0.223 OA
ATOM     33  C   UNL     1       0.969   0.763  23.438  0.00  0.00    +0.036 C 
ATOM     34  C   UNL     1       0.523   1.321  23.849  0.00  0.00    +0.043 C 
ATOM     35  C   UNL     1       0.894   1.967  24.202  0.00  0.00    +0.006 C 
ATOM     36  S   UNL     1      -1.477   0.645  23.704  0.00  0.00    -0.054 S 
ENDROOT
BRANCH   9   6
ATOM      3  C   UNL     1      -5.214   1.991  25.063  0.00  0.00    +0.139 A 
ATOM      4  C   UNL     1      -4.726   2.488  24.622  0.00  0.00    +0.037 A 
ATOM      5  C   UNL     1      -3.996   2.216  24.351  0.00  0.00    +0.008 A 
ATOM      6  C   UNL     1      -3.753   1.447  24.521  0.00  0.00    +0.056 A 
ATOM      7  C   UNL     1      -4.240   0.949  24.962  0.00  0.00    +0.008 A 
ATOM      8  C   UNL     1      -4.970   1.221  25.233  0.00  0.00    +0.037 A 
BRANCH   3   2
ATOM      1  C   UNL     1      -6.076   2.351  26.143  0.00  0.00    +0.252 C 
ATOM      2  O   UNL     1      -5.944   2.262  25.334  0.00  0.00    -0.471 OA
ENDBRANCH   3   2
ENDBRANCH   9   6
BRANCH  21  22
ATOM     22  C   UNL     1       3.053   0.380  22.910  0.00  0.00    +0.079 C 
ATOM     23  C   UNL     1       3.371   1.064  22.579  0.00  0.00    +0.010 C 
BRANCH  22  24
ATOM     24  C   UNL     1       3.552  -0.217  23.184  0.00  0.00    +0.225 C 
ATOM     25  O   UNL     1       3.264  -0.985  23.278  0.00  0.00    -0.275 OA
ATOM     26  N   UNL     1       4.338  -0.045  23.364  0.00  0.00    -0.280 N 
ATOM     27  C   UNL     1       4.900  -0.583  23.641  0.00  0.00    +0.093 C 
ATOM     28  C   UNL     1       5.610  -0.177  23.747  0.00  0.00    +0.023 C 
ATOM     29  C   UNL     1       5.488   0.610  23.535  0.00  0.00    +0.023 C 
ATOM     30  C   UNL     1       4.702   0.692  23.298  0.00  0.00    +0.093 C 
ENDBRANCH  22  24
ENDBRANCH  21  22
TORSDOF 4
ENDMDL
MODEL 3
REMARK VINA RESULT:      -8.4     15.542     17.197
REMARK  Name = 
REMARK  4 active torsions:
REMARK  status: ('A' for Active; 'I' for Inactive)
REMARK    1  A    between atoms: O_2  and  C_3
REMARK    2  A    between atoms: C_6  and  C_9
REMARK    3  A    between atoms: C_21  and  C_22
REMARK    4  A    between atoms: C_22  and  C_24
REMARK                            x       y       z     vdW  Elec       q    Type
REMARK                         _______ _______ _______ _____ _____    ______ ____
ROOT
ATOM      9  C   UNL     1      -6.293 -10.228  16.725  0.00  0.00    +0.271 C 
ATOM     10  O   UNL     1      -6.923  -9.955  16.269  0.00  0.00    -0.268 OA
ATOM     11  N   UNL     1      -5.576 -10.420  16.364  0.00  0.00    -0.151 NA
ATOM     12  C   UNL     1      -5.490 -10.338  15.547  0.00  0.00    +0.185 A 
ATOM     13  N   UNL     1      -4.810 -10.508  15.113  0.00  0.00    -0.227 NA
ATOM     14  C   UNL     1      -4.969 -10.347  14.319  0.00  0.00    +0.063 A 
ATOM     15  C   UNL     1      -5.747 -10.078  14.264  0.00  0.00    +0.023 A 
ATOM     16  C   UNL     1      -6.061  -9.873  13.529  0.00  0.00    +0.034 C 
ATOM     17  C   UNL     1      -5.598  -9.937  12.850  0.00  0.00    +0.007 C 
ATOM     18  C   UNL     1      -6.376  -9.668  12.795  0.00  0.00    +0.000 C 
ATOM     19  C   UNL     1      -5.913  -9.732  12.116  0.00  0.00    +0.001 C 
ATOM     20  C   UNL     1      -5.450  -9.795  11.435  0.00  0.00    +0.003 C 
ATOM     21  C   UNL     1      -4.672 -10.064  11.490  0.00  0.00    +0.039 C 
ATOM     31  C   UNL     1      -4.357 -10.269  12.225  0.00  0.00    +0.153 C 
ATOM     32  O   UNL     1      -3.579 -10.537  12.280  0.00  0.00    -0.223 OA
ATOM     33  C   UNL     1      -4.820 -10.205  12.905  0.00  0.00    +0.036 C 
ATOM     34  C   UNL     1      -4.505 -10.410  13.639  0.00  0.00    +0.043 C 
ATOM     35  C   UNL     1      -3.728 -10.679  13.693  0.00  0.00    +0.006 C 
ATOM     36  S   UNL     1      -6.069 -10.073  15.024  0.00  0.00    -0.054 S 
ENDROOT
BRANCH   9   6
ATOM      3  C   UNL     1      -6.550 -10.473  19.174  0.00  0.00    +0.139 A 
ATOM      4  C   UNL     1      -5.872 -10.758  18.799  0.00  0.00    +0.037 A 
ATOM      5  C   UNL     1      -5.787 -10.676  17.983  0.00  0.00    +0.008 A 
ATOM      6  C   UNL     1      -6.378 -10.310  17.541  0.00  0.00    +0.056 A 
ATOM      7  C   UNL     1      -7.056 -10.025  17.915  0.00  0.00    +0.008 A 
ATOM      8  C   UNL     1      -7.141 -10.107  18.731  0.00  0.00    +0.037 A 
BRANCH   3   2
ATOM      1  C   UNL     1      -5.971 -10.539  20.478  0.00  0.00    +0.252 C 
ATOM      2  O   UNL     1      -6.636 -10.555  19.991  0.00  0.00    -0.471 OA
ENDBRANCH   3   2
ENDBRANCH   9   6
BRANCH  21  22
ATOM     22  C   UNL     1      -4.208 -10.127  10.810  0.00  0.00    +0.079 C 
ATOM     23  C   UNL     1      -3.717 -10.781  10.706  0.00  0.00    +0.010 C 
BRANCH  22  24
ATOM     24  C   UNL     1      -4.237  -9.536  10.235  0.00  0.00    +0.225 C 
ATOM     25  O   UNL     1      -4.068  -8.755  10.438  0.00  0.00    -0.275 OA
ATOM     26  N   UNL     1      -4.434  -9.728   9.458  0.00  0.00    -0.280 N 
ATOM     27  C   UNL     1      -4.485  -9.199   8.826  0.00  0.00    +0.093 C 
ATOM     28  C   UNL     1      -4.697  -9.626   8.153  0.00  0.00    +0.023 C 
ATOM     29  C   UNL     1      -4.777 -10.418   8.368  0.00  0.00    +0.023 C 
ATOM     30  C   UNL     1      -4.615 -10.481   9.174  0.00  0.00    +0.093 C 
ENDBRANCH  22  24
ENDBRANCH  21  22
TORSDOF 4
ENDMDL
MODEL 4
REMARK VINA RESULT:      -7.8     15.224     17.160
REMARK  Name = 
REMARK  4 active torsions:
REMARK  status: ('A' for Active; 'I' for Inactive)
REMARK    1  A    between atoms: O_2  and  C_3
REMARK    2  A    between atoms: C_6  and  C_9
REMARK    3  A    between atoms: C_21  and  C_22
REMARK    4  A    between atoms: C_22  and  C_24
REMARK                            x       y       z     vdW  Elec       q    Type
REMARK                         _______ _______ _______ _____ _____    ______ ____
ROOT
ATOM      9  C   UNL     1      -7.115 -10.262  16.667  0.00  0.00    +0.271 C 
ATOM     10  O   UNL     1      -6.402 -10.438  17.043  0.00  0.00    -0.268 OA
ATOM     11  N   UNL     1      -7.136 -10.169  15.847  0.00  0.00    -0.151 NA
ATOM     12  C   UNL     1      -6.445 -10.253  15.404  0.00  0.00    +0.185 A 
ATOM     13  N   UNL     1      -6.383 -10.176  14.585  0.00  0.00    -0.227 NA
ATOM     14  C   UNL     1      -5.594 -10.304  14.377  0.00  0.00    +0.063 A 
ATOM     15  C   UNL     1      -5.170 -10.459  15.068  0.00  0.00    +0.023 A 
ATOM     16  C   UNL     1      -4.360 -10.609  15.029  0.00  0.00    +0.034 C 
ATOM     17  C   UNL     1      -3.973 -10.604  14.301  0.00  0.00    +0.007 C 
ATOM     18  C   UNL     1      -3.550 -10.759  14.992  0.00  0.00    +0.000 C 
ATOM     19  C   UNL     1      -3.164 -10.754  14.263  0.00  0.00    +0.001 C 
ATOM     20  C   UNL     1      -2.777 -10.749  13.534  0.00  0.00    +0.003 C 
ATOM     21  C   UNL     1      -3.200 -10.594  12.843  0.00  0.00    +0.039 C 
ATOM     31  C   UNL     1      -4.011 -10.444  12.881  0.00  0.00    +0.153 C 
ATOM     32  O   UNL     1      -4.435 -10.289  12.192  0.00  0.00    -0.223 OA
ATOM     33  C   UNL     1      -4.397 -10.449  13.610  0.00  0.00    +0.036 C 
ATOM     34  C   UNL     1      -5.207 -10.299  13.648  0.00  0.00    +0.043 C 
ATOM     35  C   UNL     1      -5.631 -10.144  12.958  0.00  0.00    +0.006 C 
ATOM     36  S   UNL     1      -5.697 -10.428  15.703  0.00  0.00    -0.054 S 
ENDROOT
BRANCH   9   6
ATOM      3  C   UNL     1      -9.188 -10.011  17.995  0.00  0.00    +0.139 A 
ATOM      4  C   UNL     1      -9.011  -9.468  17.400  0.00  0.00    +0.037 A 
ATOM      5  C   UNL     1      -8.320  -9.552  16.957  0.00  0.00    +0.008 A 
ATOM      6  C   UNL     1      -7.806 -10.178  17.109  0.00  0.00    +0.056 A 
ATOM      7  C   UNL     1      -7.983 -10.721  17.704  0.00  0.00    +0.008 A 
ATOM      8  C   UNL     1      -8.674 -10.637  18.147  0.00  0.00    +0.037 A 
BRANCH   3   2
ATOM      1  C   UNL     1     -10.068 -10.484  19.016  0.00  0.00    +0.252 C 
ATOM      2  O   UNL     1      -9.879  -9.927  18.438  0.00  0.00    -0.471 OA
ENDBRANCH   3   2
ENDBRANCH   9   6
BRANCH  21  22
ATOM     22  C   UNL     1      -2.814 -10.589  12.114  0.00  0.00    +0.079 C 
ATOM     23  C   UNL     1      -3.227 -10.780  11.427  0.00  0.00    +0.010 C 
BRANCH  22  24
ATOM     24  C   UNL     1      -2.014 -10.392  12.073  0.00  0.00    +0.225 C 
ATOM     25  O   UNL     1      -1.468 -10.778  12.557  0.00  0.00    -0.275 OA
ATOM     26  N   UNL     1      -1.760  -9.807  11.549  0.00  0.00    -0.280 N 
ATOM     27  C   UNL     1      -0.982  -9.552  11.447  0.00  0.00    +0.093 C 
ATOM     28  C   UNL     1      -0.980  -8.963  10.870  0.00  0.00    +0.023 C 
ATOM     29  C   UNL     1      -1.756  -8.854  10.615  0.00  0.00    +0.023 C 
ATOM     30  C   UNL     1      -2.238  -9.376  11.034  0.00  0.00    +0.093 C 
ENDBRANCH  22  24
ENDBRANCH  21  22
TORSDOF 4
ENDMDL
MODEL 5
REMARK VINA RESULT:      -7.5     15.529     17.477
REMARK  Name = 
REMARK  4 active torsions:
REMARK  status: ('A' for Active; 'I' for Inactive)
REMARK    1  A    between atoms: O_2  and  C_3
REMARK    2  A    between atoms: C_6  and  C_9
REMARK    3  A    between atoms: C_21  and  C_22
REMARK    4  A    between atoms: C_22  and  C_24
REMARK                            x       y       z     vdW  Elec       q    Type
REMARK                         _______ _______ _______ _____ _____    ______ ____
ROOT
ATOM      9  C   UNL     1      -8.502 -10.056  17.122  0.00  0.00    +0.271 C 
ATOM     10  O   UNL     1      -7.696 -10.056  17.296  0.00  0.00    -0.268 OA
ATOM     11  N   UNL     1      -8.753 -10.047  16.336  0.00  0.00    -0.151 NA
ATOM     12  C   UNL     1      -8.199 -10.037  15.725  0.00  0.00    +0.185 A 
ATOM     13  N   UNL     1      -8.369 -10.027  14.918  0.00  0.00    -0.227 NA
ATOM     14  C   UNL     1      -7.652 -10.019  14.508  0.00  0.00    +0.063 A 
ATOM     15  C   UNL     1      -7.041 -10.024  15.062  0.00  0.00    +0.023 A 
ATOM     16  C   UNL     1      -6.256 -10.018  14.810  0.00  0.00    +0.034 C 
ATOM     17  C   UNL     1      -6.081 -10.007  14.004  0.00  0.00    +0.007 C 
ATOM     18  C   UNL     1      -5.470 -10.012  14.559  0.00  0.00    +0.000 C 
ATOM     19  C   UNL     1      -5.296 -10.001  13.752  0.00  0.00    +0.001 C 
ATOM     20  C   UNL     1      -5.121  -9.990  12.946  0.00  0.00    +0.003 C 
ATOM     21  C   UNL     1      -5.732  -9.985  12.392  0.00  0.00    +0.039 C 
ATOM     31  C   UNL     1      -6.518  -9.991  12.644  0.00  0.00    +0.153 C 
ATOM     32  O   UNL     1      -7.129  -9.986  12.090  0.00  0.00    -0.223 OA
ATOM     33  C   UNL     1      -6.692 -10.002  13.450  0.00  0.00    +0.036 C 
ATOM     34  C   UNL     1      -7.478 -10.008  13.701  0.00  0.00    +0.043 C 
ATOM     35  C   UNL     1      -8.088 -10.003  13.147  0.00  0.00    +0.006 C 
ATOM     36  S   UNL     1      -7.380 -10.035  15.815  0.00  0.00    -0.054 S 
ENDROOT
BRANCH   9   6
ATOM      3  C   UNL     1     -10.165 -10.086  18.955  0.00  0.00    +0.139 A 
ATOM      4  C   UNL     1      -9.570 -10.657  18.927  0.00  0.00    +0.037 A 
ATOM      5  C   UNL     1      -9.016 -10.647  18.317  0.00  0.00    +0.008 A 
ATOM      6  C   UNL     1      -9.056 -10.066  17.733  0.00  0.00    +0.056 A 
ATOM      7  C   UNL     1      -9.651  -9.495  17.759  0.00  0.00    +0.008 A 
ATOM      8  C   UNL     1     -10.205  -9.505  18.370  0.00  0.00    +0.037 A 
BRANCH   3   2
ATOM      1  C   UNL     1     -10.720 -10.713  20.112  0.00  0.00    +0.252 C 
ATOM      2  O   UNL     1     -10.719 -10.096  19.566  0.00  0.00    -0.471 OA
ENDBRANCH   3   2
ENDBRANCH   9   6
BRANCH  21  22
ATOM     22  C   UNL     1      -5.557  -9.974  11.585  0.00  0.00    +0.079 C 
ATOM     23  C   UNL     1      -5.743 -10.624  11.114  0.00  0.00    +0.010 C 
BRANCH  22  24
ATOM     24  C   UNL     1      -5.197  -9.312  11.250  0.00  0.00    +0.225 C 
ATOM     25  O   UNL     1      -5.475  -8.556  11.429  0.00  0.00    -0.275 OA
ATOM     26  N   UNL     1      -4.559  -9.406  10.737  0.00  0.00    -0.280 N 
ATOM     27  C   UNL     1      -4.144  -8.798  10.362  0.00  0.00    +0.093 C 
ATOM     28  C   UNL     1      -3.552  -9.140   9.902  0.00  0.00    +0.023 C 
ATOM     29  C   UNL     1      -3.599  -9.958   9.992  0.00  0.00    +0.023 C 
ATOM     30  C   UNL     1      -4.221 -10.122  10.508  0.00  0.00    +0.093 C 
ENDBRANCH  22  24
ENDBRANCH  21  22
TORSDOF 4
ENDMDL
MODEL 6
REMARK VINA RESULT:      -7.1     15.862     17.223
REMARK  Name = 
REMARK  4 active torsions:
REMARK  status: ('A' for Active; 'I' for Inactive)
REMARK    1  A    between atoms: O_2  and  C_3
REMARK    2  A    between atoms: C_6  and  C_9
REMARK    3  A    between atoms: C_21  and  C_22
REMARK    4  A    between atoms: C_22  and  C_24
REMARK                            x       y       z     vdW  Elec       q    Type
REMARK                         _______ _______ _______ _____ _____    ______ ____
ROOT
ATOM      9  C   UNL     1      -5.433 -10.321  16.149  0.00  0.00    +0.271 C 
ATOM     10  O   UNL     1      -4.723 -10.332  15.728  0.00  0.00    -0.268 OA
ATOM     11  N   UNL     1      -6.145 -10.196  15.752  0.00  0.00    -0.151 NA
ATOM     12  C   UNL     1      -6.147 -10.082  14.935  0.00  0.00    +0.185 A 
ATOM     13  N   UNL     1      -6.814  -9.952  14.467  0.00  0.00    -0.227 NA
ATOM     14  C   UNL     1      -6.563  -9.868  13.685  0.00  0.00    +0.063 A 
ATOM     15  C   UNL     1      -5.742  -9.946  13.671  0.00  0.00    +0.023 A 
ATOM     16  C   UNL     1      -5.334  -9.886  12.956  0.00  0.00    +0.034 C 
ATOM     17  C   UNL     1      -5.746  -9.749  12.256  0.00  0.00    +0.007 C 
ATOM     18  C   UNL     1      -4.925  -9.827  12.242  0.00  0.00    +0.000 C 
ATOM     19  C   UNL     1      -5.339  -9.689  11.542  0.00  0.00    +0.001 C 
ATOM     20  C   UNL     1      -5.751  -9.551  10.841  0.00  0.00    +0.003 C 
ATOM     21  C   UNL     1      -6.572  -9.473  10.854  0.00  0.00    +0.039 C 
ATOM     31  C   UNL     1      -6.981  -9.532  11.569  0.00  0.00    +0.153 C 
ATOM     32  O   UNL     1      -7.801  -9.454  11.583  0.00  0.00    -0.223 OA
ATOM     33  C   UNL     1      -6.568  -9.670  12.270  0.00  0.00    +0.036 C 
ATOM     34  C   UNL     1      -6.976  -9.729  12.984  0.00  0.00    +0.043 C 
ATOM     35  C   UNL     1      -7.796  -9.651  12.997  0.00  0.00    +0.006 C 
ATOM     36  S   UNL     1      -5.485 -10.079  14.444  0.00  0.00    -0.054 S 
ENDROOT
BRANCH   9   6
ATOM      3  C   UNL     1      -5.424 -10.663  18.600  0.00  0.00    +0.139 A 
ATOM      4  C   UNL     1      -4.733 -10.778  18.165  0.00  0.00    +0.037 A 
ATOM      5  C   UNL     1      -4.736 -10.664  17.348  0.00  0.00    +0.008 A 
ATOM      6  C   UNL     1      -5.430 -10.435  16.966  0.00  0.00    +0.056 A 
ATOM      7  C   UNL     1      -6.121 -10.320  17.401  0.00  0.00    +0.008 A 
ATOM      8  C   UNL     1      -6.118 -10.434  18.218  0.00  0.00    +0.037 A 
BRANCH   3   2
ATOM      1  C   UNL     1      -6.121 -10.702  19.846  0.00  0.00    +0.252 C 
ATOM      2  O   UNL     1      -5.421 -10.777  19.417  0.00  0.00    -0.471 OA
ENDBRANCH   3   2
ENDBRANCH   9   6
BRANCH  21  22
ATOM     22  C   UNL     1      -6.986  -9.334  10.153  0.00  0.00    +0.079 C 
ATOM     23  C   UNL     1      -7.478  -9.918   9.843  0.00  0.00    +0.010 C 
BRANCH  22  24
ATOM     24  C   UNL     1      -6.906  -8.612   9.763  0.00  0.00    +0.225 C 
ATOM     25  O   UNL     1      -6.324  -8.077  10.001  0.00  0.00    -0.275 OA
ATOM     26  N   UNL     1      -7.407  -8.425   9.136  0.00  0.00    -0.280 N 
ATOM     27  C   UNL     1      -7.393  -7.727   8.696  0.00  0.00    +0.093 C 
ATOM     28  C   UNL     1      -7.988  -7.773   8.126  0.00  0.00    +0.023 C 
ATOM     29  C   UNL     1      -8.370  -8.498   8.214  0.00  0.00    +0.023 C 
ATOM     30  C   UNL     1      -8.011  -8.901   8.838  0.00  0.00    +0.093 C 
ENDBRANCH  22  24
ENDBRANCH  21  22
TORSDOF 4
ENDMDL
