REMARK  Name = 
REMARK  6 active torsions:
REMARK  status: ('A' for Active; 'I' for Inactive)
REMARK    1  A    between atoms: C_2  and  C_3
REMARK    2  A    between atoms: C_3  and  S_4
REMARK    3  A    between atoms: S_4  and  N_7
REMARK    4  A    between atoms: N_7  and  C_8
REMARK    5  A    between atoms: C_10  and  C_14
REMARK    6  A    between atoms: C_16  and  C_19
REMARK                            x       y       z     vdW  Elec       q    Type
REMARK                         _______ _______ _______ _____ _____    ______ ____
ROOT
ATOM      8  C   UNL     1      -0.596  -3.041   0.000  0.00  0.00    +0.115 C 
ATOM      9  C   UNL     1       0.072  -3.525   0.000  0.00  0.00    +0.046 C 
ATOM     10  C   UNL     1      -0.183  -4.310   0.000  0.00  0.00    +0.139 C 
ATOM     11  N   UNL     1      -1.008  -4.310   0.000  0.00  0.00    -0.264 NA
ATOM     12  C   UNL     1      -1.493  -4.977   0.000  0.00  0.00    +0.090 C 
ATOM     13  C   UNL     1      -1.263  -3.525   0.000  0.00  0.00    +0.092 C 
ENDROOT
BRANCH  10  14
ATOM     14  C   UNL     1       0.302  -4.977   0.000  0.00  0.00    +0.251 A 
ATOM     15  N   UNL     1       1.127  -4.977   0.000  0.00  0.00    -0.190 NA
ATOM     16  C   UNL     1       1.382  -5.762   0.000  0.00  0.00    +0.203 A 
ATOM     17  N   UNL     1       0.715  -6.247   0.000  0.00  0.00    -0.056 NA
ATOM     18  O   UNL     1       0.047  -5.762   0.000  0.00  0.00    -0.336 OA
BRANCH  16  19
ATOM     19  C   UNL     1       2.167  -6.017   0.000  0.00  0.00    +0.039 A 
ATOM     20  C   UNL     1       2.780  -5.465   0.000  0.00  0.00    +0.003 A 
ATOM     21  C   UNL     1       3.564  -5.720   0.000  0.00  0.00    -0.004 A 
ATOM     22  C   UNL     1       3.736  -6.527   0.000  0.00  0.00    -0.022 A 
ATOM     23  C   UNL     1       4.520  -6.782   0.000  0.00  0.00    +0.031 C 
ATOM     24  C   UNL     1       3.123  -7.079   0.000  0.00  0.00    -0.004 A 
ATOM     25  C   UNL     1       2.338  -6.824   0.000  0.00  0.00    +0.003 A 
ENDBRANCH  16  19
ENDBRANCH  10  14
BRANCH   8   7
ATOM      7  N   UNL     1      -0.596  -2.216   0.000  0.00  0.00    -0.082 NA
BRANCH   7   4
ATOM      4  S   UNL     1      -1.310  -1.803   0.000  0.00  0.00    +0.057 S 
ATOM      5  O   UNL     1      -1.722  -2.517   0.000  0.00  0.00    -0.156 OA
ATOM      6  O   UNL     1      -0.897  -1.089   0.000  0.00  0.00    -0.156 OA
BRANCH   4   3
ATOM      3  C   UNL     1      -2.024  -1.391   0.000  0.00  0.00    +0.171 C 
BRANCH   3   2
ATOM      1  C   UNL     1      -2.739  -0.153   0.000  0.00  0.00    +0.002 C 
ATOM      2  C   UNL     1      -2.024  -0.566   0.000  0.00  0.00    +0.027 C 
ENDBRANCH   3   2
ENDBRANCH   4   3
ENDBRANCH   7   4
ENDBRANCH   8   7
TORSDOF 6
