MODEL 1
REMARK VINA RESULT:     -10.2      0.000      0.000
REMARK  Name = 
REMARK  10 active torsions:
REMARK  status: ('A' for Active; 'I' for Inactive)
REMARK    1  A    between atoms: C_2  and  O_3
REMARK    2  A    between atoms: O_3  and  C_4
REMARK    3  A    between atoms: C_4  and  C_6
REMARK    4  A    between atoms: C_10  and  N_11
REMARK    5  A    between atoms: C_12  and  O_14
REMARK    6  A    between atoms: O_14  and  C_15
REMARK    7  A    between atoms: C_19  and  N_23
REMARK    8  A    between atoms: C_27  and  S_28
REMARK    9  A    between atoms: S_28  and  C_29
REMARK   10  A    between atoms: C_29  and  C_30
REMARK                            x       y       z     vdW  Elec       q    Type
REMARK                         _______ _______ _______ _____ _____    ______ ____
ROOT
ATOM     15  C   UNL     1      -0.236   1.439  24.846  0.00  0.00    +0.229 C 
ATOM     16  C   UNL     1      -0.274   1.759  24.087  0.00  0.00    +0.188 C 
ATOM     17  O   UNL     1      -0.559   2.530  24.150  0.00  0.00    -0.348 OA
ATOM     18  C   UNL     1      -0.697   2.687  24.947  0.00  0.00    +0.171 C 
ATOM     19  C   UNL     1      -0.958   3.260  25.480  0.00  0.00    +0.168 C 
ATOM     20  C   UNL     1      -0.920   2.940  26.239  0.00  0.00    +0.169 C 
ATOM     21  O   UNL     1      -0.635   2.169  26.176  0.00  0.00    -0.348 OA
ATOM     22  C   UNL     1      -0.497   2.012  25.378  0.00  0.00    +0.187 C 
ENDROOT
BRANCH  19  23
ATOM     23  N   UNL     1      -1.213   4.021  25.287  0.00  0.00    -0.205 N 
ATOM     24  N   UNL     1      -0.729   4.662  25.096  0.00  0.00    -0.042 NA
ATOM     25  N   UNL     1      -1.213   5.311  24.942  0.00  0.00    -0.022 NA
ATOM     26  N   UNL     1      -1.997   5.072  25.038  0.00  0.00    -0.101 NA
ATOM     27  C   UNL     1      -1.997   4.275  25.251  0.00  0.00    +0.211 A 
BRANCH  27  28
ATOM     28  S   UNL     1      -2.664   3.814  25.402  0.00  0.00    -0.066 S 
BRANCH  28  29
ATOM     29  C   UNL     1      -3.416   4.103  25.222  0.00  0.00    +0.129 C 
BRANCH  29  30
ATOM     30  C   UNL     1      -4.076   3.617  25.310  0.00  0.00    +0.134 A 
ATOM     31  C   UNL     1      -4.431   3.169  24.715  0.00  0.00    +0.037 A 
ATOM     32  C   UNL     1      -5.072   2.769  25.046  0.00  0.00    +0.043 A 
ATOM     33  C   UNL     1      -5.114   2.969  25.844  0.00  0.00    +0.179 A 
ATOM     34  O   UNL     1      -4.498   3.494  26.008  0.00  0.00    -0.454 OA
ENDBRANCH  29  30
ENDBRANCH  28  29
ENDBRANCH  27  28
ENDBRANCH  19  23
BRANCH  15  14
ATOM     14  O   UNL     1       0.019   0.678  25.039  0.00  0.00    -0.432 OA
BRANCH  14  12
ATOM     11  N   UNL     1      -0.679  -0.542  25.296  0.00  0.00    -0.142 NA
ATOM     12  C   UNL     1      -0.397   0.021  24.764  0.00  0.00    +0.425 C 
ATOM     13  O   UNL     1      -0.531  -0.073  23.955  0.00  0.00    -0.224 OA
BRANCH  11  10
ATOM      6  C   UNL     1      -2.335  -1.856  24.754  0.00  0.00    +0.077 A 
ATOM      7  C   UNL     1      -1.926  -2.514  24.471  0.00  0.00    +0.007 A 
ATOM      8  C   UNL     1      -1.101  -2.514  24.462  0.00  0.00    +0.002 A 
ATOM      9  C   UNL     1      -0.686  -1.857  24.737  0.00  0.00    +0.017 A 
ATOM     10  C   UNL     1      -1.095  -1.199  25.021  0.00  0.00    +0.077 A 
ATOM     35  C   UNL     1      -1.919  -1.199  25.030  0.00  0.00    +0.023 A 
BRANCH   6   4
ATOM      4  C   UNL     1      -3.160  -1.856  24.763  0.00  0.00    +0.341 C 
ATOM      5  O   UNL     1      -3.568  -2.371  25.263  0.00  0.00    -0.245 OA
BRANCH   4   3
ATOM      3  O   UNL     1      -3.578  -1.342  24.272  0.00  0.00    -0.445 OA
BRANCH   3   2
ATOM      1  C   UNL     1      -4.790  -0.626  24.027  0.00  0.00    +0.051 C 
ATOM      2  C   UNL     1      -4.398  -1.280  24.342  0.00  0.00    +0.209 C 
ENDBRANCH   3   2
ENDBRANCH   4   3
ENDBRANCH   6   4
ENDBRANCH  11  10
ENDBRANCH  14  12
ENDBRANCH  15  14
TORSDOF 10
ENDMDL
MODEL 2
REMARK VINA RESULT:      -9.8      1.443      4.885
REMARK  Name = 
REMARK  10 active torsions:
REMARK  status: ('A' for Active; 'I' for Inactive)
REMARK    1  A    between atoms: C_2  and  O_3
REMARK    2  A    between atoms: O_3  and  C_4
REMARK    3  A    between atoms: C_4  and  C_6
REMARK    4  A    between atoms: C_10  and  N_11
REMARK    5  A    between atoms: C_12  and  O_14
REMARK    6  A    between atoms: O_14  and  C_15
REMARK    7  A    between atoms: C_19  and  N_23
REMARK    8  A    between atoms: C_27  and  S_28
REMARK    9  A    between atoms: S_28  and  C_29
REMARK   10  A    between atoms: C_29  and  C_30
REMARK                            x       y       z     vdW  Elec       q    Type
REMARK                         _______ _______ _______ _____ _____    ______ ____
ROOT
ATOM     15  C   UNL     1      -0.178   1.018  24.458  0.00  0.00    +0.229 C 
ATOM     16  C   UNL     1      -0.285   0.784  23.674  0.00  0.00    +0.188 C 
ATOM     17  O   UNL     1      -0.614   0.028  23.677  0.00  0.00    -0.348 OA
ATOM     18  C   UNL     1      -0.711  -0.205  24.462  0.00  0.00    +0.171 C 
ATOM     19  C   UNL     1      -0.974  -0.816  24.950  0.00  0.00    +0.168 C 
ATOM     20  C   UNL     1      -0.867  -0.583  25.733  0.00  0.00    +0.169 C 
ATOM     21  O   UNL     1      -0.537   0.173  25.730  0.00  0.00    -0.348 OA
ATOM     22  C   UNL     1      -0.441   0.407  24.945  0.00  0.00    +0.187 C 
ENDROOT
BRANCH  19  23
ATOM     23  N   UNL     1      -1.289  -1.536  24.697  0.00  0.00    -0.205 N 
ATOM     24  N   UNL     1      -0.866  -2.159  24.359  0.00  0.00    -0.042 NA
ATOM     25  N   UNL     1      -1.399  -2.767  24.191  0.00  0.00    -0.022 NA
ATOM     26  N   UNL     1      -2.149  -2.520  24.426  0.00  0.00    -0.101 NA
ATOM     27  C   UNL     1      -2.082  -1.759  24.738  0.00  0.00    +0.211 A 
BRANCH  27  28
ATOM     28  S   UNL     1      -2.700  -1.302  25.039  0.00  0.00    -0.066 S 
BRANCH  28  29
ATOM     29  C   UNL     1      -3.467  -1.406  24.753  0.00  0.00    +0.129 C 
BRANCH  29  30
ATOM     30  C   UNL     1      -4.014  -0.791  24.809  0.00  0.00    +0.134 A 
ATOM     31  C   UNL     1      -4.439  -0.461  24.183  0.00  0.00    +0.037 A 
ATOM     32  C   UNL     1      -4.919   0.136  24.488  0.00  0.00    +0.043 A 
ATOM     33  C   UNL     1      -4.792   0.176  25.301  0.00  0.00    +0.179 A 
ATOM     34  O   UNL     1      -4.232  -0.397  25.500  0.00  0.00    -0.454 OA
ENDBRANCH  29  30
ENDBRANCH  28  29
ENDBRANCH  27  28
ENDBRANCH  19  23
BRANCH  15  14
ATOM     14  O   UNL     1       0.138   1.738  24.711  0.00  0.00    -0.432 OA
BRANCH  14  12
ATOM     11  N   UNL     1      -0.443   2.868  25.365  0.00  0.00    -0.142 NA
ATOM     12  C   UNL     1      -0.321   2.423  24.681  0.00  0.00    +0.425 C 
ATOM     13  O   UNL     1      -0.659   2.662  23.967  0.00  0.00    -0.224 OA
BRANCH  11  10
ATOM      6  C   UNL     1      -2.142   4.223  25.571  0.00  0.00    +0.077 A 
ATOM      7  C   UNL     1      -1.820   4.923  25.277  0.00  0.00    +0.007 A 
ATOM      8  C   UNL     1      -1.038   4.938  25.012  0.00  0.00    +0.002 A 
ATOM      9  C   UNL     1      -0.580   4.253  25.041  0.00  0.00    +0.017 A 
ATOM     10  C   UNL     1      -0.902   3.553  25.336  0.00  0.00    +0.077 A 
ATOM     35  C   UNL     1      -1.683   3.538  25.600  0.00  0.00    +0.023 A 
BRANCH   6   4
ATOM      4  C   UNL     1      -2.923   4.208  25.836  0.00  0.00    +0.341 C 
ATOM      5  O   UNL     1      -3.102   4.443  26.607  0.00  0.00    -0.245 OA
BRANCH   4   3
ATOM      3  O   UNL     1      -3.526   3.959  25.331  0.00  0.00    -0.445 OA
BRANCH   3   2
ATOM      1  C   UNL     1      -4.919   3.731  25.112  0.00  0.00    +0.051 C 
ATOM      2  C   UNL     1      -4.282   3.819  25.629  0.00  0.00    +0.209 C 
ENDBRANCH   3   2
ENDBRANCH   4   3
ENDBRANCH   6   4
ENDBRANCH  11  10
ENDBRANCH  14  12
ENDBRANCH  15  14
TORSDOF 10
ENDMDL
MODEL 3
REMARK VINA RESULT:      -9.7      1.737      3.586
REMARK  Name = 
REMARK  10 active torsions:
REMARK  status: ('A' for Active; 'I' for Inactive)
REMARK    1  A    between atoms: C_2  and  O_3
REMARK    2  A    between atoms: O_3  and  C_4
REMARK    3  A    between atoms: C_4  and  C_6
REMARK    4  A    between atoms: C_10  and  N_11
REMARK    5  A    between atoms: C_12  and  O_14
REMARK    6  A    between atoms: O_14  and  C_15
REMARK    7  A    between atoms: C_19  and  N_23
REMARK    8  A    between atoms: C_27  and  S_28
REMARK    9  A    between atoms: S_28  and  C_29
REMARK   10  A    between atoms: C_29  and  C_30
REMARK                            x       y       z     vdW  Elec       q    Type
REMARK                         _______ _______ _______ _____ _____    ______ ____
ROOT
ATOM     15  C   UNL     1      -4.802   0.481  24.829  0.00  0.00    +0.229 C 
ATOM     16  C   UNL     1      -5.100   0.561  25.594  0.00  0.00    +0.188 C 
ATOM     17  O   UNL     1      -5.131   1.365  25.772  0.00  0.00    -0.348 OA
ATOM     18  C   UNL     1      -4.853   1.783  25.119  0.00  0.00    +0.171 C 
ATOM     19  C   UNL     1      -4.699   2.538  24.824  0.00  0.00    +0.168 C 
ATOM     20  C   UNL     1      -4.401   2.458  24.059  0.00  0.00    +0.169 C 
ATOM     21  O   UNL     1      -4.371   1.654  23.880  0.00  0.00    -0.348 OA
ATOM     22  C   UNL     1      -4.649   1.236  24.535  0.00  0.00    +0.187 C 
ENDROOT
BRANCH  19  23
ATOM     23  N   UNL     1      -4.823   3.249  25.225  0.00  0.00    -0.205 N 
ATOM     24  N   UNL     1      -5.554   3.558  25.451  0.00  0.00    -0.042 NA
ATOM     25  N   UNL     1      -5.419   4.275  25.836  0.00  0.00    -0.022 NA
ATOM     26  N   UNL     1      -4.606   4.409  25.847  0.00  0.00    -0.101 NA
ATOM     27  C   UNL     1      -4.237   3.775  25.469  0.00  0.00    +0.211 A 
BRANCH  27  28
ATOM     28  S   UNL     1      -3.425   3.684  25.356  0.00  0.00    -0.066 S 
BRANCH  28  29
ATOM     29  C   UNL     1      -2.897   4.211  25.710  0.00  0.00    +0.129 C 
BRANCH  29  30
ATOM     30  C   UNL     1      -2.095   4.180  25.521  0.00  0.00    +0.134 A 
ATOM     31  C   UNL     1      -1.656   4.783  25.168  0.00  0.00    +0.037 A 
ATOM     32  C   UNL     1      -0.880   4.515  25.081  0.00  0.00    +0.043 A 
ATOM     33  C   UNL     1      -0.839   3.748  25.380  0.00  0.00    +0.179 A 
ATOM     34  O   UNL     1      -1.590   3.540  25.652  0.00  0.00    -0.454 OA
ENDBRANCH  29  30
ENDBRANCH  28  29
ENDBRANCH  27  28
ENDBRANCH  19  23
BRANCH  15  14
ATOM     14  O   UNL     1      -4.679  -0.230  24.428  0.00  0.00    -0.432 OA
BRANCH  14  12
ATOM     11  N   UNL     1      -3.580  -1.067  24.065  0.00  0.00    -0.142 NA
ATOM     12  C   UNL     1      -4.054  -0.723  24.645  0.00  0.00    +0.425 C 
ATOM     13  O   UNL     1      -3.904  -0.871  25.443  0.00  0.00    -0.224 OA
BRANCH  11  10
ATOM      6  C   UNL     1      -1.567  -1.748  24.565  0.00  0.00    +0.077 A 
ATOM      7  C   UNL     1      -1.705  -2.547  24.714  0.00  0.00    +0.007 A 
ATOM      8  C   UNL     1      -2.469  -2.853  24.647  0.00  0.00    +0.002 A 
ATOM      9  C   UNL     1      -3.093  -2.360  24.430  0.00  0.00    +0.017 A 
ATOM     10  C   UNL     1      -2.955  -1.560  24.281  0.00  0.00    +0.077 A 
ATOM     35  C   UNL     1      -2.192  -1.255  24.348  0.00  0.00    +0.023 A 
BRANCH   6   4
ATOM      4  C   UNL     1      -0.804  -1.442  24.632  0.00  0.00    +0.341 C 
ATOM      5  O   UNL     1      -0.396  -1.505  25.347  0.00  0.00    -0.245 OA
BRANCH   4   3
ATOM      3  O   UNL     1      -0.448  -1.073  23.986  0.00  0.00    -0.445 OA
BRANCH   3   2
ATOM      1  C   UNL     1       0.580  -0.240  23.447  0.00  0.00    +0.051 C 
ATOM      2  C   UNL     1       0.232  -0.618  24.093  0.00  0.00    +0.209 C 
ENDBRANCH   3   2
ENDBRANCH   4   3
ENDBRANCH   6   4
ENDBRANCH  11  10
ENDBRANCH  14  12
ENDBRANCH  15  14
TORSDOF 10
ENDMDL
MODEL 4
REMARK VINA RESULT:      -9.5      1.521      3.465
REMARK  Name = 
REMARK  10 active torsions:
REMARK  status: ('A' for Active; 'I' for Inactive)
REMARK    1  A    between atoms: C_2  and  O_3
REMARK    2  A    between atoms: O_3  and  C_4
REMARK    3  A    between atoms: C_4  and  C_6
REMARK    4  A    between atoms: C_10  and  N_11
REMARK    5  A    between atoms: C_12  and  O_14
REMARK    6  A    between atoms: O_14  and  C_15
REMARK    7  A    between atoms: C_19  and  N_23
REMARK    8  A    between atoms: C_27  and  S_28
REMARK    9  A    between atoms: S_28  and  C_29
REMARK   10  A    between atoms: C_29  and  C_30
REMARK                            x       y       z     vdW  Elec       q    Type
REMARK                         _______ _______ _______ _____ _____    ______ ____
ROOT
ATOM     15  C   UNL     1      -4.777   0.922  24.714  0.00  0.00    +0.229 C 
ATOM     16  C   UNL     1      -5.034   1.089  25.479  0.00  0.00    +0.188 C 
ATOM     17  O   UNL     1      -4.803   1.859  25.663  0.00  0.00    -0.348 OA
ATOM     18  C   UNL     1      -4.403   2.168  25.012  0.00  0.00    +0.171 C 
ATOM     19  C   UNL     1      -4.012   2.834  24.722  0.00  0.00    +0.168 C 
ATOM     20  C   UNL     1      -3.755   2.668  23.957  0.00  0.00    +0.169 C 
ATOM     21  O   UNL     1      -3.986   1.898  23.773  0.00  0.00    -0.348 OA
ATOM     22  C   UNL     1      -4.387   1.589  24.425  0.00  0.00    +0.187 C 
ENDROOT
BRANCH  19  23
ATOM     23  N   UNL     1      -3.899   3.544  25.128  0.00  0.00    -0.205 N 
ATOM     24  N   UNL     1      -4.486   4.090  25.325  0.00  0.00    -0.042 NA
ATOM     25  N   UNL     1      -4.129   4.715  25.726  0.00  0.00    -0.022 NA
ATOM     26  N   UNL     1      -3.321   4.556  25.779  0.00  0.00    -0.101 NA
ATOM     27  C   UNL     1      -3.179   3.833  25.409  0.00  0.00    +0.211 A 
BRANCH  27  28
ATOM     28  S   UNL     1      -2.446   3.462  25.334  0.00  0.00    -0.066 S 
BRANCH  28  29
ATOM     29  C   UNL     1      -1.789   3.761  25.735  0.00  0.00    +0.129 C 
BRANCH  29  30
ATOM     30  C   UNL     1      -1.094   3.319  25.774  0.00  0.00    +0.134 A 
ATOM     31  C   UNL     1      -0.464   3.358  25.242  0.00  0.00    +0.037 A 
ATOM     32  C   UNL     1       0.112   2.824  25.492  0.00  0.00    +0.043 A 
ATOM     33  C   UNL     1      -0.160   2.455  26.176  0.00  0.00    +0.179 A 
ATOM     34  O   UNL     1      -0.906   2.761  26.351  0.00  0.00    -0.454 OA
ENDBRANCH  29  30
ENDBRANCH  28  29
ENDBRANCH  27  28
ENDBRANCH  19  23
BRANCH  15  14
ATOM     14  O   UNL     1      -4.890   0.212  24.308  0.00  0.00    -0.432 OA
BRANCH  14  12
ATOM     11  N   UNL     1      -4.106  -0.918  23.922  0.00  0.00    -0.142 NA
ATOM     12  C   UNL     1      -4.449  -0.454  24.511  0.00  0.00    +0.425 C 
ATOM     13  O   UNL     1      -4.351  -0.657  25.306  0.00  0.00    -0.224 OA
BRANCH  11  10
ATOM      6  C   UNL     1      -2.417  -2.183  24.481  0.00  0.00    +0.077 A 
ATOM      7  C   UNL     1      -2.784  -2.920  24.533  0.00  0.00    +0.007 A 
ATOM      8  C   UNL     1      -3.592  -2.989  24.380  0.00  0.00    +0.002 A 
ATOM      9  C   UNL     1      -4.032  -2.322  24.177  0.00  0.00    +0.017 A 
ATOM     10  C   UNL     1      -3.665  -1.585  24.126  0.00  0.00    +0.077 A 
ATOM     35  C   UNL     1      -2.858  -1.516  24.278  0.00  0.00    +0.023 A 
BRANCH   6   4
ATOM      4  C   UNL     1      -1.609  -2.113  24.633  0.00  0.00    +0.341 C 
ATOM      5  O   UNL     1      -1.236  -2.650  25.137  0.00  0.00    -0.245 OA
BRANCH   4   3
ATOM      3  O   UNL     1      -1.174  -1.507  24.282  0.00  0.00    -0.445 OA
BRANCH   3   2
ATOM      1  C   UNL     1       0.011  -0.710  24.220  0.00  0.00    +0.051 C 
ATOM      2  C   UNL     1      -0.430  -1.307  24.579  0.00  0.00    +0.209 C 
ENDBRANCH   3   2
ENDBRANCH   4   3
ENDBRANCH   6   4
ENDBRANCH  11  10
ENDBRANCH  14  12
ENDBRANCH  15  14
TORSDOF 10
ENDMDL
MODEL 5
REMARK VINA RESULT:      -9.3      2.153      5.810
REMARK  Name = 
REMARK  10 active torsions:
REMARK  status: ('A' for Active; 'I' for Inactive)
REMARK    1  A    between atoms: C_2  and  O_3
REMARK    2  A    between atoms: O_3  and  C_4
REMARK    3  A    between atoms: C_4  and  C_6
REMARK    4  A    between atoms: C_10  and  N_11
REMARK    5  A    between atoms: C_12  and  O_14
REMARK    6  A    between atoms: O_14  and  C_15
REMARK    7  A    between atoms: C_19  and  N_23
REMARK    8  A    between atoms: C_27  and  S_28
REMARK    9  A    between atoms: S_28  and  C_29
REMARK   10  A    between atoms: C_29  and  C_30
REMARK                            x       y       z     vdW  Elec       q    Type
REMARK                         _______ _______ _______ _____ _____    ______ ____
ROOT
ATOM     15  C   UNL     1      -4.518   0.011  24.711  0.00  0.00    +0.229 C 
ATOM     16  C   UNL     1      -4.373  -0.121  23.911  0.00  0.00    +0.188 C 
ATOM     17  O   UNL     1      -3.785  -0.696  23.851  0.00  0.00    -0.348 OA
ATOM     18  C   UNL     1      -3.567  -0.920  24.613  0.00  0.00    +0.171 C 
ATOM     19  C   UNL     1      -3.069  -1.413  25.049  0.00  0.00    +0.168 C 
ATOM     20  C   UNL     1      -3.214  -1.280  25.850  0.00  0.00    +0.169 C 
ATOM     21  O   UNL     1      -3.802  -0.705  25.910  0.00  0.00    -0.348 OA
ATOM     22  C   UNL     1      -4.020  -0.482  25.146  0.00  0.00    +0.187 C 
ENDROOT
BRANCH  19  23
ATOM     23  N   UNL     1      -2.521  -1.945  24.737  0.00  0.00    -0.205 N 
ATOM     24  N   UNL     1      -2.679  -2.718  24.493  0.00  0.00    -0.042 NA
ATOM     25  N   UNL     1      -1.975  -3.048  24.220  0.00  0.00    -0.022 NA
ATOM     26  N   UNL     1      -1.381  -2.481  24.295  0.00  0.00    -0.101 NA
ATOM     27  C   UNL     1      -1.719  -1.799  24.615  0.00  0.00    +0.211 A 
BRANCH  27  28
ATOM     28  S   UNL     1      -1.322  -1.095  24.782  0.00  0.00    -0.066 S 
BRANCH  28  29
ATOM     29  C   UNL     1      -0.587  -0.944  24.440  0.00  0.00    +0.129 C 
BRANCH  29  30
ATOM     30  C   UNL     1      -0.314  -0.168  24.375  0.00  0.00    +0.134 A 
ATOM     31  C   UNL     1       0.029   0.171  23.705  0.00  0.00    +0.037 A 
ATOM     32  C   UNL     1       0.218   0.954  23.885  0.00  0.00    +0.043 A 
ATOM     33  C   UNL     1      -0.008   1.099  24.664  0.00  0.00    +0.179 A 
ATOM     34  O   UNL     1      -0.337   0.406  24.967  0.00  0.00    -0.454 OA
ENDBRANCH  29  30
ENDBRANCH  28  29
ENDBRANCH  27  28
ENDBRANCH  19  23
BRANCH  15  14
ATOM     14  O   UNL     1      -5.066   0.544  25.023  0.00  0.00    -0.432 OA
BRANCH  14  12
ATOM     11  N   UNL     1      -4.979   1.830  25.639  0.00  0.00    -0.142 NA
ATOM     12  C   UNL     1      -4.931   1.356  24.966  0.00  0.00    +0.425 C 
ATOM     13  O   UNL     1      -4.748   1.692  24.235  0.00  0.00    -0.224 OA
BRANCH  11  10
ATOM      6  C   UNL     1      -3.967   3.763  25.708  0.00  0.00    +0.077 A 
ATOM      7  C   UNL     1      -4.575   4.266  25.467  0.00  0.00    +0.007 A 
ATOM      8  C   UNL     1      -5.318   3.957  25.284  0.00  0.00    +0.002 A 
ATOM      9  C   UNL     1      -5.452   3.145  25.341  0.00  0.00    +0.017 A 
ATOM     10  C   UNL     1      -4.844   2.642  25.582  0.00  0.00    +0.077 A 
ATOM     35  C   UNL     1      -4.102   2.951  25.765  0.00  0.00    +0.023 A 
BRANCH   6   4
ATOM      4  C   UNL     1      -3.225   4.072  25.890  0.00  0.00    +0.341 C 
ATOM      5  O   UNL     1      -3.048   4.290  26.667  0.00  0.00    -0.245 OA
BRANCH   4   3
ATOM      3  O   UNL     1      -2.658   4.164  25.298  0.00  0.00    -0.445 OA
BRANCH   3   2
ATOM      1  C   UNL     1      -1.335   4.528  24.898  0.00  0.00    +0.051 C 
ATOM      2  C   UNL     1      -1.921   4.488  25.478  0.00  0.00    +0.209 C 
ENDBRANCH   3   2
ENDBRANCH   4   3
ENDBRANCH   6   4
ENDBRANCH  11  10
ENDBRANCH  14  12
ENDBRANCH  15  14
TORSDOF 10
ENDMDL
MODEL 6
REMARK VINA RESULT:      -9.3      1.344      5.085
REMARK  Name = 
REMARK  10 active torsions:
REMARK  status: ('A' for Active; 'I' for Inactive)
REMARK    1  A    between atoms: C_2  and  O_3
REMARK    2  A    between atoms: O_3  and  C_4
REMARK    3  A    between atoms: C_4  and  C_6
REMARK    4  A    between atoms: C_10  and  N_11
REMARK    5  A    between atoms: C_12  and  O_14
REMARK    6  A    between atoms: O_14  and  C_15
REMARK    7  A    between atoms: C_19  and  N_23
REMARK    8  A    between atoms: C_27  and  S_28
REMARK    9  A    between atoms: S_28  and  C_29
REMARK   10  A    between atoms: C_29  and  C_30
REMARK                            x       y       z     vdW  Elec       q    Type
REMARK                         _______ _______ _______ _____ _____    ______ ____
ROOT
ATOM     15  C   UNL     1      -0.650   1.474  25.183  0.00  0.00    +0.229 C 
ATOM     16  C   UNL     1      -0.655   1.192  25.958  0.00  0.00    +0.188 C 
ATOM     17  O   UNL     1      -0.635   0.368  25.929  0.00  0.00    -0.348 OA
ATOM     18  C   UNL     1      -0.617   0.140  25.137  0.00  0.00    +0.171 C 
ATOM     19  C   UNL     1      -0.593  -0.509  24.629  0.00  0.00    +0.168 C 
ATOM     20  C   UNL     1      -0.589  -0.227  23.854  0.00  0.00    +0.169 C 
ATOM     21  O   UNL     1      -0.609   0.597  23.882  0.00  0.00    -0.348 OA
ATOM     22  C   UNL     1      -0.627   0.824  24.676  0.00  0.00    +0.187 C 
ENDROOT
BRANCH  19  23
ATOM     23  N   UNL     1      -0.577  -1.302  24.856  0.00  0.00    -0.205 N 
ATOM     24  N   UNL     1       0.073  -1.705  25.166  0.00  0.00    -0.042 NA
ATOM     25  N   UNL     1      -0.157  -2.483  25.315  0.00  0.00    -0.022 NA
ATOM     26  N   UNL     1      -0.948  -2.561  25.098  0.00  0.00    -0.101 NA
ATOM     27  C   UNL     1      -1.208  -1.831  24.815  0.00  0.00    +0.211 A 
BRANCH  27  28
ATOM     28  S   UNL     1      -1.967  -1.661  24.538  0.00  0.00    -0.066 S 
BRANCH  28  29
ATOM     29  C   UNL     1      -2.584  -2.192  24.672  0.00  0.00    +0.129 C 
BRANCH  29  30
ATOM     30  C   UNL     1      -3.339  -2.029  24.381  0.00  0.00    +0.134 A 
ATOM     31  C   UNL     1      -3.814  -2.547  23.948  0.00  0.00    +0.037 A 
ATOM     32  C   UNL     1      -4.519  -2.157  23.772  0.00  0.00    +0.043 A 
ATOM     33  C   UNL     1      -4.480  -1.400  24.094  0.00  0.00    +0.179 A 
ATOM     34  O   UNL     1      -3.750  -1.320  24.471  0.00  0.00    -0.454 OA
ENDBRANCH  29  30
ENDBRANCH  28  29
ENDBRANCH  27  28
ENDBRANCH  19  23
BRANCH  15  14
ATOM     14  O   UNL     1      -0.667   2.267  24.955  0.00  0.00    -0.432 OA
BRANCH  14  12
ATOM     11  N   UNL     1      -1.837   3.071  24.795  0.00  0.00    -0.142 NA
ATOM     12  C   UNL     1      -1.233   2.776  25.272  0.00  0.00    +0.425 C 
ATOM     13  O   UNL     1      -1.194   2.990  26.069  0.00  0.00    -0.224 OA
BRANCH  11  10
ATOM      6  C   UNL     1      -3.761   3.862  25.455  0.00  0.00    +0.077 A 
ATOM      7  C   UNL     1      -3.535   4.600  25.747  0.00  0.00    +0.007 A 
ATOM      8  C   UNL     1      -2.742   4.828  25.721  0.00  0.00    +0.002 A 
ATOM      9  C   UNL     1      -2.176   4.318  25.404  0.00  0.00    +0.017 A 
ATOM     10  C   UNL     1      -2.403   3.580  25.112  0.00  0.00    +0.077 A 
ATOM     35  C   UNL     1      -3.195   3.353  25.138  0.00  0.00    +0.023 A 
BRANCH   6   4
ATOM      4  C   UNL     1      -4.553   3.634  25.481  0.00  0.00    +0.341 C 
ATOM      5  O   UNL     1      -5.149   4.203  25.427  0.00  0.00    -0.245 OA
BRANCH   4   3
ATOM      3  O   UNL     1      -4.751   2.837  25.560  0.00  0.00    -0.445 OA
BRANCH   3   2
ATOM      1  C   UNL     1      -5.746   1.813  25.615  0.00  0.00    +0.051 C 
ATOM      2  C   UNL     1      -5.543   2.612  25.618  0.00  0.00    +0.209 C 
ENDBRANCH   3   2
ENDBRANCH   4   3
ENDBRANCH   6   4
ENDBRANCH  11  10
ENDBRANCH  14  12
ENDBRANCH  15  14
TORSDOF 10
ENDMDL
MODEL 7
REMARK VINA RESULT:      -8.7      2.088      5.793
REMARK  Name = 
REMARK  10 active torsions:
REMARK  status: ('A' for Active; 'I' for Inactive)
REMARK    1  A    between atoms: C_2  and  O_3
REMARK    2  A    between atoms: O_3  and  C_4
REMARK    3  A    between atoms: C_4  and  C_6
REMARK    4  A    between atoms: C_10  and  N_11
REMARK    5  A    between atoms: C_12  and  O_14
REMARK    6  A    between atoms: O_14  and  C_15
REMARK    7  A    between atoms: C_19  and  N_23
REMARK    8  A    between atoms: C_27  and  S_28
REMARK    9  A    between atoms: S_28  and  C_29
REMARK   10  A    between atoms: C_29  and  C_30
REMARK                            x       y       z     vdW  Elec       q    Type
REMARK                         _______ _______ _______ _____ _____    ______ ____
ROOT
ATOM     15  C   UNL     1      -4.094   1.379  24.356  0.00  0.00    +0.229 C 
ATOM     16  C   UNL     1      -3.946   1.198  23.565  0.00  0.00    +0.188 C 
ATOM     17  O   UNL     1      -3.943   0.377  23.488  0.00  0.00    -0.348 OA
ATOM     18  C   UNL     1      -4.088   0.050  24.230  0.00  0.00    +0.171 C 
ATOM     19  C   UNL     1      -4.176  -0.659  24.642  0.00  0.00    +0.168 C 
ATOM     20  C   UNL     1      -4.324  -0.479  25.433  0.00  0.00    +0.169 C 
ATOM     21  O   UNL     1      -4.327   0.342  25.511  0.00  0.00    -0.348 OA
ATOM     22  C   UNL     1      -4.181   0.669  24.767  0.00  0.00    +0.187 C 
ENDROOT
BRANCH  19  23
ATOM     23  N   UNL     1      -4.125  -1.417  24.319  0.00  0.00    -0.205 N 
ATOM     24  N   UNL     1      -4.713  -1.799  23.884  0.00  0.00    -0.042 NA
ATOM     25  N   UNL     1      -4.429  -2.543  23.670  0.00  0.00    -0.022 NA
ATOM     26  N   UNL     1      -3.666  -2.621  23.973  0.00  0.00    -0.101 NA
ATOM     27  C   UNL     1      -3.478  -1.925  24.374  0.00  0.00    +0.211 A 
BRANCH  27  28
ATOM     28  S   UNL     1      -2.767  -1.765  24.762  0.00  0.00    -0.066 S 
BRANCH  28  29
ATOM     29  C   UNL     1      -2.096  -2.216  24.595  0.00  0.00    +0.129 C 
BRANCH  29  30
ATOM     30  C   UNL     1      -1.346  -1.911  24.753  0.00  0.00    +0.134 A 
ATOM     31  C   UNL     1      -0.929  -1.993  25.461  0.00  0.00    +0.037 A 
ATOM     32  C   UNL     1      -0.206  -1.603  25.375  0.00  0.00    +0.043 A 
ATOM     33  C   UNL     1      -0.176  -1.282  24.617  0.00  0.00    +0.179 A 
ATOM     34  O   UNL     1      -0.881  -1.472  24.232  0.00  0.00    -0.454 OA
ENDBRANCH  29  30
ENDBRANCH  28  29
ENDBRANCH  27  28
ENDBRANCH  19  23
BRANCH  15  14
ATOM     14  O   UNL     1      -4.144   2.136  24.680  0.00  0.00    -0.432 OA
BRANCH  14  12
ATOM     11  N   UNL     1      -3.123   2.865  25.362  0.00  0.00    -0.142 NA
ATOM     12  C   UNL     1      -3.490   2.638  24.660  0.00  0.00    +0.425 C 
ATOM     13  O   UNL     1      -3.203   2.913  23.936  0.00  0.00    -0.224 OA
BRANCH  11  10
ATOM      6  C   UNL     1      -1.052   3.554  25.304  0.00  0.00    +0.077 A 
ATOM      7  C   UNL     1      -1.160   4.372  25.304  0.00  0.00    +0.007 A 
ATOM      8  C   UNL     1      -1.922   4.688  25.323  0.00  0.00    +0.002 A 
ATOM      9  C   UNL     1      -2.576   4.185  25.343  0.00  0.00    +0.017 A 
ATOM     10  C   UNL     1      -2.468   3.367  25.343  0.00  0.00    +0.077 A 
ATOM     35  C   UNL     1      -1.707   3.052  25.324  0.00  0.00    +0.023 A 
BRANCH   6   4
ATOM      4  C   UNL     1      -0.290   3.239  25.285  0.00  0.00    +0.341 C 
ATOM      5  O   UNL     1       0.190   3.277  25.955  0.00  0.00    -0.245 OA
BRANCH   4   3
ATOM      3  O   UNL     1      -0.007   2.885  24.595  0.00  0.00    -0.445 OA
BRANCH   3   2
ATOM      1  C   UNL     1       0.798   1.893  23.956  0.00  0.00    +0.051 C 
ATOM      2  C   UNL     1       0.551   2.279  24.642  0.00  0.00    +0.209 C 
ENDBRANCH   3   2
ENDBRANCH   4   3
ENDBRANCH   6   4
ENDBRANCH  11  10
ENDBRANCH  14  12
ENDBRANCH  15  14
TORSDOF 10
ENDMDL
