MODEL 1
REMARK VINA RESULT:      -7.5      0.000      0.000
REMARK  Name = 
REMARK  6 active torsions:
REMARK  status: ('A' for Active; 'I' for Inactive)
REMARK    1  A    between atoms: N_6  and  C_7
REMARK    2  A    between atoms: C_7  and  C_8
REMARK    3  A    between atoms: C_11  and  S_14
REMARK    4  A    between atoms: C_23  and  C_24
REMARK    5  A    between atoms: C_24  and  C_25
REMARK    6  A    between atoms: C_25  and  C_26
REMARK                            x       y       z     vdW  Elec       q    Type
REMARK                         _______ _______ _______ _____ _____    ______ ____
ROOT
ATOM      1  C   UNL     1       1.111   1.970  23.833  0.00  0.00    +0.090 C 
ATOM      2  N   UNL     1       0.784   1.220  23.725  0.00  0.00    -0.271 NA
ATOM      3  C   UNL     1       0.008   1.127  23.990  0.00  0.00    +0.083 C 
ATOM      4  C   UNL     1      -0.428   1.732  24.343  0.00  0.00    +0.035 C 
ATOM      5  C   UNL     1      -1.173   1.433  24.532  0.00  0.00    +0.074 C 
ATOM      6  N   UNL     1      -1.197   0.642  24.297  0.00  0.00    -0.262 NA
ATOM     18  C   UNL     1      -0.467   0.453  23.962  0.00  0.00    +0.151 C 
ATOM     19  C   UNL     1      -0.285  -0.293  23.661  0.00  0.00    +0.257 C 
ATOM     20  O   UNL     1      -0.885  -0.857  23.714  0.00  0.00    -0.272 OA
ATOM     21  N   UNL     1       0.418  -0.551  23.315  0.00  0.00    -0.203 NA
ATOM     22  C   UNL     1       1.113  -0.124  23.184  0.00  0.00    +0.131 C 
ATOM     23  C   UNL     1       1.276   0.663  23.366  0.00  0.00    +0.080 C 
ENDROOT
BRANCH   6   7
ATOM      7  C   UNL     1      -1.839   0.131  24.382  0.00  0.00    +0.100 C 
BRANCH   7   8
ATOM      8  C   UNL     1      -2.596   0.436  24.505  0.00  0.00    -0.006 A 
ATOM      9  C   UNL     1      -3.021   0.754  23.873  0.00  0.00    -0.002 A 
ATOM     10  C   UNL     1      -3.776   1.058  23.997  0.00  0.00    +0.018 A 
ATOM     11  C   UNL     1      -4.109   1.046  24.752  0.00  0.00    +0.106 A 
ATOM     12  C   UNL     1      -3.683   0.727  25.383  0.00  0.00    +0.018 A 
ATOM     13  C   UNL     1      -2.928   0.422  25.260  0.00  0.00    -0.002 A 
BRANCH  11  14
ATOM     14  S   UNL     1      -4.865   1.350  24.876  0.00  0.00    +0.010 S 
ATOM     15  C   UNL     1      -5.622   1.654  25.000  0.00  0.00    +0.182 C 
ATOM     16  O   UNL     1      -5.158   0.584  24.968  0.00  0.00    -0.169 OA
ATOM     17  O   UNL     1      -4.573   2.116  24.784  0.00  0.00    -0.169 OA
ENDBRANCH  11  14
ENDBRANCH   7   8
ENDBRANCH   6   7
BRANCH  23  24
ATOM     24  C   UNL     1       2.030   0.929  23.163  0.00  0.00    +0.027 C 
BRANCH  24  25
ATOM     25  C   UNL     1       2.651   0.390  23.091  0.00  0.00    +0.087 C 
BRANCH  25  26
ATOM     26  C   UNL     1       3.411   0.659  22.913  0.00  0.00    +0.226 C 
ATOM     27  O   UNL     1       3.512   1.341  22.459  0.00  0.00    -0.275 OA
ATOM     28  N   UNL     1       4.069   0.245  23.189  0.00  0.00    -0.279 N 
ATOM     29  C   UNL     1       4.829   0.514  23.011  0.00  0.00    +0.096 C 
ATOM     30  C   UNL     1       5.487   0.100  23.288  0.00  0.00    +0.054 C 
ATOM     31  C   UNL     1       5.386  -0.581  23.742  0.00  0.00    +0.155 C 
ATOM     32  O   UNL     1       6.045  -0.994  24.018  0.00  0.00    -0.223 OA
ATOM     33  C   UNL     1       4.626  -0.849  23.919  0.00  0.00    +0.054 C 
ATOM     34  C   UNL     1       3.968  -0.436  23.643  0.00  0.00    +0.096 C 
ENDBRANCH  25  26
ENDBRANCH  24  25
ENDBRANCH  23  24
TORSDOF 6
ENDMDL
MODEL 2
REMARK VINA RESULT:      -7.5     14.928     16.472
REMARK  Name = 
REMARK  6 active torsions:
REMARK  status: ('A' for Active; 'I' for Inactive)
REMARK    1  A    between atoms: N_6  and  C_7
REMARK    2  A    between atoms: C_7  and  C_8
REMARK    3  A    between atoms: C_11  and  S_14
REMARK    4  A    between atoms: C_23  and  C_24
REMARK    5  A    between atoms: C_24  and  C_25
REMARK    6  A    between atoms: C_25  and  C_26
REMARK                            x       y       z     vdW  Elec       q    Type
REMARK                         _______ _______ _______ _____ _____    ______ ____
ROOT
ATOM      1  C   UNL     1      -3.912 -10.714  15.141  0.00  0.00    +0.090 C 
ATOM      2  N   UNL     1      -4.662 -10.489  14.879  0.00  0.00    -0.271 NA
ATOM      3  C   UNL     1      -4.746 -10.412  14.062  0.00  0.00    +0.083 C 
ATOM      4  C   UNL     1      -4.132 -10.546  13.527  0.00  0.00    +0.035 C 
ATOM      5  C   UNL     1      -4.424 -10.415  12.766  0.00  0.00    +0.074 C 
ATOM      6  N   UNL     1      -5.218 -10.199  12.831  0.00  0.00    -0.262 NA
ATOM     18  C   UNL     1      -5.417 -10.198  13.632  0.00  0.00    +0.151 C 
ATOM     19  C   UNL     1      -6.169 -10.009  13.914  0.00  0.00    +0.257 C 
ATOM     20  O   UNL     1      -6.729  -9.816  13.338  0.00  0.00    -0.272 OA
ATOM     21  N   UNL     1      -6.436  -9.987  14.694  0.00  0.00    -0.203 NA
ATOM     22  C   UNL     1      -6.016 -10.149  15.386  0.00  0.00    +0.131 C 
ATOM     23  C   UNL     1      -5.227 -10.372  15.468  0.00  0.00    +0.080 C 
ENDROOT
BRANCH   6   7
ATOM      7  C   UNL     1      -5.725 -10.018  12.205  0.00  0.00    +0.100 C 
BRANCH   7   8
ATOM      8  C   UNL     1      -5.413  -9.816  11.469  0.00  0.00    -0.006 A 
ATOM      9  C   UNL     1      -5.160  -9.044  11.325  0.00  0.00    -0.002 A 
ATOM     10  C   UNL     1      -4.849  -8.844  10.588  0.00  0.00    +0.018 A 
ATOM     11  C   UNL     1      -4.791  -9.413   9.995  0.00  0.00    +0.106 A 
ATOM     12  C   UNL     1      -5.044 -10.186  10.139  0.00  0.00    +0.018 A 
ATOM     13  C   UNL     1      -5.355 -10.387  10.875  0.00  0.00    -0.002 A 
BRANCH  11  14
ATOM     14  S   UNL     1      -4.480  -9.213   9.258  0.00  0.00    +0.010 S 
ATOM     15  C   UNL     1      -4.167  -9.013   8.521  0.00  0.00    +0.182 C 
ATOM     16  O   UNL     1      -3.739  -9.487   9.497  0.00  0.00    -0.169 OA
ATOM     17  O   UNL     1      -5.220  -8.939   9.019  0.00  0.00    -0.169 OA
ENDBRANCH  11  14
ENDBRANCH   7   8
ENDBRANCH   6   7
BRANCH  23  24
ATOM     24  C   UNL     1      -4.969 -10.495  16.242  0.00  0.00    +0.027 C 
BRANCH  24  25
ATOM     25  C   UNL     1      -5.511 -10.482  16.864  0.00  0.00    +0.087 C 
BRANCH  25  26
ATOM     26  C   UNL     1      -5.250 -10.585  17.640  0.00  0.00    +0.226 C 
ATOM     27  O   UNL     1      -4.443 -10.644  17.800  0.00  0.00    -0.275 OA
ATOM     28  N   UNL     1      -5.798 -10.631  18.256  0.00  0.00    -0.279 N 
ATOM     29  C   UNL     1      -5.537 -10.735  19.032  0.00  0.00    +0.096 C 
ATOM     30  C   UNL     1      -6.085 -10.780  19.648  0.00  0.00    +0.054 C 
ATOM     31  C   UNL     1      -6.892 -10.721  19.488  0.00  0.00    +0.155 C 
ATOM     32  O   UNL     1      -7.439 -10.767  20.104  0.00  0.00    -0.223 OA
ATOM     33  C   UNL     1      -7.152 -10.618  18.712  0.00  0.00    +0.054 C 
ATOM     34  C   UNL     1      -6.604 -10.572  18.096  0.00  0.00    +0.096 C 
ENDBRANCH  25  26
ENDBRANCH  24  25
ENDBRANCH  23  24
TORSDOF 6
ENDMDL
MODEL 3
REMARK VINA RESULT:      -7.3      1.632      2.268
REMARK  Name = 
REMARK  6 active torsions:
REMARK  status: ('A' for Active; 'I' for Inactive)
REMARK    1  A    between atoms: N_6  and  C_7
REMARK    2  A    between atoms: C_7  and  C_8
REMARK    3  A    between atoms: C_11  and  S_14
REMARK    4  A    between atoms: C_23  and  C_24
REMARK    5  A    between atoms: C_24  and  C_25
REMARK    6  A    between atoms: C_25  and  C_26
REMARK                            x       y       z     vdW  Elec       q    Type
REMARK                         _______ _______ _______ _____ _____    ______ ____
ROOT
ATOM      1  C   UNL     1      -0.653   0.004  23.919  0.00  0.00    +0.090 C 
ATOM      2  N   UNL     1      -0.538   0.819  23.983  0.00  0.00    -0.271 NA
ATOM      3  C   UNL     1      -1.191   1.254  24.237  0.00  0.00    +0.083 C 
ATOM      4  C   UNL     1      -1.920   0.914  24.421  0.00  0.00    +0.035 C 
ATOM      5  C   UNL     1      -2.432   1.517  24.652  0.00  0.00    +0.074 C 
ATOM      6  N   UNL     1      -2.020   2.231  24.611  0.00  0.00    -0.262 NA
ATOM     18  C   UNL     1      -1.253   2.068  24.354  0.00  0.00    +0.151 C 
ATOM     19  C   UNL     1      -0.677   2.648  24.247  0.00  0.00    +0.257 C 
ATOM     20  O   UNL     1      -0.912   3.422  24.413  0.00  0.00    -0.272 OA
ATOM     21  N   UNL     1       0.104   2.558  23.995  0.00  0.00    -0.203 NA
ATOM     22  C   UNL     1       0.500   1.864  23.788  0.00  0.00    +0.131 C 
ATOM     23  C   UNL     1       0.215   1.091  23.783  0.00  0.00    +0.080 C 
ENDROOT
BRANCH   6   7
ATOM      7  C   UNL     1      -2.322   2.977  24.794  0.00  0.00    +0.100 C 
BRANCH   7   8
ATOM      8  C   UNL     1      -3.118   3.062  24.993  0.00  0.00    -0.006 A 
ATOM      9  C   UNL     1      -3.339   3.155  25.783  0.00  0.00    -0.002 A 
ATOM     10  C   UNL     1      -4.135   3.240  25.980  0.00  0.00    +0.018 A 
ATOM     11  C   UNL     1      -4.711   3.232  25.390  0.00  0.00    +0.106 A 
ATOM     12  C   UNL     1      -4.489   3.138  24.600  0.00  0.00    +0.018 A 
ATOM     13  C   UNL     1      -3.694   3.054  24.402  0.00  0.00    -0.002 A 
BRANCH  11  14
ATOM     14  S   UNL     1      -5.506   3.316  25.588  0.00  0.00    +0.010 S 
ATOM     15  C   UNL     1      -6.303   3.400  25.785  0.00  0.00    +0.182 C 
ATOM     16  O   UNL     1      -5.557   2.505  25.732  0.00  0.00    -0.169 OA
ATOM     17  O   UNL     1      -5.457   4.127  25.443  0.00  0.00    -0.169 OA
ENDBRANCH  11  14
ENDBRANCH   7   8
ENDBRANCH   6   7
BRANCH  23  24
ATOM     24  C   UNL     1       0.754   0.512  23.546  0.00  0.00    +0.027 C 
BRANCH  24  25
ATOM     25  C   UNL     1       1.485   0.734  23.234  0.00  0.00    +0.087 C 
BRANCH  25  26
ATOM     26  C   UNL     1       1.952   0.177  22.844  0.00  0.00    +0.226 C 
ATOM     27  O   UNL     1       1.599  -0.465  22.464  0.00  0.00    -0.275 OA
ATOM     28  N   UNL     1       2.773   0.262  22.833  0.00  0.00    -0.279 N 
ATOM     29  C   UNL     1       3.240  -0.295  22.442  0.00  0.00    +0.096 C 
ATOM     30  C   UNL     1       4.061  -0.210  22.432  0.00  0.00    +0.054 C 
ATOM     31  C   UNL     1       4.414   0.432  22.811  0.00  0.00    +0.155 C 
ATOM     32  O   UNL     1       5.235   0.516  22.800  0.00  0.00    -0.223 OA
ATOM     33  C   UNL     1       3.947   0.988  23.202  0.00  0.00    +0.054 C 
ATOM     34  C   UNL     1       3.126   0.903  23.212  0.00  0.00    +0.096 C 
ENDBRANCH  25  26
ENDBRANCH  24  25
ENDBRANCH  23  24
TORSDOF 6
ENDMDL
MODEL 4
REMARK VINA RESULT:      -6.7      2.006      7.118
REMARK  Name = 
REMARK  6 active torsions:
REMARK  status: ('A' for Active; 'I' for Inactive)
REMARK    1  A    between atoms: N_6  and  C_7
REMARK    2  A    between atoms: C_7  and  C_8
REMARK    3  A    between atoms: C_11  and  S_14
REMARK    4  A    between atoms: C_23  and  C_24
REMARK    5  A    between atoms: C_24  and  C_25
REMARK    6  A    between atoms: C_25  and  C_26
REMARK                            x       y       z     vdW  Elec       q    Type
REMARK                         _______ _______ _______ _____ _____    ______ ____
ROOT
ATOM      1  C   UNL     1      -1.720  -0.203  25.331  0.00  0.00    +0.090 C 
ATOM      2  N   UNL     1      -1.617   0.232  24.636  0.00  0.00    -0.271 NA
ATOM      3  C   UNL     1      -0.886   0.145  24.265  0.00  0.00    +0.083 C 
ATOM      4  C   UNL     1      -0.284  -0.339  24.554  0.00  0.00    +0.035 C 
ATOM      5  C   UNL     1       0.358  -0.284  24.040  0.00  0.00    +0.074 C 
ATOM      6  N   UNL     1       0.153   0.236  23.432  0.00  0.00    -0.262 NA
ATOM     18  C   UNL     1      -0.616   0.501  23.572  0.00  0.00    +0.151 C 
ATOM     19  C   UNL     1      -1.011   1.031  23.078  0.00  0.00    +0.257 C 
ATOM     20  O   UNL     1      -0.587   1.290  22.419  0.00  0.00    -0.272 OA
ATOM     21  N   UNL     1      -1.773   1.336  23.156  0.00  0.00    -0.203 NA
ATOM     22  C   UNL     1      -2.329   1.186  23.747  0.00  0.00    +0.131 C 
ATOM     23  C   UNL     1      -2.260   0.695  24.406  0.00  0.00    +0.080 C 
ENDROOT
BRANCH   6   7
ATOM      7  C   UNL     1       0.633   0.453  22.796  0.00  0.00    +0.100 C 
BRANCH   7   8
ATOM      8  C   UNL     1       1.454   0.412  22.867  0.00  0.00    -0.006 A 
ATOM      9  C   UNL     1       1.864   1.005  23.267  0.00  0.00    -0.002 A 
ATOM     10  C   UNL     1       2.684   0.963  23.336  0.00  0.00    +0.018 A 
ATOM     11  C   UNL     1       3.096   0.329  23.007  0.00  0.00    +0.106 A 
ATOM     12  C   UNL     1       2.684  -0.265  22.607  0.00  0.00    +0.018 A 
ATOM     13  C   UNL     1       1.865  -0.224  22.537  0.00  0.00    -0.002 A 
BRANCH  11  14
ATOM     14  S   UNL     1       3.916   0.287  23.077  0.00  0.00    +0.010 S 
ATOM     15  C   UNL     1       4.737   0.244  23.147  0.00  0.00    +0.182 C 
ATOM     16  O   UNL     1       3.866  -0.531  23.172  0.00  0.00    -0.169 OA
ATOM     17  O   UNL     1       3.967   1.105  22.982  0.00  0.00    -0.169 OA
ENDBRANCH  11  14
ENDBRANCH   7   8
ENDBRANCH   6   7
BRANCH  23  24
ATOM     24  C   UNL     1      -2.921   0.663  24.899  0.00  0.00    +0.027 C 
BRANCH  24  25
ATOM     25  C   UNL     1      -3.447   1.298  24.924  0.00  0.00    +0.087 C 
BRANCH  25  26
ATOM     26  C   UNL     1      -4.221   1.181  25.186  0.00  0.00    +0.226 C 
ATOM     27  O   UNL     1      -4.510   0.415  25.294  0.00  0.00    -0.275 OA
ATOM     28  N   UNL     1      -4.706   1.830  25.340  0.00  0.00    -0.279 N 
ATOM     29  C   UNL     1      -5.480   1.714  25.602  0.00  0.00    +0.096 C 
ATOM     30  C   UNL     1      -5.965   2.363  25.755  0.00  0.00    +0.054 C 
ATOM     31  C   UNL     1      -5.677   3.129  25.648  0.00  0.00    +0.155 C 
ATOM     32  O   UNL     1      -6.163   3.778  25.801  0.00  0.00    -0.223 OA
ATOM     33  C   UNL     1      -4.903   3.245  25.386  0.00  0.00    +0.054 C 
ATOM     34  C   UNL     1      -4.418   2.595  25.232  0.00  0.00    +0.096 C 
ENDBRANCH  25  26
ENDBRANCH  24  25
ENDBRANCH  23  24
TORSDOF 6
ENDMDL
MODEL 5
REMARK VINA RESULT:      -5.8     15.473     17.306
REMARK  Name = 
REMARK  6 active torsions:
REMARK  status: ('A' for Active; 'I' for Inactive)
REMARK    1  A    between atoms: N_6  and  C_7
REMARK    2  A    between atoms: C_7  and  C_8
REMARK    3  A    between atoms: C_11  and  S_14
REMARK    4  A    between atoms: C_23  and  C_24
REMARK    5  A    between atoms: C_24  and  C_25
REMARK    6  A    between atoms: C_25  and  C_26
REMARK                            x       y       z     vdW  Elec       q    Type
REMARK                         _______ _______ _______ _____ _____    ______ ____
ROOT
ATOM      1  C   UNL     1      -8.653  -9.888  13.904  0.00  0.00    +0.090 C 
ATOM      2  N   UNL     1      -7.852  -9.952  14.095  0.00  0.00    -0.271 NA
ATOM      3  C   UNL     1      -7.328  -9.897  13.460  0.00  0.00    +0.083 C 
ATOM      4  C   UNL     1      -7.570  -9.786  12.679  0.00  0.00    +0.035 C 
ATOM      5  C   UNL     1      -6.896  -9.759  12.204  0.00  0.00    +0.074 C 
ATOM      6  N   UNL     1      -6.237  -9.853  12.692  0.00  0.00    -0.262 NA
ATOM     18  C   UNL     1      -6.504  -9.938  13.469  0.00  0.00    +0.151 C 
ATOM     19  C   UNL     1      -6.001 -10.044  14.114  0.00  0.00    +0.257 C 
ATOM     20  O   UNL     1      -5.194 -10.062  13.939  0.00  0.00    -0.272 OA
ATOM     21  N   UNL     1      -6.197 -10.136  14.909  0.00  0.00    -0.203 NA
ATOM     22  C   UNL     1      -6.946 -10.143  15.257  0.00  0.00    +0.131 C 
ATOM     23  C   UNL     1      -7.682 -10.061  14.894  0.00  0.00    +0.080 C 
ENDROOT
BRANCH   6   7
ATOM      7  C   UNL     1      -5.448  -9.860  12.447  0.00  0.00    +0.100 C 
BRANCH   7   8
ATOM      8  C   UNL     1      -5.264  -9.768  11.649  0.00  0.00    -0.006 A 
ATOM      9  C   UNL     1      -5.145 -10.431  11.173  0.00  0.00    -0.002 A 
ATOM     10  C   UNL     1      -4.962 -10.338  10.375  0.00  0.00    +0.018 A 
ATOM     11  C   UNL     1      -4.896  -9.582  10.051  0.00  0.00    +0.106 A 
ATOM     12  C   UNL     1      -5.015  -8.919  10.527  0.00  0.00    +0.018 A 
ATOM     13  C   UNL     1      -5.199  -9.011  11.325  0.00  0.00    -0.002 A 
BRANCH  11  14
ATOM     14  S   UNL     1      -4.712  -9.489   9.253  0.00  0.00    +0.010 S 
ATOM     15  C   UNL     1      -4.527  -9.395   8.455  0.00  0.00    +0.182 C 
ATOM     16  O   UNL     1      -3.951  -9.246   9.457  0.00  0.00    -0.169 OA
ATOM     17  O   UNL     1      -5.474  -9.731   9.048  0.00  0.00    -0.169 OA
ENDBRANCH  11  14
ENDBRANCH   7   8
ENDBRANCH   6   7
BRANCH  23  24
ATOM     24  C   UNL     1      -8.335 -10.093  15.398  0.00  0.00    +0.027 C 
BRANCH  24  25
ATOM     25  C   UNL     1      -8.230 -10.272  16.197  0.00  0.00    +0.087 C 
BRANCH  25  26
ATOM     26  C   UNL     1      -8.884 -10.323  16.698  0.00  0.00    +0.226 C 
ATOM     27  O   UNL     1      -9.647 -10.260  16.388  0.00  0.00    -0.275 OA
ATOM     28  N   UNL     1      -8.775 -10.437  17.507  0.00  0.00    -0.279 N 
ATOM     29  C   UNL     1      -9.430 -10.489  18.008  0.00  0.00    +0.096 C 
ATOM     30  C   UNL     1      -9.321 -10.603  18.818  0.00  0.00    +0.054 C 
ATOM     31  C   UNL     1      -8.559 -10.667  19.127  0.00  0.00    +0.155 C 
ATOM     32  O   UNL     1      -8.451 -10.781  19.937  0.00  0.00    -0.223 OA
ATOM     33  C   UNL     1      -7.905 -10.615  18.627  0.00  0.00    +0.054 C 
ATOM     34  C   UNL     1      -8.014 -10.501  17.817  0.00  0.00    +0.096 C 
ENDBRANCH  25  26
ENDBRANCH  24  25
ENDBRANCH  23  24
TORSDOF 6
ENDMDL
MODEL 6
REMARK VINA RESULT:      -5.8     14.574     16.548
REMARK  Name = 
REMARK  6 active torsions:
REMARK  status: ('A' for Active; 'I' for Inactive)
REMARK    1  A    between atoms: N_6  and  C_7
REMARK    2  A    between atoms: C_7  and  C_8
REMARK    3  A    between atoms: C_11  and  S_14
REMARK    4  A    between atoms: C_23  and  C_24
REMARK    5  A    between atoms: C_24  and  C_25
REMARK    6  A    between atoms: C_25  and  C_26
REMARK                            x       y       z     vdW  Elec       q    Type
REMARK                         _______ _______ _______ _____ _____    ______ ____
ROOT
ATOM      1  C   UNL     1      -5.160 -10.134  16.435  0.00  0.00    +0.090 C 
ATOM      2  N   UNL     1      -5.494 -10.244  15.688  0.00  0.00    -0.271 NA
ATOM      3  C   UNL     1      -4.961 -10.386  15.075  0.00  0.00    +0.083 C 
ATOM      4  C   UNL     1      -4.143 -10.421  15.183  0.00  0.00    +0.035 C 
ATOM      5  C   UNL     1      -3.796 -10.573  14.450  0.00  0.00    +0.074 C 
ATOM      6  N   UNL     1      -4.399 -10.632  13.890  0.00  0.00    -0.262 NA
ATOM     18  C   UNL     1      -5.119 -10.517  14.276  0.00  0.00    +0.151 C 
ATOM     19  C   UNL     1      -5.849 -10.536  13.893  0.00  0.00    +0.257 C 
ATOM     20  O   UNL     1      -5.823 -10.681  13.081  0.00  0.00    -0.272 OA
ATOM     21  N   UNL     1      -6.601 -10.430  14.213  0.00  0.00    -0.203 NA
ATOM     22  C   UNL     1      -6.810 -10.279  14.998  0.00  0.00    +0.131 C 
ATOM     23  C   UNL     1      -6.317 -10.196  15.654  0.00  0.00    +0.080 C 
ENDROOT
BRANCH   6   7
ATOM      7  C   UNL     1      -4.299 -10.781  13.084  0.00  0.00    +0.100 C 
BRANCH   7   8
ATOM      8  C   UNL     1      -3.616 -10.524  12.699  0.00  0.00    -0.006 A 
ATOM      9  C   UNL     1      -2.875 -10.765  12.969  0.00  0.00    -0.002 A 
ATOM     10  C   UNL     1      -2.193 -10.508  12.583  0.00  0.00    +0.018 A 
ATOM     11  C   UNL     1      -2.251 -10.010  11.928  0.00  0.00    +0.106 A 
ATOM     12  C   UNL     1      -2.993  -9.770  11.659  0.00  0.00    +0.018 A 
ATOM     13  C   UNL     1      -3.675 -10.026  12.043  0.00  0.00    -0.002 A 
BRANCH  11  14
ATOM     14  S   UNL     1      -1.569  -9.753  11.543  0.00  0.00    +0.010 S 
ATOM     15  C   UNL     1      -0.887  -9.496  11.156  0.00  0.00    +0.182 C 
ATOM     16  O   UNL     1      -2.022  -9.530  10.891  0.00  0.00    -0.169 OA
ATOM     17  O   UNL     1      -1.115  -9.977  12.195  0.00  0.00    -0.169 OA
ENDBRANCH  11  14
ENDBRANCH   7   8
ENDBRANCH   6   7
BRANCH  23  24
ATOM     24  C   UNL     1      -6.698 -10.044  16.370  0.00  0.00    +0.027 C 
BRANCH  24  25
ATOM     25  C   UNL     1      -7.426  -9.656  16.376  0.00  0.00    +0.087 C 
BRANCH  25  26
ATOM     26  C   UNL     1      -7.906  -9.691  17.046  0.00  0.00    +0.226 C 
ATOM     27  O   UNL     1      -7.722 -10.210  17.660  0.00  0.00    -0.275 OA
ATOM     28  N   UNL     1      -8.572  -9.206  17.101  0.00  0.00    -0.279 N 
ATOM     29  C   UNL     1      -9.053  -9.241  17.771  0.00  0.00    +0.096 C 
ATOM     30  C   UNL     1      -9.718  -8.756  17.826  0.00  0.00    +0.054 C 
ATOM     31  C   UNL     1      -9.903  -8.237  17.211  0.00  0.00    +0.155 C 
ATOM     32  O   UNL     1     -10.569  -7.753  17.267  0.00  0.00    -0.223 OA
ATOM     33  C   UNL     1      -9.422  -8.203  16.542  0.00  0.00    +0.054 C 
ATOM     34  C   UNL     1      -8.757  -8.687  16.487  0.00  0.00    +0.096 C 
ENDBRANCH  25  26
ENDBRANCH  24  25
ENDBRANCH  23  24
TORSDOF 6
ENDMDL
MODEL 7
REMARK VINA RESULT:      -5.5     14.153     16.036
REMARK  Name = 
REMARK  6 active torsions:
REMARK  status: ('A' for Active; 'I' for Inactive)
REMARK    1  A    between atoms: N_6  and  C_7
REMARK    2  A    between atoms: C_7  and  C_8
REMARK    3  A    between atoms: C_11  and  S_14
REMARK    4  A    between atoms: C_23  and  C_24
REMARK    5  A    between atoms: C_24  and  C_25
REMARK    6  A    between atoms: C_25  and  C_26
REMARK                            x       y       z     vdW  Elec       q    Type
REMARK                         _______ _______ _______ _____ _____    ______ ____
ROOT
ATOM      1  C   UNL     1      -3.064 -10.545  16.630  0.00  0.00    +0.090 C 
ATOM      2  N   UNL     1      -3.586 -10.594  15.993  0.00  0.00    -0.271 NA
ATOM      3  C   UNL     1      -3.237 -10.611  15.245  0.00  0.00    +0.083 C 
ATOM      4  C   UNL     1      -2.422 -10.582  15.123  0.00  0.00    +0.035 C 
ATOM      5  C   UNL     1      -2.284 -10.611  14.311  0.00  0.00    +0.074 C 
ATOM      6  N   UNL     1      -3.015 -10.657  13.930  0.00  0.00    -0.262 NA
ATOM     18  C   UNL     1      -3.604 -10.657  14.508  0.00  0.00    +0.151 C 
ATOM     19  C   UNL     1      -4.410 -10.698  14.336  0.00  0.00    +0.257 C 
ATOM     20  O   UNL     1      -4.603 -10.740  13.534  0.00  0.00    -0.272 OA
ATOM     21  N   UNL     1      -5.048 -10.703  14.858  0.00  0.00    -0.203 NA
ATOM     22  C   UNL     1      -5.037 -10.667  15.683  0.00  0.00    +0.131 C 
ATOM     23  C   UNL     1      -4.387 -10.619  16.188  0.00  0.00    +0.080 C 
ENDROOT
BRANCH   6   7
ATOM      7  C   UNL     1      -3.136 -10.697  13.114  0.00  0.00    +0.100 C 
BRANCH   7   8
ATOM      8  C   UNL     1      -2.620 -10.307  12.602  0.00  0.00    -0.006 A 
ATOM      9  C   UNL     1      -1.805 -10.402  12.685  0.00  0.00    -0.002 A 
ATOM     10  C   UNL     1      -1.291 -10.012  12.172  0.00  0.00    +0.018 A 
ATOM     11  C   UNL     1      -1.590  -9.526  11.577  0.00  0.00    +0.106 A 
ATOM     12  C   UNL     1      -2.406  -9.430  11.495  0.00  0.00    +0.018 A 
ATOM     13  C   UNL     1      -2.920  -9.820  12.006  0.00  0.00    -0.002 A 
BRANCH  11  14
ATOM     14  S   UNL     1      -1.076  -9.135  11.065  0.00  0.00    +0.010 S 
ATOM     15  C   UNL     1      -0.562  -8.744  10.551  0.00  0.00    +0.182 C 
ATOM     16  O   UNL     1      -1.614  -9.237  10.447  0.00  0.00    -0.169 OA
ATOM     17  O   UNL     1      -0.537  -9.033  11.681  0.00  0.00    -0.169 OA
ENDBRANCH  11  14
ENDBRANCH   7   8
ENDBRANCH   6   7
BRANCH  23  24
ATOM     24  C   UNL     1      -4.561 -10.592  16.994  0.00  0.00    +0.027 C 
BRANCH  24  25
ATOM     25  C   UNL     1      -5.329 -10.744  17.255  0.00  0.00    +0.087 C 
BRANCH  25  26
ATOM     26  C   UNL     1      -5.495 -10.754  18.063  0.00  0.00    +0.226 C 
ATOM     27  O   UNL     1      -4.879 -10.779  18.611  0.00  0.00    -0.275 OA
ATOM     28  N   UNL     1      -6.278 -10.738  18.323  0.00  0.00    -0.279 N 
ATOM     29  C   UNL     1      -6.445 -10.747  19.131  0.00  0.00    +0.096 C 
ATOM     30  C   UNL     1      -7.228 -10.732  19.391  0.00  0.00    +0.054 C 
ATOM     31  C   UNL     1      -7.844 -10.707  18.842  0.00  0.00    +0.155 C 
ATOM     32  O   UNL     1      -8.627 -10.691  19.103  0.00  0.00    -0.223 OA
ATOM     33  C   UNL     1      -7.677 -10.697  18.035  0.00  0.00    +0.054 C 
ATOM     34  C   UNL     1      -6.894 -10.713  17.775  0.00  0.00    +0.096 C 
ENDBRANCH  25  26
ENDBRANCH  24  25
ENDBRANCH  23  24
TORSDOF 6
ENDMDL
MODEL 8
REMARK VINA RESULT:      -5.4     15.564     17.624
REMARK  Name = 
REMARK  6 active torsions:
REMARK  status: ('A' for Active; 'I' for Inactive)
REMARK    1  A    between atoms: N_6  and  C_7
REMARK    2  A    between atoms: C_7  and  C_8
REMARK    3  A    between atoms: C_11  and  S_14
REMARK    4  A    between atoms: C_23  and  C_24
REMARK    5  A    between atoms: C_24  and  C_25
REMARK    6  A    between atoms: C_25  and  C_26
REMARK                            x       y       z     vdW  Elec       q    Type
REMARK                         _______ _______ _______ _____ _____    ______ ____
ROOT
ATOM      1  C   UNL     1      -7.122 -10.208  14.783  0.00  0.00    +0.090 C 
ATOM      2  N   UNL     1      -7.488 -10.069  14.056  0.00  0.00    -0.271 NA
ATOM      3  C   UNL     1      -6.988 -10.058  13.401  0.00  0.00    +0.083 C 
ATOM      4  C   UNL     1      -6.172 -10.176  13.449  0.00  0.00    +0.035 C 
ATOM      5  C   UNL     1      -5.862 -10.125  12.686  0.00  0.00    +0.074 C 
ATOM      6  N   UNL     1      -6.485  -9.976  12.166  0.00  0.00    -0.262 NA
ATOM     18  C   UNL     1      -7.181  -9.935  12.608  0.00  0.00    +0.151 C 
ATOM     19  C   UNL     1      -7.923  -9.793  12.276  0.00  0.00    +0.257 C 
ATOM     20  O   UNL     1      -7.934  -9.691  11.457  0.00  0.00    -0.272 OA
ATOM     21  N   UNL     1      -8.654  -9.738  12.653  0.00  0.00    -0.203 NA
ATOM     22  C   UNL     1      -8.824  -9.813  13.458  0.00  0.00    +0.131 C 
ATOM     23  C   UNL     1      -8.305  -9.961  14.082  0.00  0.00    +0.080 C 
ENDROOT
BRANCH   6   7
ATOM      7  C   UNL     1      -6.424  -9.885  11.348  0.00  0.00    +0.100 C 
BRANCH   7   8
ATOM      8  C   UNL     1      -5.694  -9.705  11.008  0.00  0.00    -0.006 A 
ATOM      9  C   UNL     1      -5.274 -10.287  10.601  0.00  0.00    -0.002 A 
ATOM     10  C   UNL     1      -4.545 -10.106  10.261  0.00  0.00    +0.018 A 
ATOM     11  C   UNL     1      -4.235  -9.345  10.326  0.00  0.00    +0.106 A 
ATOM     12  C   UNL     1      -4.657  -8.763  10.733  0.00  0.00    +0.018 A 
ATOM     13  C   UNL     1      -5.385  -8.943  11.073  0.00  0.00    -0.002 A 
BRANCH  11  14
ATOM     14  S   UNL     1      -3.507  -9.164   9.986  0.00  0.00    +0.010 S 
ATOM     15  C   UNL     1      -2.778  -8.983   9.645  0.00  0.00    +0.182 C 
ATOM     16  O   UNL     1      -3.875  -9.057   9.255  0.00  0.00    -0.169 OA
ATOM     17  O   UNL     1      -3.138  -9.271  10.716  0.00  0.00    -0.169 OA
ENDBRANCH  11  14
ENDBRANCH   7   8
ENDBRANCH   6   7
BRANCH  23  24
ATOM     24  C   UNL     1      -8.650 -10.005  14.830  0.00  0.00    +0.027 C 
BRANCH  24  25
ATOM     25  C   UNL     1      -9.142  -9.397  15.094  0.00  0.00    +0.087 C 
BRANCH  25  26
ATOM     26  C   UNL     1      -9.537  -9.470  15.815  0.00  0.00    +0.226 C 
ATOM     27  O   UNL     1      -9.636 -10.214  16.158  0.00  0.00    -0.275 OA
ATOM     28  N   UNL     1      -9.832  -8.798  16.192  0.00  0.00    -0.279 N 
ATOM     29  C   UNL     1     -10.227  -8.871  16.914  0.00  0.00    +0.096 C 
ATOM     30  C   UNL     1     -10.523  -8.199  17.291  0.00  0.00    +0.054 C 
ATOM     31  C   UNL     1     -10.424  -7.455  16.947  0.00  0.00    +0.155 C 
ATOM     32  O   UNL     1     -10.719  -6.785  17.325  0.00  0.00    -0.223 OA
ATOM     33  C   UNL     1     -10.029  -7.383  16.227  0.00  0.00    +0.054 C 
ATOM     34  C   UNL     1      -9.734  -8.055  15.849  0.00  0.00    +0.096 C 
ENDBRANCH  25  26
ENDBRANCH  24  25
ENDBRANCH  23  24
TORSDOF 6
ENDMDL
