MODEL 1
REMARK VINA RESULT:     -13.8      0.000      0.000
REMARK  Name = 
REMARK  3 active torsions:
REMARK  status: ('A' for Active; 'I' for Inactive)
REMARK    1  A    between atoms: C_7  and  N_10
REMARK    2  A    between atoms: C_17  and  N_18
REMARK    3  A    between atoms: C_19  and  C_21
REMARK                            x       y       z     vdW  Elec       q    Type
REMARK                         _______ _______ _______ _____ _____    ______ ____
ROOT
ATOM     10  N   UNL     1      -4.678   3.101  25.268  0.00  0.00    -0.273 NA
ATOM     11  C   UNL     1      -5.503   2.997  25.354  0.00  0.00    +0.074 C 
ATOM     12  C   UNL     1      -5.563   2.022  25.206  0.00  0.00    +0.039 C 
ATOM     13  C   UNL     1      -5.780   1.243  25.109  0.00  0.00    +0.011 C 
ATOM     14  C   UNL     1      -5.190   1.623  25.096  0.00  0.00    +0.056 C 
ATOM     15  C   UNL     1      -5.148   2.566  25.241  0.00  0.00    +0.078 C 
ATOM     16  C   UNL     1      -4.283   1.542  24.971  0.00  0.00    +0.056 A 
ATOM     17  C   UNL     1      -3.707   0.974  24.809  0.00  0.00    +0.086 A 
ATOM     27  C   UNL     1      -2.915   1.197  24.746  0.00  0.00    +0.023 A 
ATOM     28  C   UNL     1      -2.699   1.987  24.845  0.00  0.00    +0.062 A 
ATOM     29  C   UNL     1      -3.276   2.555  25.007  0.00  0.00    +0.261 A 
ATOM     30  O   UNL     1      -2.637   3.077  25.010  0.00  0.00    -0.267 OA
ATOM     31  N   UNL     1      -4.067   2.332  25.070  0.00  0.00    -0.298 N 
ATOM     32  C   UNL     1      -4.615   1.947  25.077  0.00  0.00    +0.110 C 
ENDROOT
BRANCH  10   7
ATOM      1  C   UNL     1      -1.489   4.956  24.439  0.00  0.00    +0.095 C 
ATOM      2  C   UNL     1      -1.766   4.650  25.153  0.00  0.00    +0.226 C 
ATOM      3  O   UNL     1      -1.314   4.731  25.839  0.00  0.00    -0.275 OA
ATOM      4  N   UNL     1      -2.494   4.262  25.182  0.00  0.00    -0.279 N 
ATOM      5  C   UNL     1      -2.771   3.956  25.896  0.00  0.00    +0.095 C 
ATOM      6  C   UNL     1      -3.498   3.569  25.925  0.00  0.00    +0.038 C 
ATOM      7  C   UNL     1      -3.950   3.488  25.239  0.00  0.00    +0.061 C 
ATOM      8  C   UNL     1      -3.674   3.794  24.525  0.00  0.00    +0.038 C 
ATOM      9  C   UNL     1      -2.945   4.181  24.496  0.00  0.00    +0.095 C 
ENDBRANCH  10   7
BRANCH  17  18
ATOM     18  N   UNL     1      -3.923   0.184  24.710  0.00  0.00    -0.173 NA
ATOM     19  C   UNL     1      -3.342  -0.392  24.607  0.00  0.00    +0.288 C 
ATOM     20  O   UNL     1      -2.545  -0.178  24.604  0.00  0.00    -0.266 OA
BRANCH  19  21
ATOM     21  C   UNL     1      -3.557  -1.183  24.508  0.00  0.00    +0.156 A 
ATOM     22  C   UNL     1      -3.358  -1.739  25.083  0.00  0.00    +0.123 A 
ATOM     23  N   UNL     1      -3.574  -2.530  24.984  0.00  0.00    -0.239 NA
ATOM     24  C   UNL     1      -3.989  -2.763  24.310  0.00  0.00    +0.120 A 
ATOM     25  C   UNL     1      -4.187  -2.205  23.736  0.00  0.00    +0.120 A 
ATOM     26  N   UNL     1      -3.972  -1.416  23.835  0.00  0.00    -0.236 NA
ENDBRANCH  19  21
ENDBRANCH  17  18
TORSDOF 3
ENDMDL
MODEL 2
REMARK VINA RESULT:     -13.4      1.127      4.590
REMARK  Name = 
REMARK  3 active torsions:
REMARK  status: ('A' for Active; 'I' for Inactive)
REMARK    1  A    between atoms: C_7  and  N_10
REMARK    2  A    between atoms: C_17  and  N_18
REMARK    3  A    between atoms: C_19  and  C_21
REMARK                            x       y       z     vdW  Elec       q    Type
REMARK                         _______ _______ _______ _____ _____    ______ ____
ROOT
ATOM     10  N   UNL     1      -4.827   0.719  24.833  0.00  0.00    -0.273 NA
ATOM     11  C   UNL     1      -5.450   1.277  24.827  0.00  0.00    +0.074 C 
ATOM     12  C   UNL     1      -4.923   2.112  24.793  0.00  0.00    +0.039 C 
ATOM     13  C   UNL     1      -4.642   2.876  24.765  0.00  0.00    +0.011 C 
ATOM     14  C   UNL     1      -4.378   2.226  24.780  0.00  0.00    +0.056 C 
ATOM     15  C   UNL     1      -4.900   1.428  24.813  0.00  0.00    +0.078 C 
ATOM     16  C   UNL     1      -3.578   1.773  24.780  0.00  0.00    +0.056 A 
ATOM     17  C   UNL     1      -2.765   1.909  24.761  0.00  0.00    +0.086 A 
ATOM     27  C   UNL     1      -2.240   1.273  24.771  0.00  0.00    +0.023 A 
ATOM     28  C   UNL     1      -2.529   0.500  24.800  0.00  0.00    +0.062 A 
ATOM     29  C   UNL     1      -3.342   0.364  24.818  0.00  0.00    +0.261 A 
ATOM     30  O   UNL     1      -3.121  -0.430  24.838  0.00  0.00    -0.267 OA
ATOM     31  N   UNL     1      -3.867   1.001  24.808  0.00  0.00    -0.298 N 
ATOM     32  C   UNL     1      -4.093   1.630  24.793  0.00  0.00    +0.110 C 
ENDROOT
BRANCH  10   7
ATOM      1  C   UNL     1      -3.193  -2.630  24.193  0.00  0.00    +0.095 C 
ATOM      2  C   UNL     1      -3.329  -2.220  24.896  0.00  0.00    +0.226 C 
ATOM      3  O   UNL     1      -3.090  -2.546  25.616  0.00  0.00    -0.275 OA
ATOM      4  N   UNL     1      -3.703  -1.486  24.881  0.00  0.00    -0.279 N 
ATOM      5  C   UNL     1      -3.839  -1.076  25.583  0.00  0.00    +0.095 C 
ATOM      6  C   UNL     1      -4.213  -0.342  25.568  0.00  0.00    +0.038 C 
ATOM      7  C   UNL     1      -4.453  -0.016  24.849  0.00  0.00    +0.061 C 
ATOM      8  C   UNL     1      -4.317  -0.425  24.145  0.00  0.00    +0.038 C 
ATOM      9  C   UNL     1      -3.943  -1.160  24.161  0.00  0.00    +0.095 C 
ENDBRANCH  10   7
BRANCH  17  18
ATOM     18  N   UNL     1      -2.476   2.682  24.733  0.00  0.00    -0.173 NA
ATOM     19  C   UNL     1      -1.711   2.846  24.993  0.00  0.00    +0.288 C 
ATOM     20  O   UNL     1      -1.234   2.238  25.281  0.00  0.00    -0.266 OA
BRANCH  19  21
ATOM     21  C   UNL     1      -1.422   3.619  24.965  0.00  0.00    +0.156 A 
ATOM     22  C   UNL     1      -0.736   3.787  24.539  0.00  0.00    +0.123 A 
ATOM     23  N   UNL     1      -0.448   4.560  24.511  0.00  0.00    -0.239 NA
ATOM     24  C   UNL     1      -0.846   5.164  24.908  0.00  0.00    +0.120 A 
ATOM     25  C   UNL     1      -1.532   4.994  25.333  0.00  0.00    +0.120 A 
ATOM     26  N   UNL     1      -1.820   4.223  25.361  0.00  0.00    -0.236 NA
ENDBRANCH  19  21
ENDBRANCH  17  18
TORSDOF 3
ENDMDL
MODEL 3
REMARK VINA RESULT:     -11.7      1.733      2.864
REMARK  Name = 
REMARK  3 active torsions:
REMARK  status: ('A' for Active; 'I' for Inactive)
REMARK    1  A    between atoms: C_7  and  N_10
REMARK    2  A    between atoms: C_17  and  N_18
REMARK    3  A    between atoms: C_19  and  C_21
REMARK                            x       y       z     vdW  Elec       q    Type
REMARK                         _______ _______ _______ _____ _____    ______ ____
ROOT
ATOM     10  N   UNL     1      -0.301   1.793  24.548  0.00  0.00    -0.273 NA
ATOM     11  C   UNL     1       0.345   1.309  24.331  0.00  0.00    +0.074 C 
ATOM     12  C   UNL     1      -0.126   0.448  24.211  0.00  0.00    +0.039 C 
ATOM     13  C   UNL     1      -0.360  -0.320  24.073  0.00  0.00    +0.011 C 
ATOM     14  C   UNL     1      -0.658   0.287  24.262  0.00  0.00    +0.056 C 
ATOM     15  C   UNL     1      -0.188   1.111  24.373  0.00  0.00    +0.078 C 
ATOM     16  C   UNL     1      -1.472   0.654  24.479  0.00  0.00    +0.056 A 
ATOM     17  C   UNL     1      -2.266   0.446  24.563  0.00  0.00    +0.086 A 
ATOM     27  C   UNL     1      -2.820   1.016  24.784  0.00  0.00    +0.023 A 
ATOM     28  C   UNL     1      -2.579   1.793  24.923  0.00  0.00    +0.062 A 
ATOM     29  C   UNL     1      -1.786   2.001  24.840  0.00  0.00    +0.261 A 
ATOM     30  O   UNL     1      -2.049   2.752  25.055  0.00  0.00    -0.267 OA
ATOM     31  N   UNL     1      -1.232   1.431  24.618  0.00  0.00    -0.298 N 
ATOM     32  C   UNL     1      -0.972   0.840  24.440  0.00  0.00    +0.110 C 
ENDROOT
BRANCH  10   7
ATOM      1  C   UNL     1      -2.230   5.029  24.867  0.00  0.00    +0.095 C 
ATOM      2  C   UNL     1      -1.946   4.510  25.441  0.00  0.00    +0.226 C 
ATOM      3  O   UNL     1      -2.073   4.672  26.241  0.00  0.00    -0.275 OA
ATOM      4  N   UNL     1      -1.535   3.831  25.219  0.00  0.00    -0.279 N 
ATOM      5  C   UNL     1      -1.251   3.313  25.793  0.00  0.00    +0.095 C 
ATOM      6  C   UNL     1      -0.840   2.633  25.571  0.00  0.00    +0.038 C 
ATOM      7  C   UNL     1      -0.712   2.472  24.771  0.00  0.00    +0.061 C 
ATOM      8  C   UNL     1      -0.996   2.990  24.196  0.00  0.00    +0.038 C 
ATOM      9  C   UNL     1      -1.407   3.670  24.419  0.00  0.00    +0.095 C 
ENDBRANCH  10   7
BRANCH  17  18
ATOM     18  N   UNL     1      -2.506  -0.331  24.424  0.00  0.00    -0.173 NA
ATOM     19  C   UNL     1      -3.254  -0.581  24.666  0.00  0.00    +0.288 C 
ATOM     20  O   UNL     1      -3.762  -0.053  25.046  0.00  0.00    -0.266 OA
BRANCH  19  21
ATOM     21  C   UNL     1      -3.494  -1.358  24.527  0.00  0.00    +0.156 A 
ATOM     22  C   UNL     1      -3.988  -1.529  23.889  0.00  0.00    +0.123 A 
ATOM     23  N   UNL     1      -4.228  -2.307  23.751  0.00  0.00    -0.239 NA
ATOM     24  C   UNL     1      -3.975  -2.912  24.250  0.00  0.00    +0.120 A 
ATOM     25  C   UNL     1      -3.481  -2.740  24.889  0.00  0.00    +0.120 A 
ATOM     26  N   UNL     1      -3.241  -1.963  25.027  0.00  0.00    -0.236 NA
ENDBRANCH  19  21
ENDBRANCH  17  18
TORSDOF 3
ENDMDL
MODEL 4
REMARK VINA RESULT:     -11.6      2.164      3.433
REMARK  Name = 
REMARK  3 active torsions:
REMARK  status: ('A' for Active; 'I' for Inactive)
REMARK    1  A    between atoms: C_7  and  N_10
REMARK    2  A    between atoms: C_17  and  N_18
REMARK    3  A    between atoms: C_19  and  C_21
REMARK                            x       y       z     vdW  Elec       q    Type
REMARK                         _______ _______ _______ _____ _____    ______ ____
ROOT
ATOM     10  N   UNL     1      -2.306   4.151  25.266  0.00  0.00    -0.273 NA
ATOM     11  C   UNL     1      -1.638   4.653  25.236  0.00  0.00    +0.074 C 
ATOM     12  C   UNL     1      -0.957   4.003  24.935  0.00  0.00    +0.039 C 
ATOM     13  C   UNL     1      -0.291   3.601  24.694  0.00  0.00    +0.011 C 
ATOM     14  C   UNL     1      -0.968   3.460  24.810  0.00  0.00    +0.056 C 
ATOM     15  C   UNL     1      -1.615   4.099  25.102  0.00  0.00    +0.078 C 
ATOM     16  C   UNL     1      -1.575   2.770  24.784  0.00  0.00    +0.056 A 
ATOM     17  C   UNL     1      -1.624   1.966  24.607  0.00  0.00    +0.086 A 
ATOM     27  C   UNL     1      -2.346   1.572  24.674  0.00  0.00    +0.023 A 
ATOM     28  C   UNL     1      -3.019   1.982  24.918  0.00  0.00    +0.062 A 
ATOM     29  C   UNL     1      -2.970   2.787  25.095  0.00  0.00    +0.261 A 
ATOM     30  O   UNL     1      -3.775   2.712  25.255  0.00  0.00    -0.267 OA
ATOM     31  N   UNL     1      -2.248   3.181  25.028  0.00  0.00    -0.298 N 
ATOM     32  C   UNL     1      -1.599   3.289  24.910  0.00  0.00    +0.110 C 
ENDROOT
BRANCH  10   7
ATOM      1  C   UNL     1      -5.972   3.239  25.114  0.00  0.00    +0.095 C 
ATOM      2  C   UNL     1      -5.436   3.221  25.740  0.00  0.00    +0.226 C 
ATOM      3  O   UNL     1      -5.684   2.969  26.487  0.00  0.00    -0.275 OA
ATOM      4  N   UNL     1      -4.654   3.453  25.622  0.00  0.00    -0.279 N 
ATOM      5  C   UNL     1      -4.118   3.435  26.249  0.00  0.00    +0.095 C 
ATOM      6  C   UNL     1      -3.336   3.667  26.131  0.00  0.00    +0.038 C 
ATOM      7  C   UNL     1      -3.089   3.919  25.385  0.00  0.00    +0.061 C 
ATOM      8  C   UNL     1      -3.624   3.937  24.758  0.00  0.00    +0.038 C 
ATOM      9  C   UNL     1      -4.407   3.705  24.876  0.00  0.00    +0.095 C 
ENDBRANCH  10   7
BRANCH  17  18
ATOM     18  N   UNL     1      -0.951   1.556  24.363  0.00  0.00    -0.173 NA
ATOM     19  C   UNL     1      -1.020   0.788  24.070  0.00  0.00    +0.288 C 
ATOM     20  O   UNL     1      -1.761   0.430  24.022  0.00  0.00    -0.266 OA
BRANCH  19  21
ATOM     21  C   UNL     1      -0.347   0.378  23.826  0.00  0.00    +0.156 A 
ATOM     22  C   UNL     1      -0.132  -0.324  24.203  0.00  0.00    +0.123 A 
ATOM     23  N   UNL     1       0.541  -0.734  23.959  0.00  0.00    -0.239 NA
ATOM     24  C   UNL     1       1.000  -0.443  23.338  0.00  0.00    +0.120 A 
ATOM     25  C   UNL     1       0.784   0.259  22.961  0.00  0.00    +0.120 A 
ATOM     26  N   UNL     1       0.112   0.669  23.205  0.00  0.00    -0.236 NA
ENDBRANCH  19  21
ENDBRANCH  17  18
TORSDOF 3
ENDMDL
MODEL 5
REMARK VINA RESULT:     -10.9      1.340      2.327
REMARK  Name = 
REMARK  3 active torsions:
REMARK  status: ('A' for Active; 'I' for Inactive)
REMARK    1  A    between atoms: C_7  and  N_10
REMARK    2  A    between atoms: C_17  and  N_18
REMARK    3  A    between atoms: C_19  and  C_21
REMARK                            x       y       z     vdW  Elec       q    Type
REMARK                         _______ _______ _______ _____ _____    ______ ____
ROOT
ATOM     10  N   UNL     1      -2.605   2.659  24.052  0.00  0.00    -0.273 NA
ATOM     11  C   UNL     1      -1.901   2.599  23.607  0.00  0.00    +0.074 C 
ATOM     12  C   UNL     1      -1.841   1.617  23.522  0.00  0.00    +0.039 C 
ATOM     13  C   UNL     1      -1.650   0.840  23.364  0.00  0.00    +0.011 C 
ATOM     14  C   UNL     1      -2.156   1.192  23.699  0.00  0.00    +0.056 C 
ATOM     15  C   UNL     1      -2.200   2.144  23.773  0.00  0.00    +0.078 C 
ATOM     16  C   UNL     1      -2.930   1.061  24.178  0.00  0.00    +0.056 A 
ATOM     17  C   UNL     1      -3.417   0.456  24.455  0.00  0.00    +0.086 A 
ATOM     27  C   UNL     1      -4.094   0.637  24.889  0.00  0.00    +0.023 A 
ATOM     28  C   UNL     1      -4.285   1.425  25.047  0.00  0.00    +0.062 A 
ATOM     29  C   UNL     1      -3.798   2.030  24.770  0.00  0.00    +0.261 A 
ATOM     30  O   UNL     1      -4.347   2.523  25.139  0.00  0.00    -0.267 OA
ATOM     31  N   UNL     1      -3.120   1.848  24.336  0.00  0.00    -0.298 N 
ATOM     32  C   UNL     1      -2.650   1.489  24.023  0.00  0.00    +0.110 C 
ENDROOT
BRANCH  10   7
ATOM      1  C   UNL     1      -5.795   4.268  25.290  0.00  0.00    +0.095 C 
ATOM      2  C   UNL     1      -5.102   4.065  25.688  0.00  0.00    +0.226 C 
ATOM      3  O   UNL     1      -5.033   4.215  26.497  0.00  0.00    -0.275 OA
ATOM      4  N   UNL     1      -4.478   3.714  25.280  0.00  0.00    -0.279 N 
ATOM      5  C   UNL     1      -3.785   3.511  25.678  0.00  0.00    +0.095 C 
ATOM      6  C   UNL     1      -3.161   3.160  25.270  0.00  0.00    +0.038 C 
ATOM      7  C   UNL     1      -3.230   3.010  24.461  0.00  0.00    +0.061 C 
ATOM      8  C   UNL     1      -3.922   3.213  24.062  0.00  0.00    +0.038 C 
ATOM      9  C   UNL     1      -4.547   3.564  24.471  0.00  0.00    +0.095 C 
ENDBRANCH  10   7
BRANCH  17  18
ATOM     18  N   UNL     1      -3.226  -0.332  24.297  0.00  0.00    -0.173 NA
ATOM     19  C   UNL     1      -3.578  -0.936  24.734  0.00  0.00    +0.288 C 
ATOM     20  O   UNL     1      -4.119  -0.754  25.329  0.00  0.00    -0.266 OA
BRANCH  19  21
ATOM     21  C   UNL     1      -3.387  -1.724  24.576  0.00  0.00    +0.156 A 
ATOM     22  C   UNL     1      -3.919  -2.202  24.167  0.00  0.00    +0.123 A 
ATOM     23  N   UNL     1      -3.729  -2.990  24.009  0.00  0.00    -0.239 NA
ATOM     24  C   UNL     1      -3.006  -3.298  24.261  0.00  0.00    +0.120 A 
ATOM     25  C   UNL     1      -2.475  -2.818  24.671  0.00  0.00    +0.120 A 
ATOM     26  N   UNL     1      -2.665  -2.032  24.829  0.00  0.00    -0.236 NA
ENDBRANCH  19  21
ENDBRANCH  17  18
TORSDOF 3
ENDMDL
MODEL 6
REMARK VINA RESULT:     -10.8      2.150      4.386
REMARK  Name = 
REMARK  3 active torsions:
REMARK  status: ('A' for Active; 'I' for Inactive)
REMARK    1  A    between atoms: C_7  and  N_10
REMARK    2  A    between atoms: C_17  and  N_18
REMARK    3  A    between atoms: C_19  and  C_21
REMARK                            x       y       z     vdW  Elec       q    Type
REMARK                         _______ _______ _______ _____ _____    ______ ____
ROOT
ATOM     10  N   UNL     1      -1.675  -1.259  24.973  0.00  0.00    -0.273 NA
ATOM     11  C   UNL     1      -2.104  -1.813  25.428  0.00  0.00    +0.074 C 
ATOM     12  C   UNL     1      -2.920  -1.285  25.607  0.00  0.00    +0.039 C 
ATOM     13  C   UNL     1      -3.642  -0.988  25.839  0.00  0.00    +0.011 C 
ATOM     14  C   UNL     1      -3.087  -0.772  25.467  0.00  0.00    +0.056 C 
ATOM     15  C   UNL     1      -2.305  -1.295  25.304  0.00  0.00    +0.078 C 
ATOM     16  C   UNL     1      -2.773  -0.048  24.996  0.00  0.00    +0.056 A 
ATOM     17  C   UNL     1      -2.992   0.715  24.773  0.00  0.00    +0.086 A 
ATOM     27  C   UNL     1      -2.481   1.175  24.318  0.00  0.00    +0.023 A 
ATOM     28  C   UNL     1      -1.750   0.871  24.085  0.00  0.00    +0.062 A 
ATOM     29  C   UNL     1      -1.531   0.107  24.307  0.00  0.00    +0.261 A 
ATOM     30  O   UNL     1      -0.841   0.277  23.889  0.00  0.00    -0.267 OA
ATOM     31  N   UNL     1      -2.042  -0.352  24.763  0.00  0.00    -0.298 N 
ATOM     32  C   UNL     1      -2.583  -0.534  25.112  0.00  0.00    +0.110 C 
ENDROOT
BRANCH  10   7
ATOM      1  C   UNL     1       1.386   0.448  23.556  0.00  0.00    +0.095 C 
ATOM      2  C   UNL     1       0.799   0.001  23.189  0.00  0.00    +0.226 C 
ATOM      3  O   UNL     1       0.829  -0.132  22.375  0.00  0.00    -0.275 OA
ATOM      4  N   UNL     1       0.180  -0.314  23.634  0.00  0.00    -0.279 N 
ATOM      5  C   UNL     1      -0.407  -0.762  23.267  0.00  0.00    +0.095 C 
ATOM      6  C   UNL     1      -1.026  -1.077  23.713  0.00  0.00    +0.038 C 
ATOM      7  C   UNL     1      -1.056  -0.944  24.527  0.00  0.00    +0.061 C 
ATOM      8  C   UNL     1      -0.469  -0.497  24.895  0.00  0.00    +0.038 C 
ATOM      9  C   UNL     1       0.149  -0.182  24.448  0.00  0.00    +0.095 C 
ENDBRANCH  10   7
BRANCH  17  18
ATOM     18  N   UNL     1      -3.723   1.019  25.007  0.00  0.00    -0.173 NA
ATOM     19  C   UNL     1      -3.940   1.785  24.789  0.00  0.00    +0.288 C 
ATOM     20  O   UNL     1      -3.425   2.246  24.339  0.00  0.00    -0.266 OA
BRANCH  19  21
ATOM     21  C   UNL     1      -4.671   2.089  25.022  0.00  0.00    +0.156 A 
ATOM     22  C   UNL     1      -4.704   2.732  25.538  0.00  0.00    +0.123 A 
ATOM     23  N   UNL     1      -5.435   3.036  25.771  0.00  0.00    -0.239 NA
ATOM     24  C   UNL     1      -6.132   2.697  25.489  0.00  0.00    +0.120 A 
ATOM     25  C   UNL     1      -6.098   2.053  24.973  0.00  0.00    +0.120 A 
ATOM     26  N   UNL     1      -5.368   1.750  24.740  0.00  0.00    -0.236 NA
ENDBRANCH  19  21
ENDBRANCH  17  18
TORSDOF 3
ENDMDL
MODEL 7
REMARK VINA RESULT:     -10.7      1.926      4.739
REMARK  Name = 
REMARK  3 active torsions:
REMARK  status: ('A' for Active; 'I' for Inactive)
REMARK    1  A    between atoms: C_7  and  N_10
REMARK    2  A    between atoms: C_17  and  N_18
REMARK    3  A    between atoms: C_19  and  C_21
REMARK                            x       y       z     vdW  Elec       q    Type
REMARK                         _______ _______ _______ _____ _____    ______ ____
ROOT
ATOM     10  N   UNL     1      -0.545   1.291  25.358  0.00  0.00    -0.273 NA
ATOM     11  C   UNL     1      -0.131   1.972  25.608  0.00  0.00    +0.074 C 
ATOM     12  C   UNL     1      -0.880   2.615  25.651  0.00  0.00    +0.039 C 
ATOM     13  C   UNL     1      -1.378   3.254  25.736  0.00  0.00    +0.011 C 
ATOM     14  C   UNL     1      -1.428   2.579  25.550  0.00  0.00    +0.056 C 
ATOM     15  C   UNL     1      -0.693   1.970  25.513  0.00  0.00    +0.078 C 
ATOM     16  C   UNL     1      -2.040   1.949  25.281  0.00  0.00    +0.056 A 
ATOM     17  C   UNL     1      -2.845   1.864  25.123  0.00  0.00    +0.086 A 
ATOM     27  C   UNL     1      -3.143   1.134  24.881  0.00  0.00    +0.023 A 
ATOM     28  C   UNL     1      -2.636   0.489  24.796  0.00  0.00    +0.062 A 
ATOM     29  C   UNL     1      -1.831   0.573  24.953  0.00  0.00    +0.261 A 
ATOM     30  O   UNL     1      -1.795  -0.225  24.749  0.00  0.00    -0.267 OA
ATOM     31  N   UNL     1      -1.533   1.303  25.196  0.00  0.00    -0.298 N 
ATOM     32  C   UNL     1      -1.513   1.949  25.370  0.00  0.00    +0.110 C 
ENDROOT
BRANCH  10   7
ATOM      1  C   UNL     1      -1.249  -2.408  25.012  0.00  0.00    +0.095 C 
ATOM      2  C   UNL     1      -1.052  -1.840  24.447  0.00  0.00    +0.226 C 
ATOM      3  O   UNL     1      -0.982  -2.055  23.653  0.00  0.00    -0.275 OA
ATOM      4  N   UNL     1      -0.925  -1.058  24.674  0.00  0.00    -0.279 N 
ATOM      5  C   UNL     1      -0.729  -0.490  24.109  0.00  0.00    +0.095 C 
ATOM      6  C   UNL     1      -0.602   0.293  24.337  0.00  0.00    +0.038 C 
ATOM      7  C   UNL     1      -0.672   0.508  25.131  0.00  0.00    +0.061 C 
ATOM      8  C   UNL     1      -0.868  -0.059  25.696  0.00  0.00    +0.038 C 
ATOM      9  C   UNL     1      -0.995  -0.842  25.468  0.00  0.00    +0.095 C 
ENDBRANCH  10   7
BRANCH  17  18
ATOM     18  N   UNL     1      -3.352   2.509  25.209  0.00  0.00    -0.173 NA
ATOM     19  C   UNL     1      -4.169   2.399  25.180  0.00  0.00    +0.288 C 
ATOM     20  O   UNL     1      -4.479   1.643  25.066  0.00  0.00    -0.266 OA
BRANCH  19  21
ATOM     21  C   UNL     1      -4.676   3.044  25.265  0.00  0.00    +0.156 A 
ATOM     22  C   UNL     1      -5.308   3.005  25.793  0.00  0.00    +0.123 A 
ATOM     23  N   UNL     1      -5.815   3.650  25.878  0.00  0.00    -0.239 NA
ATOM     24  C   UNL     1      -5.690   4.335  25.435  0.00  0.00    +0.120 A 
ATOM     25  C   UNL     1      -5.057   4.373  24.907  0.00  0.00    +0.120 A 
ATOM     26  N   UNL     1      -4.551   3.729  24.822  0.00  0.00    -0.236 NA
ENDBRANCH  19  21
ENDBRANCH  17  18
TORSDOF 3
ENDMDL
MODEL 8
REMARK VINA RESULT:     -10.7      1.903      5.473
REMARK  Name = 
REMARK  3 active torsions:
REMARK  status: ('A' for Active; 'I' for Inactive)
REMARK    1  A    between atoms: C_7  and  N_10
REMARK    2  A    between atoms: C_17  and  N_18
REMARK    3  A    between atoms: C_19  and  C_21
REMARK                            x       y       z     vdW  Elec       q    Type
REMARK                         _______ _______ _______ _____ _____    ______ ____
ROOT
ATOM     10  N   UNL     1      -0.690  -0.711  24.248  0.00  0.00    -0.273 NA
ATOM     11  C   UNL     1       0.093  -0.537  24.015  0.00  0.00    +0.074 C 
ATOM     12  C   UNL     1       0.100   0.439  24.170  0.00  0.00    +0.039 C 
ATOM     13  C   UNL     1       0.266   1.233  24.242  0.00  0.00    +0.011 C 
ATOM     14  C   UNL     1      -0.278   0.804  24.354  0.00  0.00    +0.056 C 
ATOM     15  C   UNL     1      -0.269  -0.138  24.200  0.00  0.00    +0.078 C 
ATOM     16  C   UNL     1      -1.150   0.808  24.644  0.00  0.00    +0.056 A 
ATOM     17  C   UNL     1      -1.731   1.324  24.920  0.00  0.00    +0.086 A 
ATOM     27  C   UNL     1      -2.477   1.035  25.122  0.00  0.00    +0.023 A 
ATOM     28  C   UNL     1      -2.642   0.230  25.047  0.00  0.00    +0.062 A 
ATOM     29  C   UNL     1      -2.061  -0.286  24.771  0.00  0.00    +0.261 A 
ATOM     30  O   UNL     1      -2.644  -0.860  24.873  0.00  0.00    -0.267 OA
ATOM     31  N   UNL     1      -1.315   0.003  24.570  0.00  0.00    -0.298 N 
ATOM     32  C   UNL     1      -0.811   0.432  24.471  0.00  0.00    +0.110 C 
ENDROOT
BRANCH  10   7
ATOM      1  C   UNL     1      -3.957  -2.614  24.268  0.00  0.00    +0.095 C 
ATOM      2  C   UNL     1      -3.395  -2.500  24.860  0.00  0.00    +0.226 C 
ATOM      3  O   UNL     1      -3.508  -2.834  25.606  0.00  0.00    -0.275 OA
ATOM      4  N   UNL     1      -2.719  -2.053  24.707  0.00  0.00    -0.279 N 
ATOM      5  C   UNL     1      -2.156  -1.939  25.299  0.00  0.00    +0.095 C 
ATOM      6  C   UNL     1      -1.480  -1.492  25.147  0.00  0.00    +0.038 C 
ATOM      7  C   UNL     1      -1.366  -1.158  24.401  0.00  0.00    +0.061 C 
ATOM      8  C   UNL     1      -1.929  -1.271  23.808  0.00  0.00    +0.038 C 
ATOM      9  C   UNL     1      -2.605  -1.719  23.961  0.00  0.00    +0.095 C 
ENDBRANCH  10   7
BRANCH  17  18
ATOM     18  N   UNL     1      -1.567   2.129  24.995  0.00  0.00    -0.173 NA
ATOM     19  C   UNL     1      -2.183   2.670  25.080  0.00  0.00    +0.288 C 
ATOM     20  O   UNL     1      -2.965   2.406  25.091  0.00  0.00    -0.266 OA
BRANCH  19  21
ATOM     21  C   UNL     1      -2.019   3.475  25.154  0.00  0.00    +0.156 A 
ATOM     22  C   UNL     1      -2.376   3.916  25.753  0.00  0.00    +0.123 A 
ATOM     23  N   UNL     1      -2.212   4.721  25.827  0.00  0.00    -0.239 NA
ATOM     24  C   UNL     1      -1.689   5.085  25.303  0.00  0.00    +0.120 A 
ATOM     25  C   UNL     1      -1.331   4.644  24.704  0.00  0.00    +0.120 A 
ATOM     26  N   UNL     1      -1.496   3.839  24.630  0.00  0.00    -0.236 NA
ENDBRANCH  19  21
ENDBRANCH  17  18
TORSDOF 3
ENDMDL
MODEL 9
REMARK VINA RESULT:     -10.6      2.519      4.342
REMARK  Name = 
REMARK  3 active torsions:
REMARK  status: ('A' for Active; 'I' for Inactive)
REMARK    1  A    between atoms: C_7  and  N_10
REMARK    2  A    between atoms: C_17  and  N_18
REMARK    3  A    between atoms: C_19  and  C_21
REMARK                            x       y       z     vdW  Elec       q    Type
REMARK                         _______ _______ _______ _____ _____    ______ ____
ROOT
ATOM     10  N   UNL     1      -3.475  -1.100  25.009  0.00  0.00    -0.273 NA
ATOM     11  C   UNL     1      -3.240  -1.898  25.084  0.00  0.00    +0.074 C 
ATOM     12  C   UNL     1      -2.292  -1.817  24.815  0.00  0.00    +0.039 C 
ATOM     13  C   UNL     1      -1.508  -1.918  24.622  0.00  0.00    +0.011 C 
ATOM     14  C   UNL     1      -1.970  -1.391  24.655  0.00  0.00    +0.056 C 
ATOM     15  C   UNL     1      -2.884  -1.486  24.917  0.00  0.00    +0.078 C 
ATOM     16  C   UNL     1      -2.041  -0.485  24.518  0.00  0.00    +0.056 A 
ATOM     17  C   UNL     1      -1.590   0.165  24.285  0.00  0.00    +0.086 A 
ATOM     27  C   UNL     1      -1.934   0.913  24.249  0.00  0.00    +0.023 A 
ATOM     28  C   UNL     1      -2.730   1.012  24.445  0.00  0.00    +0.062 A 
ATOM     29  C   UNL     1      -3.181   0.362  24.678  0.00  0.00    +0.261 A 
ATOM     30  O   UNL     1      -3.787   0.917  24.746  0.00  0.00    -0.267 OA
ATOM     31  N   UNL     1      -2.836  -0.386  24.715  0.00  0.00    -0.298 N 
ATOM     32  C   UNL     1      -2.377  -0.871  24.675  0.00  0.00    +0.110 C 
ENDROOT
BRANCH  10   7
ATOM      1  C   UNL     1      -5.522   1.985  25.776  0.00  0.00    +0.095 C 
ATOM      2  C   UNL     1      -5.443   1.549  25.081  0.00  0.00    +0.226 C 
ATOM      3  O   UNL     1      -5.855   1.775  24.403  0.00  0.00    -0.275 OA
ATOM      4  N   UNL     1      -4.951   0.887  25.063  0.00  0.00    -0.279 N 
ATOM      5  C   UNL     1      -4.871   0.451  24.368  0.00  0.00    +0.095 C 
ATOM      6  C   UNL     1      -4.380  -0.211  24.349  0.00  0.00    +0.038 C 
ATOM      7  C   UNL     1      -3.967  -0.437  25.027  0.00  0.00    +0.061 C 
ATOM      8  C   UNL     1      -4.046  -0.001  25.723  0.00  0.00    +0.038 C 
ATOM      9  C   UNL     1      -4.538   0.661  25.741  0.00  0.00    +0.095 C 
ENDBRANCH  10   7
BRANCH  17  18
ATOM     18  N   UNL     1      -0.795   0.066  24.088  0.00  0.00    -0.173 NA
ATOM     19  C   UNL     1      -0.390   0.666  23.694  0.00  0.00    +0.288 C 
ATOM     20  O   UNL     1      -0.780   1.365  23.495  0.00  0.00    -0.266 OA
BRANCH  19  21
ATOM     21  C   UNL     1       0.405   0.567  23.497  0.00  0.00    +0.156 A 
ATOM     22  C   UNL     1       0.975   1.071  23.817  0.00  0.00    +0.123 A 
ATOM     23  N   UNL     1       1.770   0.972  23.620  0.00  0.00    -0.239 NA
ATOM     24  C   UNL     1       1.996   0.369  23.104  0.00  0.00    +0.120 A 
ATOM     25  C   UNL     1       1.425  -0.134  22.784  0.00  0.00    +0.120 A 
ATOM     26  N   UNL     1       0.631  -0.035  22.980  0.00  0.00    -0.236 NA
ENDBRANCH  19  21
ENDBRANCH  17  18
TORSDOF 3
ENDMDL
