REMARK  Name = 
REMARK  5 active torsions:
REMARK  status: ('A' for Active; 'I' for Inactive)
REMARK    1  A    between atoms: O_2  and  C_3
REMARK    2  A    between atoms: C_6  and  N_7
REMARK    3  A    between atoms: N_10  and  C_11
REMARK    4  A    between atoms: C_13  and  C_17
REMARK    5  A    between atoms: C_19  and  C_22
REMARK                            x       y       z     vdW  Elec       q    Type
REMARK                         _______ _______ _______ _____ _____    ______ ____
ROOT
ATOM     11  C   UNL     1      -0.596  -3.041   0.000  0.00  0.00    +0.115 C 
ATOM     12  C   UNL     1       0.072  -3.525   0.000  0.00  0.00    +0.049 C 
ATOM     13  C   UNL     1      -0.183  -4.310   0.000  0.00  0.00    +0.139 C 
ATOM     14  N   UNL     1      -1.008  -4.310   0.000  0.00  0.00    -0.264 NA
ATOM     15  C   UNL     1      -1.493  -4.977   0.000  0.00  0.00    +0.090 C 
ATOM     16  C   UNL     1      -1.263  -3.525   0.000  0.00  0.00    +0.094 C 
ENDROOT
BRANCH  13  17
ATOM     17  C   UNL     1       0.302  -4.977   0.000  0.00  0.00    +0.251 A 
ATOM     18  N   UNL     1       1.127  -4.977   0.000  0.00  0.00    -0.190 NA
ATOM     19  C   UNL     1       1.382  -5.762   0.000  0.00  0.00    +0.205 A 
ATOM     20  N   UNL     1       0.715  -6.247   0.000  0.00  0.00    -0.056 NA
ATOM     21  O   UNL     1       0.047  -5.762   0.000  0.00  0.00    -0.336 OA
BRANCH  19  22
ATOM     22  C   UNL     1       2.167  -6.017   0.000  0.00  0.00    +0.058 A 
ATOM     23  C   UNL     1       2.780  -5.465   0.000  0.00  0.00    +0.006 A 
ATOM     24  C   UNL     1       3.564  -5.720   0.000  0.00  0.00    +0.021 A 
ATOM     25  C   UNL     1       3.736  -6.527   0.000  0.00  0.00    +0.099 A 
ATOM     26  N   UNL     1       3.123  -7.079   0.000  0.00  0.00    -0.242 NA
ATOM     27  C   UNL     1       2.338  -6.824   0.000  0.00  0.00    +0.102 A 
ENDBRANCH  19  22
ENDBRANCH  13  17
BRANCH  11  10
ATOM      7  N   UNL     1      -1.310  -0.978   0.000  0.00  0.00    -0.161 NA
ATOM      8  C   UNL     1      -1.310  -1.803   0.000  0.00  0.00    +0.343 C 
ATOM      9  O   UNL     1      -2.024  -2.216   0.000  0.00  0.00    -0.249 OA
ATOM     10  N   UNL     1      -0.596  -2.216   0.000  0.00  0.00    -0.187 NA
BRANCH   7   6
ATOM      3  C   UNL     1      -3.453   0.260   0.000  0.00  0.00    +0.139 A 
ATOM      4  C   UNL     1      -2.739   0.672   0.000  0.00  0.00    +0.038 A 
ATOM      5  C   UNL     1      -2.024   0.260   0.000  0.00  0.00    +0.020 A 
ATOM      6  C   UNL     1      -2.024  -0.566   0.000  0.00  0.00    +0.075 A 
ATOM     28  C   UNL     1      -2.739  -0.978   0.000  0.00  0.00    +0.020 A 
ATOM     29  C   UNL     1      -3.453  -0.566   0.000  0.00  0.00    +0.038 A 
BRANCH   3   2
ATOM      1  C   UNL     1      -4.882   0.260   0.000  0.00  0.00    +0.252 C 
ATOM      2  O   UNL     1      -4.168   0.672   0.000  0.00  0.00    -0.471 OA
ENDBRANCH   3   2
ENDBRANCH   7   6
ENDBRANCH  11  10
TORSDOF 5
