REMARK  Name = 
REMARK  7 active torsions:
REMARK  status: ('A' for Active; 'I' for Inactive)
REMARK    1  A    between atoms: C_2  and  N_3
REMARK    2  A    between atoms: C_2  and  C_29
REMARK    3  A    between atoms: C_4  and  C_6
REMARK    4  A    between atoms: C_13  and  N_15
REMARK    5  A    between atoms: N_15  and  S_16
REMARK    6  A    between atoms: S_16  and  C_19
REMARK    7  A    between atoms: C_21  and  C_25
REMARK                            x       y       z     vdW  Elec       q    Type
REMARK                         _______ _______ _______ _____ _____    ______ ____
ROOT
ATOM      6  C   UNL     1      -3.486  -4.201   0.000  0.00  0.00    +0.200 C 
ATOM      7  O   UNL     1      -3.768  -3.426   0.000  0.00  0.00    -0.216 OA
ATOM      8  C   UNL     1      -2.956  -4.833   0.000  0.00  0.00    +0.075 C 
ATOM      9  C   UNL     1      -3.238  -5.609   0.000  0.00  0.00    +0.187 C 
ATOM     10  O   UNL     1      -2.708  -6.240   0.000  0.00  0.00    -0.220 OA
ATOM     11  C   UNL     1      -4.051  -5.752   0.000  0.00  0.00    +0.200 C 
ATOM     12  O   UNL     1      -4.333  -6.527   0.000  0.00  0.00    -0.219 OA
ATOM     13  C   UNL     1      -4.581  -5.120   0.000  0.00  0.00    +0.133 C 
ATOM     14  C   UNL     1      -4.299  -4.345   0.000  0.00  0.00    +0.062 C 
ENDROOT
BRANCH   6   4
ATOM      3  N   UNL     1      -2.057  -4.201   0.000  0.00  0.00    -0.196 NA
ATOM      4  C   UNL     1      -2.772  -3.789   0.000  0.00  0.00    +0.269 C 
ATOM      5  O   UNL     1      -2.772  -2.964   0.000  0.00  0.00    -0.271 OA
BRANCH   3   2
ATOM      1  C   UNL     1      -1.343  -2.964   0.000  0.00  0.00    +0.033 C 
ATOM      2  C   UNL     1      -1.343  -3.789   0.000  0.00  0.00    +0.175 C 
BRANCH   2  29
ATOM     29  C   UNL     1      -0.628  -4.201   0.000  0.00  0.00    +0.281 C 
ATOM     30  N   UNL     1       0.086  -3.789   0.000  0.00  0.00    -0.086 NA
ATOM     31  O   UNL     1      -0.628  -5.026   0.000  0.00  0.00    -0.270 OA
ENDBRANCH   2  29
ENDBRANCH   3   2
ENDBRANCH   6   4
BRANCH  13  15
ATOM     15  N   UNL     1      -5.393  -5.263   0.000  0.00  0.00    -0.076 NA
BRANCH  15  16
ATOM     16  S   UNL     1      -5.675  -6.038   0.000  0.00  0.00    +0.077 S 
ATOM     17  O   UNL     1      -4.900  -6.320   0.000  0.00  0.00    -0.152 OA
ATOM     18  O   UNL     1      -6.451  -5.756   0.000  0.00  0.00    -0.152 OA
BRANCH  16  19
ATOM     19  C   UNL     1      -5.958  -6.814   0.000  0.00  0.00    +0.124 A 
ATOM     20  C   UNL     1      -5.427  -7.446   0.000  0.00  0.00    +0.024 A 
ATOM     21  C   UNL     1      -5.710  -8.221   0.000  0.00  0.00    +0.073 A 
ATOM     22  C   UNL     1      -6.522  -8.364   0.000  0.00  0.00    +0.004 A 
ATOM     23  C   UNL     1      -7.052  -7.732   0.000  0.00  0.00    +0.001 A 
ATOM     24  C   UNL     1      -6.770  -6.957   0.000  0.00  0.00    +0.020 A 
BRANCH  21  25
ATOM     25  C   UNL     1      -5.179  -8.853   0.000  0.00  0.00    +0.419 C 
ATOM     26  F   UNL     1      -4.649  -9.485   0.000  0.00  0.00    -0.166 F 
ATOM     27  F   UNL     1      -4.547  -8.322   0.000  0.00  0.00    -0.166 F 
ATOM     28  F   UNL     1      -5.811  -9.383   0.000  0.00  0.00    -0.166 F 
ENDBRANCH  21  25
ENDBRANCH  16  19
ENDBRANCH  15  16
ENDBRANCH  13  15
TORSDOF 7
