MODEL 1
REMARK VINA RESULT:     -11.1      0.000      0.000
REMARK  Name = 
REMARK  11 active torsions:
REMARK  status: ('A' for Active; 'I' for Inactive)
REMARK    1  A    between atoms: O_2  and  C_3
REMARK    2  A    between atoms: C_4  and  O_5
REMARK    3  A    between atoms: C_8  and  C_9
REMARK    4  A    between atoms: C_9  and  N_10
REMARK    5  A    between atoms: C_11  and  C_13
REMARK    6  A    between atoms: C_13  and  C_14
REMARK    7  A    between atoms: C_19  and  C_20
REMARK    8  A    between atoms: C_20  and  C_21
REMARK    9  A    between atoms: C_24  and  C_25
REMARK   10  A    between atoms: C_25  and  O_26
REMARK   11  A    between atoms: O_26  and  C_27
REMARK                            x       y       z     vdW  Elec       q    Type
REMARK                         _______ _______ _______ _____ _____    ______ ____
ROOT
ATOM     14  C   UNL     1      -2.572   3.366  25.169  0.00  0.00    +0.012 C 
ATOM     15  C   UNL     1      -2.293   3.818  25.800  0.00  0.00    +0.019 C 
ATOM     16  C   UNL     1      -2.824   4.167  26.325  0.00  0.00    +0.089 C 
ATOM     17  N   UNL     1      -3.636   4.063  26.220  0.00  0.00    -0.218 NA
ATOM     18  C   UNL     1      -3.916   3.611  25.590  0.00  0.00    +0.089 C 
ATOM     19  C   UNL     1      -3.385   3.262  25.064  0.00  0.00    +0.024 C 
ENDROOT
BRANCH  14  13
ATOM     13  C   UNL     1      -2.041   3.017  24.643  0.00  0.00    +0.087 C 
BRANCH  13  11
ATOM     10  N   UNL     1      -0.651   2.716  24.505  0.00  0.00    -0.201 NA
ATOM     11  C   UNL     1      -1.254   3.265  24.627  0.00  0.00    +0.242 C 
ATOM     12  O   UNL     1      -1.070   4.062  24.733  0.00  0.00    -0.273 OA
BRANCH  10   9
ATOM      9  C   UNL     1      -0.835   1.918  24.399  0.00  0.00    +0.142 C 
BRANCH   9   8
ATOM      3  C   UNL     1       0.861   0.370  23.478  0.00  0.00    +0.172 A 
ATOM      4  C   UNL     1       0.154   0.074  23.780  0.00  0.00    +0.172 A 
ATOM      7  C   UNL     1      -0.412   0.589  24.087  0.00  0.00    +0.037 A 
ATOM      8  C   UNL     1      -0.269   1.403  24.092  0.00  0.00    +0.003 A 
ATOM     34  C   UNL     1       0.438   1.699  23.790  0.00  0.00    +0.001 A 
ATOM     35  C   UNL     1       1.004   1.182  23.483  0.00  0.00    +0.040 A 
BRANCH   3   2
ATOM      1  C   UNL     1       2.057   0.148  22.726  0.00  0.00    +0.253 C 
ATOM      2  O   UNL     1       1.427  -0.147  23.170  0.00  0.00    -0.468 OA
ENDBRANCH   3   2
BRANCH   4   5
ATOM      5  O   UNL     1       0.011  -0.739  23.775  0.00  0.00    -0.468 OA
ATOM      6  C   UNL     1      -0.285  -1.111  24.450  0.00  0.00    +0.253 C 
ENDBRANCH   4   5
ENDBRANCH   9   8
ENDBRANCH  10   9
ENDBRANCH  13  11
ENDBRANCH  14  13
BRANCH  19  20
ATOM     20  C   UNL     1      -3.665   2.810  24.434  0.00  0.00    +0.051 C 
BRANCH  20  21
ATOM     21  C   UNL     1      -4.130   2.144  24.578  0.00  0.00    +0.100 A 
ATOM     22  N   UNL     1      -4.923   2.147  24.804  0.00  0.00    -0.082 NA
ATOM     23  O   UNL     1      -5.167   1.364  24.888  0.00  0.00    -0.354 OA
ATOM     24  C   UNL     1      -4.524   0.877  24.714  0.00  0.00    +0.198 A 
ATOM     33  C   UNL     1      -3.883   1.359  24.523  0.00  0.00    +0.057 A 
BRANCH  24  25
ATOM     25  C   UNL     1      -4.523   0.051  24.729  0.00  0.00    +0.272 C 
BRANCH  25  26
ATOM     26  O   UNL     1      -3.902  -0.367  24.381  0.00  0.00    -0.467 OA
BRANCH  26  27
ATOM     27  C   UNL     1      -3.877  -1.189  24.438  0.00  0.00    +0.139 A 
ATOM     28  C   UNL     1      -3.560  -1.546  25.112  0.00  0.00    +0.037 A 
ATOM     29  C   UNL     1      -3.534  -2.368  25.169  0.00  0.00    +0.003 A 
ATOM     30  C   UNL     1      -3.825  -2.835  24.554  0.00  0.00    +0.000 A 
ATOM     31  C   UNL     1      -4.141  -2.478  23.881  0.00  0.00    +0.003 A 
ATOM     32  C   UNL     1      -4.167  -1.655  23.823  0.00  0.00    +0.037 A 
ENDBRANCH  26  27
ENDBRANCH  25  26
ENDBRANCH  24  25
ENDBRANCH  20  21
ENDBRANCH  19  20
TORSDOF 11
ENDMDL
MODEL 2
REMARK VINA RESULT:     -10.5      1.279      4.368
REMARK  Name = 
REMARK  11 active torsions:
REMARK  status: ('A' for Active; 'I' for Inactive)
REMARK    1  A    between atoms: O_2  and  C_3
REMARK    2  A    between atoms: C_4  and  O_5
REMARK    3  A    between atoms: C_8  and  C_9
REMARK    4  A    between atoms: C_9  and  N_10
REMARK    5  A    between atoms: C_11  and  C_13
REMARK    6  A    between atoms: C_13  and  C_14
REMARK    7  A    between atoms: C_19  and  C_20
REMARK    8  A    between atoms: C_20  and  C_21
REMARK    9  A    between atoms: C_24  and  C_25
REMARK   10  A    between atoms: C_25  and  O_26
REMARK   11  A    between atoms: O_26  and  C_27
REMARK                            x       y       z     vdW  Elec       q    Type
REMARK                         _______ _______ _______ _____ _____    ______ ____
ROOT
ATOM     14  C   UNL     1      -0.874   2.812  25.183  0.00  0.00    +0.012 C 
ATOM     15  C   UNL     1      -0.642   3.205  25.870  0.00  0.00    +0.019 C 
ATOM     16  C   UNL     1       0.033   2.963  26.277  0.00  0.00    +0.089 C 
ATOM     17  N   UNL     1       0.478   2.326  25.996  0.00  0.00    -0.218 NA
ATOM     18  C   UNL     1       0.246   1.933  25.309  0.00  0.00    +0.089 C 
ATOM     19  C   UNL     1      -0.429   2.175  24.902  0.00  0.00    +0.024 C 
ENDROOT
BRANCH  14  13
ATOM     13  C   UNL     1      -1.550   3.054  24.777  0.00  0.00    +0.087 C 
BRANCH  13  11
ATOM     10  N   UNL     1      -2.823   3.671  24.978  0.00  0.00    -0.201 NA
ATOM     11  C   UNL     1      -2.003   3.680  25.066  0.00  0.00    +0.242 C 
ATOM     12  O   UNL     1      -1.636   4.315  25.444  0.00  0.00    -0.273 OA
BRANCH  10   9
ATOM      9  C   UNL     1      -3.190   3.035  24.600  0.00  0.00    +0.142 C 
BRANCH   9   8
ATOM      3  C   UNL     1      -5.539   2.471  25.136  0.00  0.00    +0.172 A 
ATOM      4  C   UNL     1      -5.231   3.203  25.355  0.00  0.00    +0.172 A 
ATOM      7  C   UNL     1      -4.448   3.392  25.177  0.00  0.00    +0.037 A 
ATOM      8  C   UNL     1      -3.973   2.847  24.778  0.00  0.00    +0.003 A 
ATOM     34  C   UNL     1      -4.281   2.115  24.559  0.00  0.00    +0.001 A 
ATOM     35  C   UNL     1      -5.065   1.926  24.738  0.00  0.00    +0.040 A 
BRANCH   3   2
ATOM      1  C   UNL     1      -6.618   1.533  25.137  0.00  0.00    +0.253 C 
ATOM      2  O   UNL     1      -6.323   2.283  25.315  0.00  0.00    -0.468 OA
ENDBRANCH   3   2
BRANCH   4   5
ATOM      5  O   UNL     1      -5.705   3.749  25.754  0.00  0.00    -0.468 OA
ATOM      6  C   UNL     1      -5.664   4.550  25.561  0.00  0.00    +0.253 C 
ENDBRANCH   4   5
ENDBRANCH   9   8
ENDBRANCH  10   9
ENDBRANCH  13  11
ENDBRANCH  14  13
BRANCH  19  20
ATOM     20  C   UNL     1      -0.661   1.782  24.215  0.00  0.00    +0.051 C 
BRANCH  20  21
ATOM     21  C   UNL     1      -0.667   0.957  24.194  0.00  0.00    +0.100 A 
ATOM     22  N   UNL     1      -0.018   0.472  24.041  0.00  0.00    -0.082 NA
ATOM     23  O   UNL     1      -0.273  -0.312  24.075  0.00  0.00    -0.354 OA
ATOM     24  C   UNL     1      -1.079  -0.310  24.249  0.00  0.00    +0.198 A 
ATOM     33  C   UNL     1      -1.323   0.474  24.323  0.00  0.00    +0.057 A 
BRANCH  24  25
ATOM     25  C   UNL     1      -1.558  -0.977  24.334  0.00  0.00    +0.272 C 
BRANCH  25  26
ATOM     26  O   UNL     1      -2.333  -0.897  24.609  0.00  0.00    -0.467 OA
BRANCH  26  27
ATOM     27  C   UNL     1      -2.872  -1.512  24.505  0.00  0.00    +0.139 A 
ATOM     28  C   UNL     1      -3.570  -1.382  24.084  0.00  0.00    +0.037 A 
ATOM     29  C   UNL     1      -4.110  -1.997  23.981  0.00  0.00    +0.003 A 
ATOM     30  C   UNL     1      -3.952  -2.743  24.298  0.00  0.00    +0.000 A 
ATOM     31  C   UNL     1      -3.254  -2.872  24.718  0.00  0.00    +0.003 A 
ATOM     32  C   UNL     1      -2.714  -2.257  24.822  0.00  0.00    +0.037 A 
ENDBRANCH  26  27
ENDBRANCH  25  26
ENDBRANCH  24  25
ENDBRANCH  20  21
ENDBRANCH  19  20
TORSDOF 11
ENDMDL
MODEL 3
REMARK VINA RESULT:     -10.5      1.786      5.760
REMARK  Name = 
REMARK  11 active torsions:
REMARK  status: ('A' for Active; 'I' for Inactive)
REMARK    1  A    between atoms: O_2  and  C_3
REMARK    2  A    between atoms: C_4  and  O_5
REMARK    3  A    between atoms: C_8  and  C_9
REMARK    4  A    between atoms: C_9  and  N_10
REMARK    5  A    between atoms: C_11  and  C_13
REMARK    6  A    between atoms: C_13  and  C_14
REMARK    7  A    between atoms: C_19  and  C_20
REMARK    8  A    between atoms: C_20  and  C_21
REMARK    9  A    between atoms: C_24  and  C_25
REMARK   10  A    between atoms: C_25  and  O_26
REMARK   11  A    between atoms: O_26  and  C_27
REMARK                            x       y       z     vdW  Elec       q    Type
REMARK                         _______ _______ _______ _____ _____    ______ ____
ROOT
ATOM     14  C   UNL     1      -3.172  -1.638  24.746  0.00  0.00    +0.012 C 
ATOM     15  C   UNL     1      -3.454  -2.215  24.228  0.00  0.00    +0.019 C 
ATOM     16  C   UNL     1      -2.962  -2.830  23.987  0.00  0.00    +0.089 C 
ATOM     17  N   UNL     1      -2.184  -2.869  24.263  0.00  0.00    -0.218 NA
ATOM     18  C   UNL     1      -1.902  -2.293  24.781  0.00  0.00    +0.089 C 
ATOM     19  C   UNL     1      -2.395  -1.677  25.023  0.00  0.00    +0.024 C 
ENDROOT
BRANCH  14  13
ATOM     13  C   UNL     1      -3.665  -1.023  24.988  0.00  0.00    +0.087 C 
BRANCH  13  11
ATOM     10  N   UNL     1      -4.701  -0.107  24.628  0.00  0.00    -0.201 NA
ATOM     11  C   UNL     1      -4.348  -0.850  24.560  0.00  0.00    +0.242 C 
ATOM     12  O   UNL     1      -4.680  -1.419  24.064  0.00  0.00    -0.273 OA
BRANCH  10   9
ATOM      9  C   UNL     1      -4.369   0.463  25.124  0.00  0.00    +0.142 C 
BRANCH   9   8
ATOM      3  C   UNL     1      -5.157   2.806  25.013  0.00  0.00    +0.172 A 
ATOM      4  C   UNL     1      -4.543   2.554  24.525  0.00  0.00    +0.172 A 
ATOM      7  C   UNL     1      -4.279   1.774  24.561  0.00  0.00    +0.037 A 
ATOM      8  C   UNL     1      -4.632   1.244  25.087  0.00  0.00    +0.003 A 
ATOM     34  C   UNL     1      -5.247   1.496  25.575  0.00  0.00    +0.001 A 
ATOM     35  C   UNL     1      -5.510   2.277  25.538  0.00  0.00    +0.040 A 
BRANCH   3   2
ATOM      1  C   UNL     1      -5.762   3.940  25.639  0.00  0.00    +0.253 C 
ATOM      2  O   UNL     1      -5.420   3.588  24.976  0.00  0.00    -0.468 OA
ENDBRANCH   3   2
BRANCH   4   5
ATOM      5  O   UNL     1      -4.190   3.084  23.999  0.00  0.00    -0.468 OA
ATOM      6  C   UNL     1      -3.787   2.801  23.336  0.00  0.00    +0.253 C 
ENDBRANCH   4   5
ENDBRANCH   9   8
ENDBRANCH  10   9
ENDBRANCH  13  11
ENDBRANCH  14  13
BRANCH  19  20
ATOM     20  C   UNL     1      -2.112  -1.102  25.541  0.00  0.00    +0.051 C 
BRANCH  20  21
ATOM     21  C   UNL     1      -1.456  -0.646  25.333  0.00  0.00    +0.100 A 
ATOM     22  N   UNL     1      -0.699  -0.931  25.173  0.00  0.00    -0.082 NA
ATOM     23  O   UNL     1      -0.218  -0.288  24.990  0.00  0.00    -0.354 OA
ATOM     24  C   UNL     1      -0.677   0.396  25.037  0.00  0.00    +0.198 A 
ATOM     33  C   UNL     1      -1.442   0.175  25.249  0.00  0.00    +0.057 A 
BRANCH  24  25
ATOM     25  C   UNL     1      -0.416   1.166  24.896  0.00  0.00    +0.272 C 
BRANCH  25  26
ATOM     26  O   UNL     1      -0.449   1.730  25.498  0.00  0.00    -0.467 OA
BRANCH  26  27
ATOM     27  C   UNL     1      -0.566   2.525  25.312  0.00  0.00    +0.139 A 
ATOM     28  C   UNL     1      -1.009   3.005  25.816  0.00  0.00    +0.037 A 
ATOM     29  C   UNL     1      -1.126   3.800  25.630  0.00  0.00    +0.003 A 
ATOM     30  C   UNL     1      -0.799   4.116  24.941  0.00  0.00    +0.000 A 
ATOM     31  C   UNL     1      -0.357   3.635  24.437  0.00  0.00    +0.003 A 
ATOM     32  C   UNL     1      -0.240   2.840  24.623  0.00  0.00    +0.037 A 
ENDBRANCH  26  27
ENDBRANCH  25  26
ENDBRANCH  24  25
ENDBRANCH  20  21
ENDBRANCH  19  20
TORSDOF 11
ENDMDL
MODEL 4
REMARK VINA RESULT:     -10.2      1.170      4.104
REMARK  Name = 
REMARK  11 active torsions:
REMARK  status: ('A' for Active; 'I' for Inactive)
REMARK    1  A    between atoms: O_2  and  C_3
REMARK    2  A    between atoms: C_4  and  O_5
REMARK    3  A    between atoms: C_8  and  C_9
REMARK    4  A    between atoms: C_9  and  N_10
REMARK    5  A    between atoms: C_11  and  C_13
REMARK    6  A    between atoms: C_13  and  C_14
REMARK    7  A    between atoms: C_19  and  C_20
REMARK    8  A    between atoms: C_20  and  C_21
REMARK    9  A    between atoms: C_24  and  C_25
REMARK   10  A    between atoms: C_25  and  O_26
REMARK   11  A    between atoms: O_26  and  C_27
REMARK                            x       y       z     vdW  Elec       q    Type
REMARK                         _______ _______ _______ _____ _____    ______ ____
ROOT
ATOM     14  C   UNL     1      -4.650   2.647  24.938  0.00  0.00    +0.012 C 
ATOM     15  C   UNL     1      -5.133   2.773  25.595  0.00  0.00    +0.019 C 
ATOM     16  C   UNL     1      -5.069   3.473  26.027  0.00  0.00    +0.089 C 
ATOM     17  N   UNL     1      -4.521   4.048  25.801  0.00  0.00    -0.218 NA
ATOM     18  C   UNL     1      -4.038   3.923  25.145  0.00  0.00    +0.089 C 
ATOM     19  C   UNL     1      -4.102   3.222  24.713  0.00  0.00    +0.024 C 
ENDROOT
BRANCH  14  13
ATOM     13  C   UNL     1      -4.714   1.948  24.507  0.00  0.00    +0.087 C 
BRANCH  13  11
ATOM     10  N   UNL     1      -5.121   0.592  24.704  0.00  0.00    -0.201 NA
ATOM     11  C   UNL     1      -5.298   1.397  24.698  0.00  0.00    +0.242 C 
ATOM     12  O   UNL     1      -6.061   1.652  24.883  0.00  0.00    -0.273 OA
BRANCH  10   9
ATOM      9  C   UNL     1      -4.358   0.337  24.518  0.00  0.00    +0.142 C 
BRANCH   9   8
ATOM      3  C   UNL     1      -3.795  -2.070  24.644  0.00  0.00    +0.172 A 
ATOM      4  C   UNL     1      -3.621  -1.572  25.277  0.00  0.00    +0.172 A 
ATOM      7  C   UNL     1      -3.808  -0.770  25.236  0.00  0.00    +0.037 A 
ATOM      8  C   UNL     1      -4.170  -0.466  24.560  0.00  0.00    +0.003 A 
ATOM     34  C   UNL     1      -4.344  -0.963  23.926  0.00  0.00    +0.001 A 
ATOM     35  C   UNL     1      -4.157  -1.766  23.968  0.00  0.00    +0.040 A 
BRANCH   3   2
ATOM      1  C   UNL     1      -3.657  -3.344  24.010  0.00  0.00    +0.253 C 
ATOM      2  O   UNL     1      -3.607  -2.873  24.685  0.00  0.00    -0.468 OA
ENDBRANCH   3   2
BRANCH   4   5
ATOM      5  O   UNL     1      -3.258  -1.877  25.954  0.00  0.00    -0.468 OA
ATOM      6  C   UNL     1      -3.019  -1.369  26.558  0.00  0.00    +0.253 C 
ENDBRANCH   4   5
ENDBRANCH   9   8
ENDBRANCH  10   9
ENDBRANCH  13  11
ENDBRANCH  14  13
BRANCH  19  20
ATOM     20  C   UNL     1      -3.619   3.097  24.056  0.00  0.00    +0.051 C 
BRANCH  20  21
ATOM     21  C   UNL     1      -2.800   3.066  24.147  0.00  0.00    +0.100 A 
ATOM     22  N   UNL     1      -2.329   3.645  24.498  0.00  0.00    -0.082 NA
ATOM     23  O   UNL     1      -1.546   3.388  24.470  0.00  0.00    -0.354 OA
ATOM     24  C   UNL     1      -1.533   2.650  24.102  0.00  0.00    +0.198 A 
ATOM     33  C   UNL     1      -2.307   2.451  23.902  0.00  0.00    +0.057 A 
BRANCH  24  25
ATOM     25  C   UNL     1      -0.862   2.191  23.959  0.00  0.00    +0.272 C 
BRANCH  25  26
ATOM     26  O   UNL     1      -0.699   1.538  24.436  0.00  0.00    -0.467 OA
BRANCH  26  27
ATOM     27  C   UNL     1      -0.282   0.896  24.128  0.00  0.00    +0.139 A 
ATOM     28  C   UNL     1      -0.526   0.126  24.297  0.00  0.00    +0.037 A 
ATOM     29  C   UNL     1      -0.110  -0.515  23.989  0.00  0.00    +0.003 A 
ATOM     30  C   UNL     1       0.551  -0.387  23.511  0.00  0.00    +0.000 A 
ATOM     31  C   UNL     1       0.795   0.383  23.343  0.00  0.00    +0.003 A 
ATOM     32  C   UNL     1       0.378   1.024  23.651  0.00  0.00    +0.037 A 
ENDBRANCH  26  27
ENDBRANCH  25  26
ENDBRANCH  24  25
ENDBRANCH  20  21
ENDBRANCH  19  20
TORSDOF 11
ENDMDL
MODEL 5
REMARK VINA RESULT:     -10.0      1.651      5.885
REMARK  Name = 
REMARK  11 active torsions:
REMARK  status: ('A' for Active; 'I' for Inactive)
REMARK    1  A    between atoms: O_2  and  C_3
REMARK    2  A    between atoms: C_4  and  O_5
REMARK    3  A    between atoms: C_8  and  C_9
REMARK    4  A    between atoms: C_9  and  N_10
REMARK    5  A    between atoms: C_11  and  C_13
REMARK    6  A    between atoms: C_13  and  C_14
REMARK    7  A    between atoms: C_19  and  C_20
REMARK    8  A    between atoms: C_20  and  C_21
REMARK    9  A    between atoms: C_24  and  C_25
REMARK   10  A    between atoms: C_25  and  O_26
REMARK   11  A    between atoms: O_26  and  C_27
REMARK                            x       y       z     vdW  Elec       q    Type
REMARK                         _______ _______ _______ _____ _____    ______ ____
ROOT
ATOM     14  C   UNL     1      -3.445  -1.368  24.725  0.00  0.00    +0.012 C 
ATOM     15  C   UNL     1      -3.970  -1.968  24.509  0.00  0.00    +0.019 C 
ATOM     16  C   UNL     1      -3.695  -2.737  24.398  0.00  0.00    +0.089 C 
ATOM     17  N   UNL     1      -2.894  -2.908  24.503  0.00  0.00    -0.218 NA
ATOM     18  C   UNL     1      -2.369  -2.310  24.718  0.00  0.00    +0.089 C 
ATOM     19  C   UNL     1      -2.644  -1.539  24.829  0.00  0.00    +0.024 C 
ENDROOT
BRANCH  14  13
ATOM     13  C   UNL     1      -3.720  -0.599  24.836  0.00  0.00    +0.087 C 
BRANCH  13  11
ATOM     10  N   UNL     1      -4.684   0.421  24.568  0.00  0.00    -0.201 NA
ATOM     11  C   UNL     1      -4.397  -0.342  24.441  0.00  0.00    +0.242 C 
ATOM     12  O   UNL     1      -4.786  -0.847  23.918  0.00  0.00    -0.273 OA
BRANCH  10   9
ATOM      9  C   UNL     1      -4.295   0.926  25.091  0.00  0.00    +0.142 C 
BRANCH   9   8
ATOM      3  C   UNL     1      -5.000   3.291  25.281  0.00  0.00    +0.172 A 
ATOM      4  C   UNL     1      -4.229   3.108  25.055  0.00  0.00    +0.172 A 
ATOM      7  C   UNL     1      -3.993   2.320  24.991  0.00  0.00    +0.037 A 
ATOM      8  C   UNL     1      -4.530   1.714  25.155  0.00  0.00    +0.003 A 
ATOM     34  C   UNL     1      -5.301   1.897  25.381  0.00  0.00    +0.001 A 
ATOM     35  C   UNL     1      -5.537   2.686  25.445  0.00  0.00    +0.040 A 
BRANCH   3   2
ATOM      1  C   UNL     1      -5.990   4.264  25.623  0.00  0.00    +0.253 C 
ATOM      2  O   UNL     1      -5.235   4.079  25.345  0.00  0.00    -0.468 OA
ENDBRANCH   3   2
BRANCH   4   5
ATOM      5  O   UNL     1      -3.692   3.713  24.891  0.00  0.00    -0.468 OA
ATOM      6  C   UNL     1      -2.895   3.537  24.772  0.00  0.00    +0.253 C 
ENDBRANCH   4   5
ENDBRANCH   9   8
ENDBRANCH  10   9
ENDBRANCH  13  11
ENDBRANCH  14  13
BRANCH  19  20
ATOM     20  C   UNL     1      -2.119  -0.941  25.044  0.00  0.00    +0.051 C 
BRANCH  20  21
ATOM     21  C   UNL     1      -1.313  -1.025  24.892  0.00  0.00    +0.100 A 
ATOM     22  N   UNL     1      -0.757  -1.370  25.394  0.00  0.00    -0.082 NA
ATOM     23  O   UNL     1      -0.022  -1.336  25.023  0.00  0.00    -0.354 OA
ATOM     24  C   UNL     1      -0.123  -0.971  24.290  0.00  0.00    +0.198 A 
ATOM     33  C   UNL     1      -0.920  -0.779  24.208  0.00  0.00    +0.057 A 
BRANCH  24  25
ATOM     25  C   UNL     1       0.471  -0.825  23.735  0.00  0.00    +0.272 C 
BRANCH  25  26
ATOM     26  O   UNL     1       0.638  -0.050  23.504  0.00  0.00    -0.467 OA
BRANCH  26  27
ATOM     27  C   UNL     1       1.347   0.122  23.121  0.00  0.00    +0.139 A 
ATOM     28  C   UNL     1       1.532  -0.251  22.408  0.00  0.00    +0.037 A 
ATOM     29  C   UNL     1       2.241  -0.079  22.025  0.00  0.00    +0.003 A 
ATOM     30  C   UNL     1       2.767   0.466  22.354  0.00  0.00    +0.000 A 
ATOM     31  C   UNL     1       2.583   0.838  23.067  0.00  0.00    +0.003 A 
ATOM     32  C   UNL     1       1.873   0.666  23.450  0.00  0.00    +0.037 A 
ENDBRANCH  26  27
ENDBRANCH  25  26
ENDBRANCH  24  25
ENDBRANCH  20  21
ENDBRANCH  19  20
TORSDOF 11
ENDMDL
MODEL 6
REMARK VINA RESULT:     -10.0      1.265      2.246
REMARK  Name = 
REMARK  11 active torsions:
REMARK  status: ('A' for Active; 'I' for Inactive)
REMARK    1  A    between atoms: O_2  and  C_3
REMARK    2  A    between atoms: C_4  and  O_5
REMARK    3  A    between atoms: C_8  and  C_9
REMARK    4  A    between atoms: C_9  and  N_10
REMARK    5  A    between atoms: C_11  and  C_13
REMARK    6  A    between atoms: C_13  and  C_14
REMARK    7  A    between atoms: C_19  and  C_20
REMARK    8  A    between atoms: C_20  and  C_21
REMARK    9  A    between atoms: C_24  and  C_25
REMARK   10  A    between atoms: C_25  and  O_26
REMARK   11  A    between atoms: O_26  and  C_27
REMARK                            x       y       z     vdW  Elec       q    Type
REMARK                         _______ _______ _______ _____ _____    ______ ____
ROOT
ATOM     14  C   UNL     1      -1.106   3.748  25.514  0.00  0.00    +0.012 C 
ATOM     15  C   UNL     1      -0.484   4.078  25.084  0.00  0.00    +0.019 C 
ATOM     16  C   UNL     1      -0.568   4.823  24.742  0.00  0.00    +0.089 C 
ATOM     17  N   UNL     1      -1.275   5.240  24.829  0.00  0.00    -0.218 NA
ATOM     18  C   UNL     1      -1.897   4.912  25.259  0.00  0.00    +0.089 C 
ATOM     19  C   UNL     1      -1.814   4.166  25.602  0.00  0.00    +0.024 C 
ENDROOT
BRANCH  14  13
ATOM     13  C   UNL     1      -1.023   3.003  25.856  0.00  0.00    +0.087 C 
BRANCH  13  11
ATOM     10  N   UNL     1      -0.180   1.859  25.702  0.00  0.00    -0.201 NA
ATOM     11  C   UNL     1      -0.277   2.653  25.904  0.00  0.00    +0.242 C 
ATOM     12  O   UNL     1       0.372   3.095  26.155  0.00  0.00    -0.273 OA
BRANCH  10   9
ATOM      9  C   UNL     1      -0.830   1.415  25.451  0.00  0.00    +0.142 C 
BRANCH   9   8
ATOM      3  C   UNL     1      -0.560  -0.993  24.949  0.00  0.00    +0.172 A 
ATOM      4  C   UNL     1      -0.295  -0.428  24.412  0.00  0.00    +0.172 A 
ATOM      7  C   UNL     1      -0.384   0.375  24.578  0.00  0.00    +0.037 A 
ATOM      8  C   UNL     1      -0.740   0.612  25.284  0.00  0.00    +0.003 A 
ATOM     34  C   UNL     1      -1.006   0.047  25.822  0.00  0.00    +0.001 A 
ATOM     35  C   UNL     1      -0.916  -0.756  25.655  0.00  0.00    +0.040 A 
BRANCH   3   2
ATOM      1  C   UNL     1      -1.001  -2.345  25.095  0.00  0.00    +0.253 C 
ATOM      2  O   UNL     1      -0.471  -1.796  24.782  0.00  0.00    -0.468 OA
ENDBRANCH   3   2
BRANCH   4   5
ATOM      5  O   UNL     1       0.062  -0.665  23.705  0.00  0.00    -0.468 OA
ATOM      6  C   UNL     1       0.487  -0.121  23.254  0.00  0.00    +0.253 C 
ENDBRANCH   4   5
ENDBRANCH   9   8
ENDBRANCH  10   9
ENDBRANCH  13  11
ENDBRANCH  14  13
BRANCH  19  20
ATOM     20  C   UNL     1      -2.435   3.837  26.032  0.00  0.00    +0.051 C 
BRANCH  20  21
ATOM     21  C   UNL     1      -3.118   3.585  25.643  0.00  0.00    +0.100 A 
ATOM     22  N   UNL     1      -3.676   4.071  25.279  0.00  0.00    -0.082 NA
ATOM     23  O   UNL     1      -4.265   3.590  24.961  0.00  0.00    -0.354 OA
ATOM     24  C   UNL     1      -4.070   2.805  25.127  0.00  0.00    +0.198 A 
ATOM     33  C   UNL     1      -3.362   2.802  25.549  0.00  0.00    +0.057 A 
BRANCH  24  25
ATOM     25  C   UNL     1      -4.509   2.140  24.910  0.00  0.00    +0.272 C 
BRANCH  25  26
ATOM     26  O   UNL     1      -4.297   1.707  24.240  0.00  0.00    -0.467 OA
BRANCH  26  27
ATOM     27  C   UNL     1      -4.302   0.883  24.264  0.00  0.00    +0.139 A 
ATOM     28  C   UNL     1      -4.672   0.491  24.889  0.00  0.00    +0.037 A 
ATOM     29  C   UNL     1      -4.677  -0.333  24.913  0.00  0.00    +0.003 A 
ATOM     30  C   UNL     1      -4.313  -0.766  24.311  0.00  0.00    +0.000 A 
ATOM     31  C   UNL     1      -3.944  -0.374  23.687  0.00  0.00    +0.003 A 
ATOM     32  C   UNL     1      -3.939   0.451  23.663  0.00  0.00    +0.037 A 
ENDBRANCH  26  27
ENDBRANCH  25  26
ENDBRANCH  24  25
ENDBRANCH  20  21
ENDBRANCH  19  20
TORSDOF 11
ENDMDL
MODEL 7
REMARK VINA RESULT:      -9.9      1.839      6.278
REMARK  Name = 
REMARK  11 active torsions:
REMARK  status: ('A' for Active; 'I' for Inactive)
REMARK    1  A    between atoms: O_2  and  C_3
REMARK    2  A    between atoms: C_4  and  O_5
REMARK    3  A    between atoms: C_8  and  C_9
REMARK    4  A    between atoms: C_9  and  N_10
REMARK    5  A    between atoms: C_11  and  C_13
REMARK    6  A    between atoms: C_13  and  C_14
REMARK    7  A    between atoms: C_19  and  C_20
REMARK    8  A    between atoms: C_20  and  C_21
REMARK    9  A    between atoms: C_24  and  C_25
REMARK   10  A    between atoms: C_25  and  O_26
REMARK   11  A    between atoms: O_26  and  C_27
REMARK                            x       y       z     vdW  Elec       q    Type
REMARK                         _______ _______ _______ _____ _____    ______ ____
ROOT
ATOM     14  C   UNL     1      -1.367  -0.355  24.580  0.00  0.00    +0.012 C 
ATOM     15  C   UNL     1      -1.630  -0.942  25.097  0.00  0.00    +0.019 C 
ATOM     16  C   UNL     1      -1.113  -1.531  25.351  0.00  0.00    +0.089 C 
ATOM     17  N   UNL     1      -0.330  -1.535  25.088  0.00  0.00    -0.218 NA
ATOM     18  C   UNL     1      -0.066  -0.949  24.571  0.00  0.00    +0.089 C 
ATOM     19  C   UNL     1      -0.584  -0.359  24.317  0.00  0.00    +0.024 C 
ENDROOT
BRANCH  14  13
ATOM     13  C   UNL     1      -1.884   0.234  24.326  0.00  0.00    +0.087 C 
BRANCH  13  11
ATOM     10  N   UNL     1      -3.213   0.743  24.463  0.00  0.00    -0.201 NA
ATOM     11  C   UNL     1      -2.699   0.107  24.353  0.00  0.00    +0.242 C 
ATOM     12  O   UNL     1      -3.001  -0.656  24.269  0.00  0.00    -0.273 OA
BRANCH  10   9
ATOM      9  C   UNL     1      -2.911   1.507  24.546  0.00  0.00    +0.142 C 
BRANCH   9   8
ATOM      3  C   UNL     1      -4.399   3.355  25.247  0.00  0.00    +0.172 A 
ATOM      4  C   UNL     1      -3.587   3.411  25.373  0.00  0.00    +0.172 A 
ATOM      7  C   UNL     1      -3.090   2.795  25.139  0.00  0.00    +0.037 A 
ATOM      8  C   UNL     1      -3.408   2.123  24.780  0.00  0.00    +0.003 A 
ATOM     34  C   UNL     1      -4.220   2.067  24.654  0.00  0.00    +0.001 A 
ATOM     35  C   UNL     1      -4.717   2.684  24.888  0.00  0.00    +0.040 A 
BRANCH   3   2
ATOM      1  C   UNL     1      -5.711   3.851  25.525  0.00  0.00    +0.253 C 
ATOM      2  O   UNL     1      -4.896   3.972  25.481  0.00  0.00    -0.468 OA
ENDBRANCH   3   2
BRANCH   4   5
ATOM      5  O   UNL     1      -3.269   4.083  25.732  0.00  0.00    -0.468 OA
ATOM      6  C   UNL     1      -2.455   4.140  25.854  0.00  0.00    +0.253 C 
ENDBRANCH   4   5
ENDBRANCH   9   8
ENDBRANCH  10   9
ENDBRANCH  13  11
ENDBRANCH  14  13
BRANCH  19  20
ATOM     20  C   UNL     1      -0.320   0.227  23.800  0.00  0.00    +0.051 C 
BRANCH  20  21
ATOM     21  C   UNL     1       0.376   0.116  23.372  0.00  0.00    +0.100 A 
ATOM     22  N   UNL     1       0.455  -0.331  22.683  0.00  0.00    -0.082 NA
ATOM     23  O   UNL     1       1.243  -0.290  22.443  0.00  0.00    -0.354 OA
ATOM     24  C   UNL     1       1.650   0.182  22.982  0.00  0.00    +0.198 A 
ATOM     33  C   UNL     1       1.115   0.434  23.556  0.00  0.00    +0.057 A 
BRANCH  24  25
ATOM     25  C   UNL     1       2.454   0.370  22.952  0.00  0.00    +0.272 C 
BRANCH  25  26
ATOM     26  O   UNL     1       3.016  -0.231  22.882  0.00  0.00    -0.467 OA
BRANCH  26  27
ATOM     27  C   UNL     1       3.798  -0.091  23.103  0.00  0.00    +0.139 A 
ATOM     28  C   UNL     1       4.156   0.630  22.920  0.00  0.00    +0.037 A 
ATOM     29  C   UNL     1       4.938   0.769  23.142  0.00  0.00    +0.003 A 
ATOM     30  C   UNL     1       5.362   0.189  23.547  0.00  0.00    +0.000 A 
ATOM     31  C   UNL     1       5.004  -0.532  23.730  0.00  0.00    +0.003 A 
ATOM     32  C   UNL     1       4.222  -0.671  23.508  0.00  0.00    +0.037 A 
ENDBRANCH  26  27
ENDBRANCH  25  26
ENDBRANCH  24  25
ENDBRANCH  20  21
ENDBRANCH  19  20
TORSDOF 11
ENDMDL
MODEL 8
REMARK VINA RESULT:      -9.9      1.266      1.890
REMARK  Name = 
REMARK  11 active torsions:
REMARK  status: ('A' for Active; 'I' for Inactive)
REMARK    1  A    between atoms: O_2  and  C_3
REMARK    2  A    between atoms: C_4  and  O_5
REMARK    3  A    between atoms: C_8  and  C_9
REMARK    4  A    between atoms: C_9  and  N_10
REMARK    5  A    between atoms: C_11  and  C_13
REMARK    6  A    between atoms: C_13  and  C_14
REMARK    7  A    between atoms: C_19  and  C_20
REMARK    8  A    between atoms: C_20  and  C_21
REMARK    9  A    between atoms: C_24  and  C_25
REMARK   10  A    between atoms: C_25  and  O_26
REMARK   11  A    between atoms: O_26  and  C_27
REMARK                            x       y       z     vdW  Elec       q    Type
REMARK                         _______ _______ _______ _____ _____    ______ ____
ROOT
ATOM     14  C   UNL     1      -4.313   3.234  25.030  0.00  0.00    +0.012 C 
ATOM     15  C   UNL     1      -4.357   3.866  25.559  0.00  0.00    +0.019 C 
ATOM     16  C   UNL     1      -5.025   3.963  26.032  0.00  0.00    +0.089 C 
ATOM     17  N   UNL     1      -5.651   3.426  25.978  0.00  0.00    -0.218 NA
ATOM     18  C   UNL     1      -5.607   2.794  25.450  0.00  0.00    +0.089 C 
ATOM     19  C   UNL     1      -4.939   2.697  24.976  0.00  0.00    +0.024 C 
ENDROOT
BRANCH  14  13
ATOM     13  C   UNL     1      -3.646   3.137  24.557  0.00  0.00    +0.087 C 
BRANCH  13  11
ATOM     10  N   UNL     1      -2.255   3.463  24.601  0.00  0.00    -0.201 NA
ATOM     11  C   UNL     1      -3.044   3.702  24.572  0.00  0.00    +0.242 C 
ATOM     12  O   UNL     1      -3.231   4.505  24.559  0.00  0.00    -0.273 OA
BRANCH  10   9
ATOM      9  C   UNL     1      -2.067   2.659  24.614  0.00  0.00    +0.142 C 
BRANCH   9   8
ATOM      3  C   UNL     1       0.295   1.940  24.450  0.00  0.00    +0.172 A 
ATOM      4  C   UNL     1       0.015   2.281  25.146  0.00  0.00    +0.172 A 
ATOM      7  C   UNL     1      -0.772   2.522  25.201  0.00  0.00    +0.037 A 
ATOM      8  C   UNL     1      -1.280   2.419  24.559  0.00  0.00    +0.003 A 
ATOM     34  C   UNL     1      -1.001   2.078  23.863  0.00  0.00    +0.001 A 
ATOM     35  C   UNL     1      -0.213   1.837  23.808  0.00  0.00    +0.040 A 
BRANCH   3   2
ATOM      1  C   UNL     1       1.340   1.275  23.737  0.00  0.00    +0.253 C 
ATOM      2  O   UNL     1       1.083   1.700  24.396  0.00  0.00    -0.468 OA
ENDBRANCH   3   2
BRANCH   4   5
ATOM      5  O   UNL     1       0.523   2.384  25.789  0.00  0.00    -0.468 OA
ATOM      6  C   UNL     1       0.214   2.514  26.543  0.00  0.00    +0.253 C 
ENDBRANCH   4   5
ENDBRANCH   9   8
ENDBRANCH  10   9
ENDBRANCH  13  11
ENDBRANCH  14  13
BRANCH  19  20
ATOM     20  C   UNL     1      -4.895   2.065  24.448  0.00  0.00    +0.051 C 
BRANCH  20  21
ATOM     21  C   UNL     1      -4.858   1.292  24.733  0.00  0.00    +0.100 A 
ATOM     22  N   UNL     1      -5.248   1.001  25.399  0.00  0.00    -0.082 NA
ATOM     23  O   UNL     1      -5.055   0.204  25.480  0.00  0.00    -0.354 OA
ATOM     24  C   UNL     1      -4.545   0.001  24.863  0.00  0.00    +0.198 A 
ATOM     33  C   UNL     1      -4.423   0.674  24.402  0.00  0.00    +0.057 A 
BRANCH  24  25
ATOM     25  C   UNL     1      -4.215  -0.744  24.732  0.00  0.00    +0.272 C 
BRANCH  25  26
ATOM     26  O   UNL     1      -3.642  -1.039  25.248  0.00  0.00    -0.467 OA
BRANCH  26  27
ATOM     27  C   UNL     1      -3.125  -1.629  24.995  0.00  0.00    +0.139 A 
ATOM     28  C   UNL     1      -2.324  -1.458  24.892  0.00  0.00    +0.037 A 
ATOM     29  C   UNL     1      -1.806  -2.048  24.639  0.00  0.00    +0.003 A 
ATOM     30  C   UNL     1      -2.089  -2.809  24.489  0.00  0.00    +0.000 A 
ATOM     31  C   UNL     1      -2.889  -2.979  24.593  0.00  0.00    +0.003 A 
ATOM     32  C   UNL     1      -3.407  -2.389  24.846  0.00  0.00    +0.037 A 
ENDBRANCH  26  27
ENDBRANCH  25  26
ENDBRANCH  24  25
ENDBRANCH  20  21
ENDBRANCH  19  20
TORSDOF 11
ENDMDL
MODEL 9
REMARK VINA RESULT:      -9.9      1.888      4.312
REMARK  Name = 
REMARK  11 active torsions:
REMARK  status: ('A' for Active; 'I' for Inactive)
REMARK    1  A    between atoms: O_2  and  C_3
REMARK    2  A    between atoms: C_4  and  O_5
REMARK    3  A    between atoms: C_8  and  C_9
REMARK    4  A    between atoms: C_9  and  N_10
REMARK    5  A    between atoms: C_11  and  C_13
REMARK    6  A    between atoms: C_13  and  C_14
REMARK    7  A    between atoms: C_19  and  C_20
REMARK    8  A    between atoms: C_20  and  C_21
REMARK    9  A    between atoms: C_24  and  C_25
REMARK   10  A    between atoms: C_25  and  O_26
REMARK   11  A    between atoms: O_26  and  C_27
REMARK                            x       y       z     vdW  Elec       q    Type
REMARK                         _______ _______ _______ _____ _____    ______ ____
ROOT
ATOM     14  C   UNL     1      -2.000  -1.633  25.063  0.00  0.00    +0.012 C 
ATOM     15  C   UNL     1      -1.523  -2.121  24.600  0.00  0.00    +0.019 C 
ATOM     16  C   UNL     1      -1.855  -2.752  24.186  0.00  0.00    +0.089 C 
ATOM     17  N   UNL     1      -2.667  -2.895  24.234  0.00  0.00    -0.218 NA
ATOM     18  C   UNL     1      -3.145  -2.408  24.697  0.00  0.00    +0.089 C 
ATOM     19  C   UNL     1      -2.812  -1.777  25.112  0.00  0.00    +0.024 C 
ENDROOT
BRANCH  14  13
ATOM     13  C   UNL     1      -1.668  -1.003  25.477  0.00  0.00    +0.087 C 
BRANCH  13  11
ATOM     10  N   UNL     1      -0.626  -0.029  25.381  0.00  0.00    -0.201 NA
ATOM     11  C   UNL     1      -0.870  -0.817  25.375  0.00  0.00    +0.242 C 
ATOM     12  O   UNL     1      -0.317  -1.419  25.266  0.00  0.00    -0.273 OA
BRANCH  10   9
ATOM      9  C   UNL     1      -1.180   0.573  25.490  0.00  0.00    +0.142 C 
BRANCH   9   8
ATOM      3  C   UNL     1      -0.657   2.878  24.755  0.00  0.00    +0.172 A 
ATOM      4  C   UNL     1      -1.012   2.349  24.232  0.00  0.00    +0.172 A 
ATOM      7  C   UNL     1      -1.186   1.581  24.476  0.00  0.00    +0.037 A 
ATOM      8  C   UNL     1      -1.005   1.342  25.245  0.00  0.00    +0.003 A 
ATOM     34  C   UNL     1      -0.650   1.870  25.769  0.00  0.00    +0.001 A 
ATOM     35  C   UNL     1      -0.476   2.639  25.524  0.00  0.00    +0.040 A 
BRANCH   3   2
ATOM      1  C   UNL     1      -0.603   4.281  25.025  0.00  0.00    +0.253 C 
ATOM      2  O   UNL     1      -0.482   3.647  24.511  0.00  0.00    -0.468 OA
ENDBRANCH   3   2
BRANCH   4   5
ATOM      5  O   UNL     1      -1.193   2.588  23.463  0.00  0.00    -0.468 OA
ATOM      6  C   UNL     1      -1.635   2.096  22.971  0.00  0.00    +0.253 C 
ENDBRANCH   4   5
ENDBRANCH   9   8
ENDBRANCH  10   9
ENDBRANCH  13  11
ENDBRANCH  14  13
BRANCH  19  20
ATOM     20  C   UNL     1      -3.290  -1.289  25.574  0.00  0.00    +0.051 C 
BRANCH  20  21
ATOM     21  C   UNL     1      -3.864  -0.816  25.218  0.00  0.00    +0.100 A 
ATOM     22  N   UNL     1      -4.281  -0.994  24.530  0.00  0.00    -0.082 NA
ATOM     23  O   UNL     1      -4.796  -0.370  24.374  0.00  0.00    -0.354 OA
ATOM     24  C   UNL     1      -4.697   0.196  24.967  0.00  0.00    +0.198 A 
ATOM     33  C   UNL     1      -4.121  -0.079  25.488  0.00  0.00    +0.057 A 
BRANCH  24  25
ATOM     25  C   UNL     1      -5.104   0.912  25.026  0.00  0.00    +0.272 C 
BRANCH  25  26
ATOM     26  O   UNL     1      -4.822   1.580  24.632  0.00  0.00    -0.467 OA
BRANCH  26  27
ATOM     27  C   UNL     1      -4.977   2.332  24.934  0.00  0.00    +0.139 A 
ATOM     28  C   UNL     1      -4.429   2.940  24.829  0.00  0.00    +0.037 A 
ATOM     29  C   UNL     1      -4.584   3.691  25.131  0.00  0.00    +0.003 A 
ATOM     30  C   UNL     1      -5.287   3.836  25.538  0.00  0.00    +0.000 A 
ATOM     31  C   UNL     1      -5.835   3.228  25.643  0.00  0.00    +0.003 A 
ATOM     32  C   UNL     1      -5.680   2.477  25.341  0.00  0.00    +0.037 A 
ENDBRANCH  26  27
ENDBRANCH  25  26
ENDBRANCH  24  25
ENDBRANCH  20  21
ENDBRANCH  19  20
TORSDOF 11
ENDMDL
MODEL 10
REMARK VINA RESULT:      -8.8     15.054     18.138
REMARK  Name = 
REMARK  11 active torsions:
REMARK  status: ('A' for Active; 'I' for Inactive)
REMARK    1  A    between atoms: O_2  and  C_3
REMARK    2  A    between atoms: C_4  and  O_5
REMARK    3  A    between atoms: C_8  and  C_9
REMARK    4  A    between atoms: C_9  and  N_10
REMARK    5  A    between atoms: C_11  and  C_13
REMARK    6  A    between atoms: C_13  and  C_14
REMARK    7  A    between atoms: C_19  and  C_20
REMARK    8  A    between atoms: C_20  and  C_21
REMARK    9  A    between atoms: C_24  and  C_25
REMARK   10  A    between atoms: C_25  and  O_26
REMARK   11  A    between atoms: O_26  and  C_27
REMARK                            x       y       z     vdW  Elec       q    Type
REMARK                         _______ _______ _______ _____ _____    ______ ____
ROOT
ATOM     14  C   UNL     1      11.672   8.841  17.064  0.00  0.00    +0.012 C 
ATOM     15  C   UNL     1      11.033   8.850  16.541  0.00  0.00    +0.019 C 
ATOM     16  C   UNL     1      11.166   8.906  15.730  0.00  0.00    +0.089 C 
ATOM     17  N   UNL     1      11.937   8.954  15.439  0.00  0.00    -0.218 NA
ATOM     18  C   UNL     1      12.575   8.946  15.962  0.00  0.00    +0.089 C 
ATOM     19  C   UNL     1      12.443   8.889  16.774  0.00  0.00    +0.024 C 
ENDROOT
BRANCH  14  13
ATOM     13  C   UNL     1      11.539   8.785  17.876  0.00  0.00    +0.087 C 
BRANCH  13  11
ATOM     10  N   UNL     1      10.647   8.556  18.969  0.00  0.00    -0.201 NA
ATOM     11  C   UNL     1      10.773   8.675  18.163  0.00  0.00    +0.242 C 
ATOM     12  O   UNL     1      10.133   8.685  17.643  0.00  0.00    -0.273 OA
BRANCH  10   9
ATOM      9  C   UNL     1      11.288   8.546  19.489  0.00  0.00    +0.142 C 
BRANCH   9   8
ATOM      3  C   UNL     1      10.906   8.223  21.913  0.00  0.00    +0.172 A 
ATOM      4  C   UNL     1      11.108   7.580  21.438  0.00  0.00    +0.172 A 
ATOM      7  C   UNL     1      11.236   7.687  20.630  0.00  0.00    +0.037 A 
ATOM      8  C   UNL     1      11.161   8.439  20.297  0.00  0.00    +0.003 A 
ATOM     34  C   UNL     1      10.959   9.082  20.772  0.00  0.00    +0.001 A 
ATOM     35  C   UNL     1      10.831   8.974  21.581  0.00  0.00    +0.040 A 
BRANCH   3   2
ATOM      1  C   UNL     1      10.572   8.758  23.196  0.00  0.00    +0.253 C 
ATOM      2  O   UNL     1      10.779   8.115  22.721  0.00  0.00    -0.468 OA
ENDBRANCH   3   2
BRANCH   4   5
ATOM      5  O   UNL     1      11.183   6.828  21.771  0.00  0.00    -0.468 OA
ATOM      6  C   UNL     1      11.259   6.167  21.284  0.00  0.00    +0.253 C 
ENDBRANCH   4   5
ENDBRANCH   9   8
ENDBRANCH  10   9
ENDBRANCH  13  11
ENDBRANCH  14  13
BRANCH  19  20
ATOM     20  C   UNL     1      13.081   8.880  17.296  0.00  0.00    +0.051 C 
BRANCH  20  21
ATOM     21  C   UNL     1      13.648   8.283  17.245  0.00  0.00    +0.100 A 
ATOM     22  N   UNL     1      13.691   7.705  16.659  0.00  0.00    -0.082 NA
ATOM     23  O   UNL     1      14.341   7.224  16.823  0.00  0.00    -0.354 OA
ATOM     24  C   UNL     1      14.699   7.505  17.511  0.00  0.00    +0.198 A 
ATOM     33  C   UNL     1      14.271   8.159  17.772  0.00  0.00    +0.057 A 
BRANCH  24  25
ATOM     25  C   UNL     1      15.368   7.186  17.875  0.00  0.00    +0.272 C 
BRANCH  25  26
ATOM     26  O   UNL     1      15.289   6.725  18.555  0.00  0.00    -0.467 OA
BRANCH  26  27
ATOM     27  C   UNL     1      15.955   6.531  19.001  0.00  0.00    +0.139 A 
ATOM     28  C   UNL     1      16.483   5.961  18.725  0.00  0.00    +0.037 A 
ATOM     29  C   UNL     1      17.149   5.766  19.171  0.00  0.00    +0.003 A 
ATOM     30  C   UNL     1      17.287   6.142  19.893  0.00  0.00    +0.000 A 
ATOM     31  C   UNL     1      16.758   6.713  20.168  0.00  0.00    +0.003 A 
ATOM     32  C   UNL     1      16.092   6.907  19.722  0.00  0.00    +0.037 A 
ENDBRANCH  26  27
ENDBRANCH  25  26
ENDBRANCH  24  25
ENDBRANCH  20  21
ENDBRANCH  19  20
TORSDOF 11
ENDMDL
