MODEL 1
REMARK VINA RESULT:     -12.7      0.000      0.000
REMARK  Name = 
REMARK  6 active torsions:
REMARK  status: ('A' for Active; 'I' for Inactive)
REMARK    1  A    between atoms: C_5  and  C_6
REMARK    2  A    between atoms: C_6  and  N_7
REMARK    3  A    between atoms: C_11  and  C_12
REMARK    4  A    between atoms: C_14  and  C_17
REMARK    5  A    between atoms: C_21  and  N_23
REMARK    6  A    between atoms: C_26  and  C_29
REMARK                            x       y       z     vdW  Elec       q    Type
REMARK                         _______ _______ _______ _____ _____    ______ ____
ROOT
ATOM     12  C   UNL     1      -0.041   1.412  24.534  0.00  0.00    +0.251 A 
ATOM     13  N   UNL     1      -0.631   1.975  24.406  0.00  0.00    -0.190 NA
ATOM     14  C   UNL     1      -0.529   2.581  24.956  0.00  0.00    +0.203 A 
ATOM     15  N   UNL     1       0.124   2.393  25.424  0.00  0.00    -0.056 NA
ATOM     16  O   UNL     1       0.425   1.671  25.163  0.00  0.00    -0.336 OA
ENDROOT
BRANCH  14  17
ATOM     17  C   UNL     1      -0.997   3.257  25.026  0.00  0.00    +0.043 A 
ATOM     18  C   UNL     1      -0.648   4.004  25.003  0.00  0.00    +0.024 A 
ATOM     19  C   UNL     1      -1.115   4.680  25.073  0.00  0.00    +0.100 A 
ATOM     20  N   UNL     1      -1.931   4.609  25.167  0.00  0.00    -0.229 NA
ATOM     21  C   UNL     1      -2.281   3.863  25.190  0.00  0.00    +0.132 A 
ATOM     22  C   UNL     1      -1.814   3.186  25.120  0.00  0.00    +0.037 A 
BRANCH  21  23
ATOM     23  N   UNL     1      -3.098   3.792  25.284  0.00  0.00    -0.293 N 
ATOM     24  C   UNL     1      -3.577   3.650  24.628  0.00  0.00    +0.093 C 
ATOM     25  C   UNL     1      -4.393   3.579  24.722  0.00  0.00    +0.031 C 
ATOM     26  C   UNL     1      -4.731   3.651  25.471  0.00  0.00    +0.083 C 
ATOM     27  C   UNL     1      -4.251   3.793  26.127  0.00  0.00    +0.031 C 
ATOM     28  C   UNL     1      -3.434   3.864  26.034  0.00  0.00    +0.093 C 
BRANCH  26  29
ATOM     29  C   UNL     1      -5.547   3.580  25.565  0.00  0.00    +0.260 C 
ATOM     30  N   UNL     1      -5.906   2.839  25.512  0.00  0.00    -0.088 NA
ATOM     31  O   UNL     1      -6.005   4.251  25.711  0.00  0.00    -0.272 OA
ENDBRANCH  26  29
ENDBRANCH  21  23
ENDBRANCH  14  17
BRANCH  12  11
ATOM      7  N   UNL     1      -0.291  -0.013  24.272  0.00  0.00    -0.263 NA
ATOM      8  C   UNL     1      -0.031  -0.556  23.709  0.00  0.00    +0.073 C 
ATOM      9  C   UNL     1       0.485  -0.165  23.196  0.00  0.00    +0.019 C 
ATOM     10  C   UNL     1       0.543   0.620  23.443  0.00  0.00    +0.027 C 
ATOM     11  C   UNL     1       0.064   0.714  24.108  0.00  0.00    +0.138 C 
BRANCH   7   6
ATOM      6  C   UNL     1      -0.813  -0.169  24.890  0.00  0.00    +0.099 C 
BRANCH   6   5
ATOM      1  C   UNL     1      -3.007  -2.619  24.623  0.00  0.00    +0.031 C 
ATOM      2  C   UNL     1      -2.458  -2.007  24.690  0.00  0.00    -0.022 A 
ATOM      3  C   UNL     1      -2.688  -1.229  24.538  0.00  0.00    -0.005 A 
ATOM      4  C   UNL     1      -2.140  -0.616  24.605  0.00  0.00    -0.003 A 
ATOM      5  C   UNL     1      -1.361  -0.782  24.824  0.00  0.00    -0.006 A 
ATOM     32  C   UNL     1      -1.131  -1.559  24.976  0.00  0.00    -0.003 A 
ATOM     33  C   UNL     1      -1.681  -2.171  24.909  0.00  0.00    -0.005 A 
ENDBRANCH   6   5
ENDBRANCH   7   6
ENDBRANCH  12  11
TORSDOF 6
ENDMDL
MODEL 2
REMARK VINA RESULT:     -12.4      1.435      4.895
REMARK  Name = 
REMARK  6 active torsions:
REMARK  status: ('A' for Active; 'I' for Inactive)
REMARK    1  A    between atoms: C_5  and  C_6
REMARK    2  A    between atoms: C_6  and  N_7
REMARK    3  A    between atoms: C_11  and  C_12
REMARK    4  A    between atoms: C_14  and  C_17
REMARK    5  A    between atoms: C_21  and  N_23
REMARK    6  A    between atoms: C_26  and  C_29
REMARK                            x       y       z     vdW  Elec       q    Type
REMARK                         _______ _______ _______ _____ _____    ______ ____
ROOT
ATOM     12  C   UNL     1      -0.573   3.045  25.134  0.00  0.00    +0.251 A 
ATOM     13  N   UNL     1      -0.749   2.405  24.644  0.00  0.00    -0.190 NA
ATOM     14  C   UNL     1      -0.242   1.786  24.841  0.00  0.00    +0.203 A 
ATOM     15  N   UNL     1       0.248   2.043  25.453  0.00  0.00    -0.056 NA
ATOM     16  O   UNL     1       0.044   2.821  25.634  0.00  0.00    -0.336 OA
ENDROOT
BRANCH  14  17
ATOM     17  C   UNL     1      -0.226   1.040  24.488  0.00  0.00    +0.043 A 
ATOM     18  C   UNL     1       0.391   0.837  23.979  0.00  0.00    +0.024 A 
ATOM     19  C   UNL     1       0.408   0.092  23.627  0.00  0.00    +0.100 A 
ATOM     20  N   UNL     1      -0.193  -0.451  23.783  0.00  0.00    -0.229 NA
ATOM     21  C   UNL     1      -0.810  -0.250  24.292  0.00  0.00    +0.132 A 
ATOM     22  C   UNL     1      -0.827   0.496  24.645  0.00  0.00    +0.037 A 
BRANCH  21  23
ATOM     23  N   UNL     1      -1.411  -0.793  24.448  0.00  0.00    -0.293 N 
ATOM     24  C   UNL     1      -1.221  -1.574  24.635  0.00  0.00    +0.093 C 
ATOM     25  C   UNL     1      -1.822  -2.118  24.791  0.00  0.00    +0.031 C 
ATOM     26  C   UNL     1      -2.611  -1.881  24.761  0.00  0.00    +0.083 C 
ATOM     27  C   UNL     1      -2.801  -1.099  24.575  0.00  0.00    +0.031 C 
ATOM     28  C   UNL     1      -2.200  -0.555  24.418  0.00  0.00    +0.093 C 
BRANCH  26  29
ATOM     29  C   UNL     1      -3.212  -2.424  24.917  0.00  0.00    +0.260 C 
ATOM     30  N   UNL     1      -3.538  -2.867  24.302  0.00  0.00    -0.088 NA
ATOM     31  O   UNL     1      -3.486  -2.524  25.689  0.00  0.00    -0.272 OA
ENDBRANCH  26  29
ENDBRANCH  21  23
ENDBRANCH  14  17
BRANCH  12  11
ATOM      7  N   UNL     1      -1.714   3.938  25.387  0.00  0.00    -0.263 NA
ATOM      8  C   UNL     1      -1.860   4.742  25.277  0.00  0.00    +0.073 C 
ATOM      9  C   UNL     1      -1.183   5.082  24.948  0.00  0.00    +0.019 C 
ATOM     10  C   UNL     1      -0.619   4.487  24.854  0.00  0.00    +0.027 C 
ATOM     11  C   UNL     1      -0.947   3.780  25.126  0.00  0.00    +0.138 C 
BRANCH   7   6
ATOM      6  C   UNL     1      -2.240   3.388  25.703  0.00  0.00    +0.099 C 
BRANCH   6   5
ATOM      1  C   UNL     1      -5.493   3.862  25.412  0.00  0.00    +0.031 C 
ATOM      2  C   UNL     1      -4.680   3.744  25.485  0.00  0.00    -0.022 A 
ATOM      3  C   UNL     1      -4.267   3.342  24.895  0.00  0.00    -0.005 A 
ATOM      4  C   UNL     1      -3.454   3.223  24.967  0.00  0.00    -0.003 A 
ATOM      5  C   UNL     1      -3.053   3.507  25.630  0.00  0.00    -0.006 A 
ATOM     32  C   UNL     1      -3.466   3.909  26.221  0.00  0.00    -0.003 A 
ATOM     33  C   UNL     1      -4.280   4.028  26.147  0.00  0.00    -0.005 A 
ENDBRANCH   6   5
ENDBRANCH   7   6
ENDBRANCH  12  11
TORSDOF 6
ENDMDL
MODEL 3
REMARK VINA RESULT:     -11.7      1.842      4.662
REMARK  Name = 
REMARK  6 active torsions:
REMARK  status: ('A' for Active; 'I' for Inactive)
REMARK    1  A    between atoms: C_5  and  C_6
REMARK    2  A    between atoms: C_6  and  N_7
REMARK    3  A    between atoms: C_11  and  C_12
REMARK    4  A    between atoms: C_14  and  C_17
REMARK    5  A    between atoms: C_21  and  N_23
REMARK    6  A    between atoms: C_26  and  C_29
REMARK                            x       y       z     vdW  Elec       q    Type
REMARK                         _______ _______ _______ _____ _____    ______ ____
ROOT
ATOM     12  C   UNL     1      -2.991   3.883  25.539  0.00  0.00    +0.251 A 
ATOM     13  N   UNL     1      -3.314   3.232  25.147  0.00  0.00    -0.190 NA
ATOM     14  C   UNL     1      -4.037   3.053  25.500  0.00  0.00    +0.203 A 
ATOM     15  N   UNL     1      -4.162   3.593  26.112  0.00  0.00    -0.056 NA
ATOM     16  O   UNL     1      -3.516   4.105  26.136  0.00  0.00    -0.336 OA
ENDROOT
BRANCH  14  17
ATOM     17  C   UNL     1      -4.546   2.442  25.281  0.00  0.00    +0.043 A 
ATOM     18  C   UNL     1      -5.353   2.590  25.195  0.00  0.00    +0.024 A 
ATOM     19  C   UNL     1      -5.863   1.980  24.976  0.00  0.00    +0.100 A 
ATOM     20  N   UNL     1      -5.566   1.222  24.844  0.00  0.00    -0.229 NA
ATOM     21  C   UNL     1      -4.760   1.073  24.931  0.00  0.00    +0.132 A 
ATOM     22  C   UNL     1      -4.249   1.684  25.149  0.00  0.00    +0.037 A 
BRANCH  21  23
ATOM     23  N   UNL     1      -4.463   0.315  24.799  0.00  0.00    -0.293 N 
ATOM     24  C   UNL     1      -4.377   0.034  24.028  0.00  0.00    +0.093 C 
ATOM     25  C   UNL     1      -4.080  -0.724  23.897  0.00  0.00    +0.031 C 
ATOM     26  C   UNL     1      -3.869  -1.202  24.535  0.00  0.00    +0.083 C 
ATOM     27  C   UNL     1      -3.955  -0.921  25.306  0.00  0.00    +0.031 C 
ATOM     28  C   UNL     1      -4.252  -0.162  25.438  0.00  0.00    +0.093 C 
BRANCH  26  29
ATOM     29  C   UNL     1      -3.573  -1.960  24.403  0.00  0.00    +0.260 C 
ATOM     30  N   UNL     1      -2.793  -2.139  24.607  0.00  0.00    -0.088 NA
ATOM     31  O   UNL     1      -4.055  -2.539  24.068  0.00  0.00    -0.272 OA
ENDBRANCH  26  29
ENDBRANCH  21  23
ENDBRANCH  14  17
BRANCH  12  11
ATOM      7  N   UNL     1      -1.529   3.887  25.383  0.00  0.00    -0.263 NA
ATOM      8  C   UNL     1      -0.967   4.453  25.174  0.00  0.00    +0.073 C 
ATOM      9  C   UNL     1      -1.362   5.163  25.028  0.00  0.00    +0.019 C 
ATOM     10  C   UNL     1      -2.169   5.035  25.147  0.00  0.00    +0.027 C 
ATOM     11  C   UNL     1      -2.272   4.246  25.367  0.00  0.00    +0.138 C 
BRANCH   7   6
ATOM      6  C   UNL     1      -1.376   3.100  25.575  0.00  0.00    +0.099 C 
BRANCH   6   5
ATOM      1  C   UNL     1       1.041   1.463  24.036  0.00  0.00    +0.031 C 
ATOM      2  C   UNL     1       0.436   1.873  24.420  0.00  0.00    -0.022 A 
ATOM      3  C   UNL     1       0.531   2.106  25.206  0.00  0.00    -0.005 A 
ATOM      4  C   UNL     1      -0.073   2.515  25.591  0.00  0.00    -0.003 A 
ATOM      5  C   UNL     1      -0.772   2.691  25.190  0.00  0.00    -0.006 A 
ATOM     32  C   UNL     1      -0.867   2.458  24.404  0.00  0.00    -0.003 A 
ATOM     33  C   UNL     1      -0.262   2.048  24.020  0.00  0.00    -0.005 A 
ENDBRANCH   6   5
ENDBRANCH   7   6
ENDBRANCH  12  11
TORSDOF 6
ENDMDL
MODEL 4
REMARK VINA RESULT:     -11.5      1.782      3.616
REMARK  Name = 
REMARK  6 active torsions:
REMARK  status: ('A' for Active; 'I' for Inactive)
REMARK    1  A    between atoms: C_5  and  C_6
REMARK    2  A    between atoms: C_6  and  N_7
REMARK    3  A    between atoms: C_11  and  C_12
REMARK    4  A    between atoms: C_14  and  C_17
REMARK    5  A    between atoms: C_21  and  N_23
REMARK    6  A    between atoms: C_26  and  C_29
REMARK                            x       y       z     vdW  Elec       q    Type
REMARK                         _______ _______ _______ _____ _____    ______ ____
ROOT
ATOM     12  C   UNL     1      -4.304  -0.279  24.959  0.00  0.00    +0.251 A 
ATOM     13  N   UNL     1      -4.238   0.505  24.710  0.00  0.00    -0.190 NA
ATOM     14  C   UNL     1      -4.628   0.981  25.258  0.00  0.00    +0.203 A 
ATOM     15  N   UNL     1      -4.936   0.492  25.847  0.00  0.00    -0.056 NA
ATOM     16  O   UNL     1      -4.736  -0.287  25.662  0.00  0.00    -0.336 OA
ENDROOT
BRANCH  14  17
ATOM     17  C   UNL     1      -4.699   1.803  25.224  0.00  0.00    +0.043 A 
ATOM     18  C   UNL     1      -5.447   2.151  25.206  0.00  0.00    +0.024 A 
ATOM     19  C   UNL     1      -5.519   2.972  25.173  0.00  0.00    +0.100 A 
ATOM     20  N   UNL     1      -4.843   3.445  25.157  0.00  0.00    -0.229 NA
ATOM     21  C   UNL     1      -4.096   3.097  25.176  0.00  0.00    +0.132 A 
ATOM     22  C   UNL     1      -4.024   2.276  25.209  0.00  0.00    +0.037 A 
BRANCH  21  23
ATOM     23  N   UNL     1      -3.420   3.570  25.161  0.00  0.00    -0.293 N 
ATOM     24  C   UNL     1      -3.086   3.834  25.867  0.00  0.00    +0.093 C 
ATOM     25  C   UNL     1      -2.411   4.307  25.852  0.00  0.00    +0.031 C 
ATOM     26  C   UNL     1      -2.069   4.516  25.131  0.00  0.00    +0.083 C 
ATOM     27  C   UNL     1      -2.403   4.251  24.424  0.00  0.00    +0.031 C 
ATOM     28  C   UNL     1      -3.078   3.778  24.439  0.00  0.00    +0.093 C 
BRANCH  26  29
ATOM     29  C   UNL     1      -1.393   4.989  25.116  0.00  0.00    +0.260 C 
ATOM     30  N   UNL     1      -0.647   4.641  25.051  0.00  0.00    -0.088 NA
ATOM     31  O   UNL     1      -1.463   5.810  25.165  0.00  0.00    -0.272 OA
ENDBRANCH  26  29
ENDBRANCH  21  23
ENDBRANCH  14  17
BRANCH  12  11
ATOM      7  N   UNL     1      -3.226  -1.230  24.652  0.00  0.00    -0.263 NA
ATOM      8  C   UNL     1      -3.155  -1.895  24.169  0.00  0.00    +0.073 C 
ATOM      9  C   UNL     1      -3.880  -2.015  23.792  0.00  0.00    +0.019 C 
ATOM     10  C   UNL     1      -4.398  -1.424  24.043  0.00  0.00    +0.027 C 
ATOM     11  C   UNL     1      -3.994  -0.938  24.574  0.00  0.00    +0.138 C 
BRANCH   7   6
ATOM      6  C   UNL     1      -2.633  -0.912  25.128  0.00  0.00    +0.099 C 
BRANCH   6   5
ATOM      1  C   UNL     1       0.495  -0.885  24.078  0.00  0.00    +0.031 C 
ATOM      2  C   UNL     1      -0.287  -0.891  24.340  0.00  0.00    -0.022 A 
ATOM      3  C   UNL     1      -0.579  -1.544  24.751  0.00  0.00    -0.005 A 
ATOM      4  C   UNL     1      -1.361  -1.552  25.014  0.00  0.00    -0.003 A 
ATOM      5  C   UNL     1      -1.852  -0.905  24.866  0.00  0.00    -0.006 A 
ATOM     32  C   UNL     1      -1.560  -0.251  24.455  0.00  0.00    -0.003 A 
ATOM     33  C   UNL     1      -0.778  -0.245  24.192  0.00  0.00    -0.005 A 
ENDBRANCH   6   5
ENDBRANCH   7   6
ENDBRANCH  12  11
TORSDOF 6
ENDMDL
