MODEL 1
REMARK VINA RESULT:     -14.7      0.000      0.000
REMARK  Name = 
REMARK  5 active torsions:
REMARK  status: ('A' for Active; 'I' for Inactive)
REMARK    1  A    between atoms: N_3  and  C_4
REMARK    2  A    between atoms: N_10  and  C_11
REMARK    3  A    between atoms: C_21  and  C_23
REMARK    4  A    between atoms: C_23  and  O_24
REMARK    5  A    between atoms: O_24  and  C_25
REMARK                            x       y       z     vdW  Elec       q    Type
REMARK                         _______ _______ _______ _____ _____    ______ ____
ROOT
ATOM     11  C   UNL     1      -3.844   1.259  24.834  0.00  0.00    +0.131 A 
ATOM     12  C   UNL     1      -4.639   1.090  24.978  0.00  0.00    +0.023 A 
ATOM     13  C   UNL     1      -5.158   1.696  25.189  0.00  0.00    +0.014 A 
ATOM     14  C   UNL     1      -4.882   2.470  25.255  0.00  0.00    +0.041 A 
ATOM     15  C   UNL     1      -5.175   3.318  25.457  0.00  0.00    +0.058 C 
ATOM     16  C   UNL     1      -5.753   3.671  25.640  0.00  0.00    +0.011 C 
ATOM     17  C   UNL     1      -4.968   3.834  25.497  0.00  0.00    +0.043 C 
ATOM     18  C   UNL     1      -4.070   4.225  25.367  0.00  0.00    +0.095 C 
ATOM     19  N   UNL     1      -3.645   3.536  25.162  0.00  0.00    -0.276 N 
ATOM     20  C   UNL     1      -4.314   3.711  25.335  0.00  0.00    +0.099 C 
ATOM     21  C   UNL     1      -3.004   3.062  24.947  0.00  0.00    +0.270 C 
ATOM     22  O   UNL     1      -2.260   3.400  24.841  0.00  0.00    -0.271 OA
ATOM     31  C   UNL     1      -4.653   2.952  25.285  0.00  0.00    +0.110 C 
ATOM     32  N   UNL     1      -4.087   2.639  25.111  0.00  0.00    -0.298 N 
ATOM     33  C   UNL     1      -3.568   2.033  24.901  0.00  0.00    +0.276 A 
ATOM     34  O   UNL     1      -2.844   1.701  24.690  0.00  0.00    -0.266 OA
ENDROOT
BRANCH  11  10
ATOM      1  O   UNL     1      -4.367  -0.306  24.822  0.00  0.00    -0.248 OA
ATOM      2  C   UNL     1      -3.587  -0.130  24.617  0.00  0.00    +0.348 C 
ATOM      3  N   UNL     1      -3.068  -0.736  24.406  0.00  0.00    -0.161 NA
ATOM     10  N   UNL     1      -3.326   0.653  24.623  0.00  0.00    -0.156 NA
BRANCH   3   4
ATOM      4  C   UNL     1      -3.329  -1.519  24.400  0.00  0.00    +0.075 A 
ATOM      5  C   UNL     1      -3.103  -2.033  25.004  0.00  0.00    +0.017 A 
ATOM      6  C   UNL     1      -3.364  -2.816  24.998  0.00  0.00    +0.001 A 
ATOM      7  C   UNL     1      -3.851  -3.084  24.388  0.00  0.00    +0.000 A 
ATOM      8  C   UNL     1      -4.077  -2.569  23.784  0.00  0.00    +0.001 A 
ATOM      9  C   UNL     1      -3.816  -1.787  23.790  0.00  0.00    +0.017 A 
ENDBRANCH   3   4
ENDBRANCH  11  10
BRANCH  21  23
ATOM     23  C   UNL     1      -3.110   2.251  24.837  0.00  0.00    +0.290 C 
BRANCH  23  24
ATOM     24  O   UNL     1      -2.495   1.794  24.532  0.00  0.00    -0.466 OA
BRANCH  24  25
ATOM     25  C   UNL     1      -1.714   1.965  24.731  0.00  0.00    +0.139 A 
ATOM     26  C   UNL     1      -1.205   2.286  24.166  0.00  0.00    +0.037 A 
ATOM     27  C   UNL     1      -0.422   2.458  24.364  0.00  0.00    +0.003 A 
ATOM     28  C   UNL     1      -0.149   2.309  25.128  0.00  0.00    +0.000 A 
ATOM     29  C   UNL     1      -0.658   1.989  25.694  0.00  0.00    +0.003 A 
ATOM     30  C   UNL     1      -1.440   1.817  25.495  0.00  0.00    +0.037 A 
ENDBRANCH  24  25
ENDBRANCH  23  24
ENDBRANCH  21  23
TORSDOF 5
ENDMDL
MODEL 2
REMARK VINA RESULT:     -14.2      0.968      2.914
REMARK  Name = 
REMARK  5 active torsions:
REMARK  status: ('A' for Active; 'I' for Inactive)
REMARK    1  A    between atoms: N_3  and  C_4
REMARK    2  A    between atoms: N_10  and  C_11
REMARK    3  A    between atoms: C_21  and  C_23
REMARK    4  A    between atoms: C_23  and  O_24
REMARK    5  A    between atoms: O_24  and  C_25
REMARK                            x       y       z     vdW  Elec       q    Type
REMARK                         _______ _______ _______ _____ _____    ______ ____
ROOT
ATOM     11  C   UNL     1      -2.367   1.150  25.073  0.00  0.00    +0.131 A 
ATOM     12  C   UNL     1      -1.683   0.715  25.228  0.00  0.00    +0.023 A 
ATOM     13  C   UNL     1      -0.977   1.104  25.404  0.00  0.00    +0.014 A 
ATOM     14  C   UNL     1      -0.955   1.928  25.425  0.00  0.00    +0.041 A 
ATOM     15  C   UNL     1      -0.372   2.622  25.577  0.00  0.00    +0.058 C 
ATOM     16  C   UNL     1       0.298   2.753  25.740  0.00  0.00    +0.011 C 
ATOM     17  C   UNL     1      -0.379   3.180  25.586  0.00  0.00    +0.043 C 
ATOM     18  C   UNL     1      -1.078   3.861  25.432  0.00  0.00    +0.095 C 
ATOM     19  N   UNL     1      -1.727   3.361  25.267  0.00  0.00    -0.276 N 
ATOM     20  C   UNL     1      -1.037   3.292  25.431  0.00  0.00    +0.099 C 
ATOM     21  C   UNL     1      -2.499   3.139  25.078  0.00  0.00    +0.270 C 
ATOM     22  O   UNL     1      -3.074   3.716  24.951  0.00  0.00    -0.271 OA
ATOM     31  C   UNL     1      -0.995   2.461  25.425  0.00  0.00    +0.110 C 
ATOM     32  N   UNL     1      -1.638   2.363  25.270  0.00  0.00    -0.298 N 
ATOM     33  C   UNL     1      -2.344   1.975  25.094  0.00  0.00    +0.276 A 
ATOM     34  O   UNL     1      -3.144   1.915  24.901  0.00  0.00    -0.266 OA
ENDROOT
BRANCH  11  10
ATOM      1  O   UNL     1      -2.381  -0.489  24.889  0.00  0.00    -0.248 OA
ATOM      2  C   UNL     1      -3.079  -0.059  24.805  0.00  0.00    +0.348 C 
ATOM      3  N   UNL     1      -3.786  -0.448  24.629  0.00  0.00    -0.161 NA
ATOM     10  N   UNL     1      -3.072   0.761  24.897  0.00  0.00    -0.156 NA
BRANCH   3   4
ATOM      4  C   UNL     1      -3.793  -1.268  24.537  0.00  0.00    +0.075 A 
ATOM      5  C   UNL     1      -4.034  -1.600  23.822  0.00  0.00    +0.017 A 
ATOM      6  C   UNL     1      -4.042  -2.420  23.730  0.00  0.00    +0.001 A 
ATOM      7  C   UNL     1      -3.808  -2.907  24.354  0.00  0.00    +0.000 A 
ATOM      8  C   UNL     1      -3.567  -2.574  25.069  0.00  0.00    +0.001 A 
ATOM      9  C   UNL     1      -3.559  -1.755  25.161  0.00  0.00    +0.017 A 
ENDBRANCH   3   4
ENDBRANCH  11  10
BRANCH  21  23
ATOM     23  C   UNL     1      -2.695   2.339  25.016  0.00  0.00    +0.290 C 
BRANCH  23  24
ATOM     24  O   UNL     1      -3.441   2.118  24.744  0.00  0.00    -0.466 OA
BRANCH  24  25
ATOM     25  C   UNL     1      -4.106   2.555  24.959  0.00  0.00    +0.139 A 
ATOM     26  C   UNL     1      -4.460   3.064  24.414  0.00  0.00    +0.037 A 
ATOM     27  C   UNL     1      -5.126   3.501  24.629  0.00  0.00    +0.003 A 
ATOM     28  C   UNL     1      -5.438   3.430  25.389  0.00  0.00    +0.000 A 
ATOM     29  C   UNL     1      -5.084   2.921  25.935  0.00  0.00    +0.003 A 
ATOM     30  C   UNL     1      -4.419   2.484  25.719  0.00  0.00    +0.037 A 
ENDBRANCH  24  25
ENDBRANCH  23  24
ENDBRANCH  21  23
TORSDOF 5
ENDMDL
MODEL 3
REMARK VINA RESULT:     -13.5      1.220      1.444
REMARK  Name = 
REMARK  5 active torsions:
REMARK  status: ('A' for Active; 'I' for Inactive)
REMARK    1  A    between atoms: N_3  and  C_4
REMARK    2  A    between atoms: N_10  and  C_11
REMARK    3  A    between atoms: C_21  and  C_23
REMARK    4  A    between atoms: C_23  and  O_24
REMARK    5  A    between atoms: O_24  and  C_25
REMARK                            x       y       z     vdW  Elec       q    Type
REMARK                         _______ _______ _______ _____ _____    ______ ____
ROOT
ATOM     11  C   UNL     1      -3.405   1.154  24.846  0.00  0.00    +0.131 A 
ATOM     12  C   UNL     1      -4.005   0.594  24.928  0.00  0.00    +0.023 A 
ATOM     13  C   UNL     1      -4.775   0.835  25.099  0.00  0.00    +0.014 A 
ATOM     14  C   UNL     1      -4.945   1.637  25.188  0.00  0.00    +0.041 A 
ATOM     15  C   UNL     1      -5.647   2.202  25.368  0.00  0.00    +0.058 C 
ATOM     16  C   UNL     1      -6.336   2.198  25.506  0.00  0.00    +0.011 C 
ATOM     17  C   UNL     1      -5.741   2.748  25.425  0.00  0.00    +0.043 C 
ATOM     18  C   UNL     1      -5.170   3.553  25.366  0.00  0.00    +0.095 C 
ATOM     19  N   UNL     1      -4.437   3.191  25.194  0.00  0.00    -0.276 N 
ATOM     20  C   UNL     1      -5.109   2.988  25.314  0.00  0.00    +0.099 C 
ATOM     21  C   UNL     1      -3.631   3.126  25.027  0.00  0.00    +0.270 C 
ATOM     22  O   UNL     1      -3.163   3.804  24.980  0.00  0.00    -0.271 OA
ATOM     31  C   UNL     1      -5.001   2.166  25.236  0.00  0.00    +0.110 C 
ATOM     32  N   UNL     1      -4.345   2.198  25.107  0.00  0.00    -0.298 N 
ATOM     33  C   UNL     1      -3.575   1.956  24.936  0.00  0.00    +0.276 A 
ATOM     34  O   UNL     1      -2.771   2.056  24.781  0.00  0.00    -0.266 OA
ENDROOT
BRANCH  11  10
ATOM      1  O   UNL     1      -2.971  -0.424  25.053  0.00  0.00    -0.248 OA
ATOM      2  C   UNL     1      -2.418   0.123  24.778  0.00  0.00    +0.348 C 
ATOM      3  N   UNL     1      -1.647  -0.118  24.607  0.00  0.00    -0.161 NA
ATOM     10  N   UNL     1      -2.635   0.912  24.675  0.00  0.00    -0.156 NA
BRANCH   3   4
ATOM      4  C   UNL     1      -1.430  -0.907  24.710  0.00  0.00    +0.075 A 
ATOM      5  C   UNL     1      -0.926  -1.118  25.328  0.00  0.00    +0.017 A 
ATOM      6  C   UNL     1      -0.708  -1.907  25.431  0.00  0.00    +0.001 A 
ATOM      7  C   UNL     1      -0.996  -2.485  24.917  0.00  0.00    +0.000 A 
ATOM      8  C   UNL     1      -1.500  -2.274  24.299  0.00  0.00    +0.001 A 
ATOM      9  C   UNL     1      -1.717  -1.485  24.196  0.00  0.00    +0.017 A 
ENDBRANCH   3   4
ENDBRANCH  11  10
BRANCH  21  23
ATOM     23  C   UNL     1      -3.293   2.382  24.908  0.00  0.00    +0.290 C 
BRANCH  23  24
ATOM     24  O   UNL     1      -2.524   2.321  24.616  0.00  0.00    -0.466 OA
BRANCH  24  25
ATOM     25  C   UNL     1      -1.947   2.859  24.855  0.00  0.00    +0.139 A 
ATOM     26  C   UNL     1      -1.650   3.411  24.317  0.00  0.00    +0.037 A 
ATOM     27  C   UNL     1      -1.072   3.950  24.556  0.00  0.00    +0.003 A 
ATOM     28  C   UNL     1      -0.791   3.936  25.332  0.00  0.00    +0.000 A 
ATOM     29  C   UNL     1      -1.088   3.384  25.869  0.00  0.00    +0.003 A 
ATOM     30  C   UNL     1      -1.666   2.847  25.630  0.00  0.00    +0.037 A 
ENDBRANCH  24  25
ENDBRANCH  23  24
ENDBRANCH  21  23
TORSDOF 5
ENDMDL
MODEL 4
REMARK VINA RESULT:     -13.3      1.139      4.314
REMARK  Name = 
REMARK  5 active torsions:
REMARK  status: ('A' for Active; 'I' for Inactive)
REMARK    1  A    between atoms: N_3  and  C_4
REMARK    2  A    between atoms: N_10  and  C_11
REMARK    3  A    between atoms: C_21  and  C_23
REMARK    4  A    between atoms: C_23  and  O_24
REMARK    5  A    between atoms: O_24  and  C_25
REMARK                            x       y       z     vdW  Elec       q    Type
REMARK                         _______ _______ _______ _____ _____    ______ ____
ROOT
ATOM     11  C   UNL     1      -3.409   0.196  24.742  0.00  0.00    +0.131 A 
ATOM     12  C   UNL     1      -4.185  -0.055  24.621  0.00  0.00    +0.023 A 
ATOM     13  C   UNL     1      -4.344  -0.854  24.490  0.00  0.00    +0.014 A 
ATOM     14  C   UNL     1      -3.727  -1.401  24.481  0.00  0.00    +0.041 A 
ATOM     15  C   UNL     1      -3.572  -2.300  24.371  0.00  0.00    +0.058 C 
ATOM     16  C   UNL     1      -3.906  -2.906  24.248  0.00  0.00    +0.011 C 
ATOM     17  C   UNL     1      -3.140  -2.654  24.368  0.00  0.00    +0.043 C 
ATOM     18  C   UNL     1      -2.166  -2.547  24.492  0.00  0.00    +0.095 C 
ATOM     19  N   UNL     1      -2.129  -1.722  24.613  0.00  0.00    -0.276 N 
ATOM     20  C   UNL     1      -2.628  -2.214  24.488  0.00  0.00    +0.099 C 
ATOM     21  C   UNL     1      -1.799  -0.978  24.754  0.00  0.00    +0.270 C 
ATOM     22  O   UNL     1      -0.985  -0.902  24.856  0.00  0.00    -0.271 OA
ATOM     31  C   UNL     1      -3.293  -1.713  24.485  0.00  0.00    +0.110 C 
ATOM     32  N   UNL     1      -2.951  -1.150  24.602  0.00  0.00    -0.298 N 
ATOM     33  C   UNL     1      -2.792  -0.351  24.733  0.00  0.00    +0.276 A 
ATOM     34  O   UNL     1      -2.320   0.309  24.879  0.00  0.00    -0.266 OA
ENDROOT
BRANCH  11  10
ATOM      1  O   UNL     1      -4.653   1.265  24.928  0.00  0.00    -0.248 OA
ATOM      2  C   UNL     1      -3.872   1.529  24.966  0.00  0.00    +0.348 C 
ATOM      3  N   UNL     1      -3.713   2.329  25.096  0.00  0.00    -0.161 NA
ATOM     10  N   UNL     1      -3.251   0.995  24.873  0.00  0.00    -0.156 NA
BRANCH   3   4
ATOM      4  C   UNL     1      -4.335   2.863  25.189  0.00  0.00    +0.075 A 
ATOM      5  C   UNL     1      -4.444   3.468  24.639  0.00  0.00    +0.017 A 
ATOM      6  C   UNL     1      -5.065   4.002  24.731  0.00  0.00    +0.001 A 
ATOM      7  C   UNL     1      -5.578   3.932  25.374  0.00  0.00    +0.000 A 
ATOM      8  C   UNL     1      -5.469   3.327  25.924  0.00  0.00    +0.001 A 
ATOM      9  C   UNL     1      -4.847   2.793  25.832  0.00  0.00    +0.017 A 
ENDBRANCH   3   4
ENDBRANCH  11  10
BRANCH  21  23
ATOM     23  C   UNL     1      -2.285  -0.312  24.795  0.00  0.00    +0.290 C 
BRANCH  23  24
ATOM     24  O   UNL     1      -1.966   0.418  25.008  0.00  0.00    -0.466 OA
BRANCH  24  25
ATOM     25  C   UNL     1      -1.250   0.667  24.684  0.00  0.00    +0.139 A 
ATOM     26  C   UNL     1      -0.596   0.786  25.174  0.00  0.00    +0.037 A 
ATOM     27  C   UNL     1       0.122   1.035  24.850  0.00  0.00    +0.003 A 
ATOM     28  C   UNL     1       0.184   1.165  24.038  0.00  0.00    +0.000 A 
ATOM     29  C   UNL     1      -0.470   1.046  23.549  0.00  0.00    +0.003 A 
ATOM     30  C   UNL     1      -1.186   0.797  23.873  0.00  0.00    +0.037 A 
ENDBRANCH  24  25
ENDBRANCH  23  24
ENDBRANCH  21  23
TORSDOF 5
ENDMDL
MODEL 5
REMARK VINA RESULT:     -12.9      1.596      3.649
REMARK  Name = 
REMARK  5 active torsions:
REMARK  status: ('A' for Active; 'I' for Inactive)
REMARK    1  A    between atoms: N_3  and  C_4
REMARK    2  A    between atoms: N_10  and  C_11
REMARK    3  A    between atoms: C_21  and  C_23
REMARK    4  A    between atoms: C_23  and  O_24
REMARK    5  A    between atoms: O_24  and  C_25
REMARK                            x       y       z     vdW  Elec       q    Type
REMARK                         _______ _______ _______ _____ _____    ______ ____
ROOT
ATOM     11  C   UNL     1      -2.351   1.020  24.277  0.00  0.00    +0.131 A 
ATOM     12  C   UNL     1      -2.197   1.768  23.966  0.00  0.00    +0.023 A 
ATOM     13  C   UNL     1      -2.789   2.342  23.959  0.00  0.00    +0.014 A 
ATOM     14  C   UNL     1      -3.536   2.168  24.263  0.00  0.00    +0.041 A 
ATOM     15  C   UNL     1      -4.359   2.553  24.397  0.00  0.00    +0.058 C 
ATOM     16  C   UNL     1      -4.708   3.154  24.301  0.00  0.00    +0.011 C 
ATOM     17  C   UNL     1      -4.857   2.414  24.607  0.00  0.00    +0.043 C 
ATOM     18  C   UNL     1      -5.226   1.592  25.014  0.00  0.00    +0.095 C 
ATOM     19  N   UNL     1      -4.554   1.099  24.967  0.00  0.00    -0.276 N 
ATOM     20  C   UNL     1      -4.731   1.766  24.792  0.00  0.00    +0.099 C 
ATOM     21  C   UNL     1      -4.088   0.423  25.051  0.00  0.00    +0.270 C 
ATOM     22  O   UNL     1      -4.406  -0.257  25.392  0.00  0.00    -0.271 OA
ATOM     31  C   UNL     1      -4.000   2.003  24.471  0.00  0.00    +0.110 C 
ATOM     32  N   UNL     1      -3.690   1.419  24.574  0.00  0.00    -0.298 N 
ATOM     33  C   UNL     1      -3.097   0.845  24.581  0.00  0.00    +0.276 A 
ATOM     34  O   UNL     1      -2.768   0.105  24.732  0.00  0.00    -0.266 OA
ENDROOT
BRANCH  11  10
ATOM      1  O   UNL     1      -0.885   1.340  23.590  0.00  0.00    -0.248 OA
ATOM      2  C   UNL     1      -1.025   0.606  23.941  0.00  0.00    +0.348 C 
ATOM      3  N   UNL     1      -0.432   0.032  23.948  0.00  0.00    -0.161 NA
ATOM     10  N   UNL     1      -1.758   0.447  24.284  0.00  0.00    -0.156 NA
BRANCH   3   4
ATOM      4  C   UNL     1       0.301   0.191  23.604  0.00  0.00    +0.075 A 
ATOM      5  C   UNL     1       0.795   0.764  23.934  0.00  0.00    +0.017 A 
ATOM      6  C   UNL     1       1.527   0.923  23.591  0.00  0.00    +0.001 A 
ATOM      7  C   UNL     1       1.766   0.511  22.917  0.00  0.00    +0.000 A 
ATOM      8  C   UNL     1       1.272  -0.062  22.587  0.00  0.00    +0.001 A 
ATOM      9  C   UNL     1       0.539  -0.221  22.931  0.00  0.00    +0.017 A 
ENDBRANCH   3   4
ENDBRANCH  11  10
BRANCH  21  23
ATOM     23  C   UNL     1      -3.303   0.428  24.794  0.00  0.00    +0.290 C 
BRANCH  23  24
ATOM     24  O   UNL     1      -2.814  -0.218  24.950  0.00  0.00    -0.466 OA
BRANCH  24  25
ATOM     25  C   UNL     1      -3.113  -0.985  24.900  0.00  0.00    +0.139 A 
ATOM     26  C   UNL     1      -3.157  -1.456  25.576  0.00  0.00    +0.037 A 
ATOM     27  C   UNL     1      -3.456  -2.223  25.527  0.00  0.00    +0.003 A 
ATOM     28  C   UNL     1      -3.711  -2.519  24.800  0.00  0.00    +0.000 A 
ATOM     29  C   UNL     1      -3.668  -2.048  24.124  0.00  0.00    +0.003 A 
ATOM     30  C   UNL     1      -3.369  -1.282  24.174  0.00  0.00    +0.037 A 
ENDBRANCH  24  25
ENDBRANCH  23  24
ENDBRANCH  21  23
TORSDOF 5
ENDMDL
