MODEL 1
REMARK VINA RESULT:     -10.5      0.000      0.000
REMARK  Name = 
REMARK  8 active torsions:
REMARK  status: ('A' for Active; 'I' for Inactive)
REMARK    1  A    between atoms: C_2  and  C_4
REMARK    2  A    between atoms: C_6  and  C_7
REMARK    3  A    between atoms: C_7  and  C_8
REMARK    4  A    between atoms: C_11  and  C_13
REMARK    5  A    between atoms: C_22  and  C_23
REMARK    6  A    between atoms: C_23  and  N_24
REMARK    7  A    between atoms: N_24  and  C_26
REMARK    8  A    between atoms: C_26  and  C_27
REMARK                            x       y       z     vdW  Elec       q    Type
REMARK                         _______ _______ _______ _____ _____    ______ ____
ROOT
ATOM      4  C   UNL     1      -3.133   1.982  23.891  0.00  0.00    +0.006 C 
ATOM      5  C   UNL     1      -3.599   1.316  24.028  0.00  0.00    +0.005 C 
ATOM      6  C   UNL     1      -4.229   1.355  24.559  0.00  0.00    +0.027 C 
ATOM     19  C   UNL     1      -4.392   2.060  24.955  0.00  0.00    -0.048 C 
ATOM     20  C   UNL     1      -5.022   2.100  25.487  0.00  0.00    +0.026 C 
ATOM     21  C   UNL     1      -3.925   2.726  24.818  0.00  0.00    -0.034 C 
ATOM     22  C   UNL     1      -3.296   2.687  24.286  0.00  0.00    +0.037 C 
ENDROOT
BRANCH   4   2
ATOM      1  C   UNL     1      -1.755   1.716  23.622  0.00  0.00    +0.000 C 
ATOM      2  C   UNL     1      -2.504   1.943  23.360  0.00  0.00    +0.000 C 
ATOM      3  C   UNL     1      -2.622   2.130  22.565  0.00  0.00    +0.000 C 
ENDBRANCH   4   2
BRANCH   6   7
ATOM      7  C   UNL     1      -4.696   0.688  24.696  0.00  0.00    +0.091 C 
BRANCH   7   8
ATOM      8  C   UNL     1      -4.345  -0.020  24.932  0.00  0.00    +0.227 A 
ATOM      9  N   UNL     1      -4.184  -0.246  25.709  0.00  0.00    -0.111 NA
ATOM     10  N   UNL     1      -3.833  -0.992  25.690  0.00  0.00    -0.107 NA
ATOM     11  C   UNL     1      -3.778  -1.227  24.900  0.00  0.00    +0.251 A 
ATOM     12  O   UNL     1      -4.094  -0.627  24.432  0.00  0.00    -0.419 OA
BRANCH  11  13
ATOM     13  C   UNL     1      -3.461  -1.939  24.629  0.00  0.00    +0.074 A 
ATOM     14  C   UNL     1      -2.656  -2.093  24.716  0.00  0.00    +0.104 A 
ATOM     15  N   UNL     1      -2.340  -2.805  24.444  0.00  0.00    -0.242 NA
ATOM     16  C   UNL     1      -2.829  -3.363  24.084  0.00  0.00    +0.099 A 
ATOM     17  C   UNL     1      -3.635  -3.209  23.996  0.00  0.00    +0.021 A 
ATOM     18  C   UNL     1      -3.951  -2.497  24.269  0.00  0.00    +0.008 A 
ENDBRANCH  11  13
ENDBRANCH   7   8
ENDBRANCH   6   7
BRANCH  22  23
ATOM     23  C   UNL     1      -2.829   3.354  24.150  0.00  0.00    +0.077 C 
BRANCH  23  24
ATOM     24  N   UNL     1      -2.912   4.020  24.628  0.00  0.00    -0.260 NA
ATOM     25  C   UNL     1      -3.540   4.541  24.505  0.00  0.00    +0.090 C 
BRANCH  24  26
ATOM     26  C   UNL     1      -2.367   4.168  25.230  0.00  0.00    +0.151 C 
BRANCH  26  27
ATOM     27  C   UNL     1      -1.817   4.776  25.149  0.00  0.00    -0.060 C 
ATOM     28  C   UNL     1      -1.265   5.386  25.068  0.00  0.00    -0.013 C 
ENDBRANCH  26  27
ENDBRANCH  24  26
ENDBRANCH  23  24
ENDBRANCH  22  23
TORSDOF 8
ENDMDL
MODEL 2
REMARK VINA RESULT:     -10.3      1.281      5.244
REMARK  Name = 
REMARK  8 active torsions:
REMARK  status: ('A' for Active; 'I' for Inactive)
REMARK    1  A    between atoms: C_2  and  C_4
REMARK    2  A    between atoms: C_6  and  C_7
REMARK    3  A    between atoms: C_7  and  C_8
REMARK    4  A    between atoms: C_11  and  C_13
REMARK    5  A    between atoms: C_22  and  C_23
REMARK    6  A    between atoms: C_23  and  N_24
REMARK    7  A    between atoms: N_24  and  C_26
REMARK    8  A    between atoms: C_26  and  C_27
REMARK                            x       y       z     vdW  Elec       q    Type
REMARK                         _______ _______ _______ _____ _____    ______ ____
ROOT
ATOM      4  C   UNL     1      -2.808   0.723  24.525  0.00  0.00    +0.006 C 
ATOM      5  C   UNL     1      -3.052   1.510  24.542  0.00  0.00    +0.005 C 
ATOM      6  C   UNL     1      -3.837   1.695  24.714  0.00  0.00    +0.027 C 
ATOM     19  C   UNL     1      -4.378   1.093  24.871  0.00  0.00    -0.048 C 
ATOM     20  C   UNL     1      -5.164   1.277  25.043  0.00  0.00    +0.026 C 
ATOM     21  C   UNL     1      -4.133   0.305  24.854  0.00  0.00    -0.034 C 
ATOM     22  C   UNL     1      -3.348   0.120  24.681  0.00  0.00    +0.037 C 
ENDROOT
BRANCH   4   2
ATOM      1  C   UNL     1      -1.771   0.495  23.568  0.00  0.00    +0.000 C 
ATOM      2  C   UNL     1      -2.022   0.538  24.353  0.00  0.00    +0.000 C 
ATOM      3  C   UNL     1      -1.487   0.397  24.964  0.00  0.00    +0.000 C 
ENDBRANCH   4   2
BRANCH   6   7
ATOM      7  C   UNL     1      -4.082   2.484  24.731  0.00  0.00    +0.091 C 
BRANCH   7   8
ATOM      8  C   UNL     1      -3.605   3.056  25.086  0.00  0.00    +0.227 A 
ATOM      9  N   UNL     1      -3.685   3.347  25.853  0.00  0.00    -0.111 NA
ATOM     10  N   UNL     1      -3.095   3.908  25.977  0.00  0.00    -0.107 NA
ATOM     11  C   UNL     1      -2.649   3.966  25.284  0.00  0.00    +0.251 A 
ATOM     12  O   UNL     1      -2.964   3.439  24.734  0.00  0.00    -0.419 OA
BRANCH  11  13
ATOM     13  C   UNL     1      -2.001   4.463  25.165  0.00  0.00    +0.074 A 
ATOM     14  C   UNL     1      -2.100   5.281  25.180  0.00  0.00    +0.104 A 
ATOM     15  N   UNL     1      -1.452   5.778  25.061  0.00  0.00    -0.242 NA
ATOM     16  C   UNL     1      -0.705   5.455  24.927  0.00  0.00    +0.099 A 
ATOM     17  C   UNL     1      -0.605   4.636  24.913  0.00  0.00    +0.021 A 
ATOM     18  C   UNL     1      -1.254   4.139  25.032  0.00  0.00    +0.008 A 
ENDBRANCH  11  13
ENDBRANCH   7   8
ENDBRANCH   6   7
BRANCH  22  23
ATOM     23  C   UNL     1      -3.104  -0.668  24.665  0.00  0.00    +0.077 C 
BRANCH  23  24
ATOM     24  N   UNL     1      -3.617  -1.264  24.912  0.00  0.00    -0.260 NA
ATOM     25  C   UNL     1      -3.741  -1.394  25.717  0.00  0.00    +0.090 C 
BRANCH  24  26
ATOM     26  C   UNL     1      -4.007  -1.731  24.354  0.00  0.00    +0.151 C 
BRANCH  26  27
ATOM     27  C   UNL     1      -3.823  -2.532  24.285  0.00  0.00    -0.060 C 
ATOM     28  C   UNL     1      -3.639  -3.334  24.216  0.00  0.00    -0.013 C 
ENDBRANCH  26  27
ENDBRANCH  24  26
ENDBRANCH  23  24
ENDBRANCH  22  23
TORSDOF 8
ENDMDL
MODEL 3
REMARK VINA RESULT:     -10.1      1.271      1.897
REMARK  Name = 
REMARK  8 active torsions:
REMARK  status: ('A' for Active; 'I' for Inactive)
REMARK    1  A    between atoms: C_2  and  C_4
REMARK    2  A    between atoms: C_6  and  C_7
REMARK    3  A    between atoms: C_7  and  C_8
REMARK    4  A    between atoms: C_11  and  C_13
REMARK    5  A    between atoms: C_22  and  C_23
REMARK    6  A    between atoms: C_23  and  N_24
REMARK    7  A    between atoms: N_24  and  C_26
REMARK    8  A    between atoms: C_26  and  C_27
REMARK                            x       y       z     vdW  Elec       q    Type
REMARK                         _______ _______ _______ _____ _____    ______ ____
ROOT
ATOM      4  C   UNL     1      -2.473   2.017  24.476  0.00  0.00    +0.006 C 
ATOM      5  C   UNL     1      -2.234   1.231  24.541  0.00  0.00    +0.005 C 
ATOM      6  C   UNL     1      -1.588   1.034  25.014  0.00  0.00    +0.027 C 
ATOM     19  C   UNL     1      -1.179   1.623  25.422  0.00  0.00    -0.048 C 
ATOM     20  C   UNL     1      -0.533   1.425  25.895  0.00  0.00    +0.026 C 
ATOM     21  C   UNL     1      -1.418   2.410  25.356  0.00  0.00    -0.034 C 
ATOM     22  C   UNL     1      -2.065   2.607  24.883  0.00  0.00    +0.037 C 
ENDROOT
BRANCH   4   2
ATOM      1  C   UNL     1      -3.013   2.361  23.198  0.00  0.00    +0.000 C 
ATOM      2  C   UNL     1      -3.119   2.215  24.003  0.00  0.00    +0.000 C 
ATOM      3  C   UNL     1      -3.873   2.266  24.335  0.00  0.00    +0.000 C 
ENDBRANCH   4   2
BRANCH   6   7
ATOM      7  C   UNL     1      -1.349   0.246  25.079  0.00  0.00    +0.091 C 
BRANCH   7   8
ATOM      8  C   UNL     1      -1.909  -0.346  25.207  0.00  0.00    +0.227 A 
ATOM      9  N   UNL     1      -2.195  -0.592  25.940  0.00  0.00    -0.111 NA
ATOM     10  N   UNL     1      -2.744  -1.193  25.812  0.00  0.00    -0.107 NA
ATOM     11  C   UNL     1      -2.798  -1.319  24.997  0.00  0.00    +0.251 A 
ATOM     12  O   UNL     1      -2.282  -0.795  24.624  0.00  0.00    -0.419 OA
BRANCH  11  13
ATOM     13  C   UNL     1      -3.283  -1.872  24.624  0.00  0.00    +0.074 A 
ATOM     14  C   UNL     1      -3.137  -2.678  24.714  0.00  0.00    +0.104 A 
ATOM     15  N   UNL     1      -3.623  -3.231  24.340  0.00  0.00    -0.242 NA
ATOM     16  C   UNL     1      -4.255  -2.976  23.876  0.00  0.00    +0.099 A 
ATOM     17  C   UNL     1      -4.401  -2.169  23.785  0.00  0.00    +0.021 A 
ATOM     18  C   UNL     1      -3.916  -1.616  24.159  0.00  0.00    +0.008 A 
ENDBRANCH  11  13
ENDBRANCH   7   8
ENDBRANCH   6   7
BRANCH  22  23
ATOM     23  C   UNL     1      -2.303   3.394  24.819  0.00  0.00    +0.077 C 
BRANCH  23  24
ATOM     24  N   UNL     1      -1.973   3.967  25.312  0.00  0.00    -0.260 NA
ATOM     25  C   UNL     1      -2.316   4.127  26.045  0.00  0.00    +0.090 C 
BRANCH  24  26
ATOM     26  C   UNL     1      -1.301   4.381  25.072  0.00  0.00    +0.151 C 
BRANCH  26  27
ATOM     27  C   UNL     1      -1.328   5.201  24.993  0.00  0.00    -0.060 C 
ATOM     28  C   UNL     1      -1.354   6.023  24.914  0.00  0.00    -0.013 C 
ENDBRANCH  26  27
ENDBRANCH  24  26
ENDBRANCH  23  24
ENDBRANCH  22  23
TORSDOF 8
ENDMDL
MODEL 4
REMARK VINA RESULT:     -10.0      1.793      5.534
REMARK  Name = 
REMARK  8 active torsions:
REMARK  status: ('A' for Active; 'I' for Inactive)
REMARK    1  A    between atoms: C_2  and  C_4
REMARK    2  A    between atoms: C_6  and  C_7
REMARK    3  A    between atoms: C_7  and  C_8
REMARK    4  A    between atoms: C_11  and  C_13
REMARK    5  A    between atoms: C_22  and  C_23
REMARK    6  A    between atoms: C_23  and  N_24
REMARK    7  A    between atoms: N_24  and  C_26
REMARK    8  A    between atoms: C_26  and  C_27
REMARK                            x       y       z     vdW  Elec       q    Type
REMARK                         _______ _______ _______ _____ _____    ______ ____
ROOT
ATOM      4  C   UNL     1      -2.739   0.390  24.611  0.00  0.00    +0.006 C 
ATOM      5  C   UNL     1      -2.064   0.859  24.673  0.00  0.00    +0.005 C 
ATOM      6  C   UNL     1      -1.350   0.524  24.916  0.00  0.00    +0.027 C 
ATOM     19  C   UNL     1      -1.311  -0.280  25.095  0.00  0.00    -0.048 C 
ATOM     20  C   UNL     1      -0.597  -0.615  25.337  0.00  0.00    +0.026 C 
ATOM     21  C   UNL     1      -1.986  -0.748  25.033  0.00  0.00    -0.034 C 
ATOM     22  C   UNL     1      -2.700  -0.413  24.791  0.00  0.00    +0.037 C 
ENDROOT
BRANCH   4   2
ATOM      1  C   UNL     1      -4.010   0.959  24.930  0.00  0.00    +0.000 C 
ATOM      2  C   UNL     1      -3.453   0.725  24.369  0.00  0.00    +0.000 C 
ATOM      3  C   UNL     1      -3.610   0.826  23.566  0.00  0.00    +0.000 C 
ENDBRANCH   4   2
BRANCH   6   7
ATOM      7  C   UNL     1      -0.673   0.994  24.978  0.00  0.00    +0.091 C 
BRANCH   7   8
ATOM      8  C   UNL     1      -0.722   1.745  25.316  0.00  0.00    +0.227 A 
ATOM      9  N   UNL     1      -0.577   1.932  26.106  0.00  0.00    -0.111 NA
ATOM     10  N   UNL     1      -0.690   2.743  26.202  0.00  0.00    -0.107 NA
ATOM     11  C   UNL     1      -0.905   3.058  25.469  0.00  0.00    +0.251 A 
ATOM     12  O   UNL     1      -0.925   2.442  24.922  0.00  0.00    -0.419 OA
BRANCH  11  13
ATOM     13  C   UNL     1      -1.071   3.851  25.313  0.00  0.00    +0.074 A 
ATOM     14  C   UNL     1      -0.512   4.323  24.934  0.00  0.00    +0.104 A 
ATOM     15  N   UNL     1      -0.679   5.117  24.778  0.00  0.00    -0.242 NA
ATOM     16  C   UNL     1      -1.405   5.437  25.003  0.00  0.00    +0.099 A 
ATOM     17  C   UNL     1      -1.965   4.965  25.383  0.00  0.00    +0.021 A 
ATOM     18  C   UNL     1      -1.798   4.171  25.539  0.00  0.00    +0.008 A 
ENDBRANCH  11  13
ENDBRANCH   7   8
ENDBRANCH   6   7
BRANCH  22  23
ATOM     23  C   UNL     1      -3.376  -0.883  24.729  0.00  0.00    +0.077 C 
BRANCH  23  24
ATOM     24  N   UNL     1      -3.340  -1.685  24.917  0.00  0.00    -0.260 NA
ATOM     25  C   UNL     1      -3.439  -1.930  25.698  0.00  0.00    +0.090 C 
BRANCH  24  26
ATOM     26  C   UNL     1      -3.205  -2.243  24.324  0.00  0.00    +0.151 C 
BRANCH  26  27
ATOM     27  C   UNL     1      -3.817  -2.736  24.074  0.00  0.00    -0.060 C 
ATOM     28  C   UNL     1      -4.430  -3.229  23.823  0.00  0.00    -0.013 C 
ENDBRANCH  26  27
ENDBRANCH  24  26
ENDBRANCH  23  24
ENDBRANCH  22  23
TORSDOF 8
ENDMDL
MODEL 5
REMARK VINA RESULT:      -9.3      2.314      4.557
REMARK  Name = 
REMARK  8 active torsions:
REMARK  status: ('A' for Active; 'I' for Inactive)
REMARK    1  A    between atoms: C_2  and  C_4
REMARK    2  A    between atoms: C_6  and  C_7
REMARK    3  A    between atoms: C_7  and  C_8
REMARK    4  A    between atoms: C_11  and  C_13
REMARK    5  A    between atoms: C_22  and  C_23
REMARK    6  A    between atoms: C_23  and  N_24
REMARK    7  A    between atoms: N_24  and  C_26
REMARK    8  A    between atoms: C_26  and  C_27
REMARK                            x       y       z     vdW  Elec       q    Type
REMARK                         _______ _______ _______ _____ _____    ______ ____
ROOT
ATOM      4  C   UNL     1      -1.073   2.034  24.687  0.00  0.00    +0.006 C 
ATOM      5  C   UNL     1      -1.648   2.558  24.415  0.00  0.00    +0.005 C 
ATOM      6  C   UNL     1      -2.122   2.353  23.771  0.00  0.00    +0.027 C 
ATOM     19  C   UNL     1      -2.020   1.624  23.400  0.00  0.00    -0.048 C 
ATOM     20  C   UNL     1      -2.494   1.419  22.756  0.00  0.00    +0.026 C 
ATOM     21  C   UNL     1      -1.445   1.100  23.672  0.00  0.00    -0.034 C 
ATOM     22  C   UNL     1      -0.971   1.305  24.316  0.00  0.00    +0.037 C 
ENDROOT
BRANCH   4   2
ATOM      1  C   UNL     1       0.139   2.585  25.207  0.00  0.00    +0.000 C 
ATOM      2  C   UNL     1      -0.600   2.239  25.331  0.00  0.00    +0.000 C 
ATOM      3  C   UNL     1      -0.864   2.099  26.099  0.00  0.00    +0.000 C 
ENDBRANCH   4   2
BRANCH   6   7
ATOM      7  C   UNL     1      -2.698   2.878  23.498  0.00  0.00    +0.091 C 
BRANCH   7   8
ATOM      8  C   UNL     1      -3.328   3.090  23.987  0.00  0.00    +0.227 A 
ATOM      9  N   UNL     1      -3.507   3.853  24.244  0.00  0.00    -0.111 NA
ATOM     10  N   UNL     1      -4.178   3.811  24.720  0.00  0.00    -0.107 NA
ATOM     11  C   UNL     1      -4.415   3.021  24.758  0.00  0.00    +0.251 A 
ATOM     12  O   UNL     1      -3.889   2.576  24.306  0.00  0.00    -0.419 OA
BRANCH  11  13
ATOM     13  C   UNL     1      -5.063   2.729  25.177  0.00  0.00    +0.074 A 
ATOM     14  C   UNL     1      -5.247   3.035  25.920  0.00  0.00    +0.104 A 
ATOM     15  N   UNL     1      -5.896   2.743  26.337  0.00  0.00    -0.242 NA
ATOM     16  C   UNL     1      -6.361   2.145  26.011  0.00  0.00    +0.099 A 
ATOM     17  C   UNL     1      -6.177   1.838  25.267  0.00  0.00    +0.021 A 
ATOM     18  C   UNL     1      -5.528   2.131  24.849  0.00  0.00    +0.008 A 
ENDBRANCH  11  13
ENDBRANCH   7   8
ENDBRANCH   6   7
BRANCH  22  23
ATOM     23  C   UNL     1      -0.396   0.780  24.588  0.00  0.00    +0.077 C 
BRANCH  23  24
ATOM     24  N   UNL     1      -0.380   0.004  24.310  0.00  0.00    -0.260 NA
ATOM     25  C   UNL     1       0.103  -0.196  23.672  0.00  0.00    +0.090 C 
BRANCH  24  26
ATOM     26  C   UNL     1      -0.847  -0.573  24.670  0.00  0.00    +0.151 C 
BRANCH  26  27
ATOM     27  C   UNL     1      -0.502  -1.267  24.952  0.00  0.00    -0.060 C 
ATOM     28  C   UNL     1      -0.157  -1.962  25.234  0.00  0.00    -0.013 C 
ENDBRANCH  26  27
ENDBRANCH  24  26
ENDBRANCH  23  24
ENDBRANCH  22  23
TORSDOF 8
ENDMDL
MODEL 6
REMARK VINA RESULT:      -9.0      1.885      2.936
REMARK  Name = 
REMARK  8 active torsions:
REMARK  status: ('A' for Active; 'I' for Inactive)
REMARK    1  A    between atoms: C_2  and  C_4
REMARK    2  A    between atoms: C_6  and  C_7
REMARK    3  A    between atoms: C_7  and  C_8
REMARK    4  A    between atoms: C_11  and  C_13
REMARK    5  A    between atoms: C_22  and  C_23
REMARK    6  A    between atoms: C_23  and  N_24
REMARK    7  A    between atoms: N_24  and  C_26
REMARK    8  A    between atoms: C_26  and  C_27
REMARK                            x       y       z     vdW  Elec       q    Type
REMARK                         _______ _______ _______ _____ _____    ______ ____
ROOT
ATOM      4  C   UNL     1      -1.762   3.073  24.741  0.00  0.00    +0.006 C 
ATOM      5  C   UNL     1      -1.294   2.556  24.301  0.00  0.00    +0.005 C 
ATOM      6  C   UNL     1      -1.623   2.135  23.673  0.00  0.00    +0.027 C 
ATOM     19  C   UNL     1      -2.420   2.229  23.484  0.00  0.00    -0.048 C 
ATOM     20  C   UNL     1      -2.748   1.808  22.856  0.00  0.00    +0.026 C 
ATOM     21  C   UNL     1      -2.888   2.746  23.924  0.00  0.00    -0.034 C 
ATOM     22  C   UNL     1      -2.559   3.168  24.552  0.00  0.00    +0.037 C 
ENDROOT
BRANCH   4   2
ATOM      1  C   UNL     1      -1.412   3.162  26.123  0.00  0.00    +0.000 C 
ATOM      2  C   UNL     1      -1.434   3.494  25.369  0.00  0.00    +0.000 C 
ATOM      3  C   UNL     1      -1.126   4.249  25.244  0.00  0.00    +0.000 C 
ENDBRANCH   4   2
BRANCH   6   7
ATOM      7  C   UNL     1      -1.153   1.617  23.232  0.00  0.00    +0.091 C 
BRANCH   7   8
ATOM      8  C   UNL     1      -0.824   0.951  23.592  0.00  0.00    +0.227 A 
ATOM      9  N   UNL     1      -0.020   0.816  23.717  0.00  0.00    -0.111 NA
ATOM     10  N   UNL     1       0.060   0.086  24.091  0.00  0.00    -0.107 NA
ATOM     11  C   UNL     1      -0.695  -0.231  24.197  0.00  0.00    +0.251 A 
ATOM     12  O   UNL     1      -1.241   0.304  23.889  0.00  0.00    -0.419 OA
BRANCH  11  13
ATOM     13  C   UNL     1      -0.871  -0.955  24.551  0.00  0.00    +0.074 A 
ATOM     14  C   UNL     1      -0.527  -1.158  25.271  0.00  0.00    +0.104 A 
ATOM     15  N   UNL     1      -0.703  -1.883  25.624  0.00  0.00    -0.242 NA
ATOM     16  C   UNL     1      -1.225  -2.405  25.255  0.00  0.00    +0.099 A 
ATOM     17  C   UNL     1      -1.570  -2.202  24.533  0.00  0.00    +0.021 A 
ATOM     18  C   UNL     1      -1.394  -1.477  24.181  0.00  0.00    +0.008 A 
ENDBRANCH  11  13
ENDBRANCH   7   8
ENDBRANCH   6   7
BRANCH  22  23
ATOM     23  C   UNL     1      -3.029   3.685  24.992  0.00  0.00    +0.077 C 
BRANCH  23  24
ATOM     24  N   UNL     1      -3.841   3.723  24.855  0.00  0.00    -0.260 NA
ATOM     25  C   UNL     1      -4.133   4.182  24.235  0.00  0.00    +0.090 C 
BRANCH  24  26
ATOM     26  C   UNL     1      -4.362   3.303  25.337  0.00  0.00    +0.151 C 
BRANCH  26  27
ATOM     27  C   UNL     1      -5.101   3.619  25.520  0.00  0.00    -0.060 C 
ATOM     28  C   UNL     1      -5.842   3.935  25.703  0.00  0.00    -0.013 C 
ENDBRANCH  26  27
ENDBRANCH  24  26
ENDBRANCH  23  24
ENDBRANCH  22  23
TORSDOF 8
ENDMDL
MODEL 7
REMARK VINA RESULT:      -8.9      2.069      3.303
REMARK  Name = 
REMARK  8 active torsions:
REMARK  status: ('A' for Active; 'I' for Inactive)
REMARK    1  A    between atoms: C_2  and  C_4
REMARK    2  A    between atoms: C_6  and  C_7
REMARK    3  A    between atoms: C_7  and  C_8
REMARK    4  A    between atoms: C_11  and  C_13
REMARK    5  A    between atoms: C_22  and  C_23
REMARK    6  A    between atoms: C_23  and  N_24
REMARK    7  A    between atoms: N_24  and  C_26
REMARK    8  A    between atoms: C_26  and  C_27
REMARK                            x       y       z     vdW  Elec       q    Type
REMARK                         _______ _______ _______ _____ _____    ______ ____
ROOT
ATOM      4  C   UNL     1      -3.518   1.641  24.095  0.00  0.00    +0.006 C 
ATOM      5  C   UNL     1      -3.032   0.976  24.095  0.00  0.00    +0.005 C 
ATOM      6  C   UNL     1      -3.247   0.307  24.528  0.00  0.00    +0.027 C 
ATOM     19  C   UNL     1      -3.948   0.305  24.962  0.00  0.00    -0.048 C 
ATOM     20  C   UNL     1      -4.164  -0.363  25.395  0.00  0.00    +0.026 C 
ATOM     21  C   UNL     1      -4.434   0.971  24.962  0.00  0.00    -0.034 C 
ATOM     22  C   UNL     1      -4.219   1.640  24.529  0.00  0.00    +0.037 C 
ENDROOT
BRANCH   4   2
ATOM      1  C   UNL     1      -3.543   2.388  22.877  0.00  0.00    +0.000 C 
ATOM      2  C   UNL     1      -3.303   2.310  23.662  0.00  0.00    +0.000 C 
ATOM      3  C   UNL     1      -2.847   2.901  24.014  0.00  0.00    +0.000 C 
ENDBRANCH   4   2
BRANCH   6   7
ATOM      7  C   UNL     1      -2.760  -0.359  24.527  0.00  0.00    +0.091 C 
BRANCH   7   8
ATOM      8  C   UNL     1      -1.943  -0.274  24.600  0.00  0.00    +0.227 A 
ATOM      9  N   UNL     1      -1.510  -0.325  25.300  0.00  0.00    -0.111 NA
ATOM     10  N   UNL     1      -0.715  -0.205  25.119  0.00  0.00    -0.107 NA
ATOM     11  C   UNL     1      -0.656  -0.079  24.304  0.00  0.00    +0.251 A 
ATOM     12  O   UNL     1      -1.415  -0.122  23.984  0.00  0.00    -0.419 OA
BRANCH  11  13
ATOM     13  C   UNL     1       0.040   0.064  23.886  0.00  0.00    +0.074 A 
ATOM     14  C   UNL     1       0.379  -0.533  23.430  0.00  0.00    +0.104 A 
ATOM     15  N   UNL     1       1.076  -0.389  23.012  0.00  0.00    -0.242 NA
ATOM     16  C   UNL     1       1.434   0.353  23.050  0.00  0.00    +0.099 A 
ATOM     17  C   UNL     1       1.095   0.951  23.507  0.00  0.00    +0.021 A 
ATOM     18  C   UNL     1       0.398   0.807  23.925  0.00  0.00    +0.008 A 
ENDBRANCH  11  13
ENDBRANCH   7   8
ENDBRANCH   6   7
BRANCH  22  23
ATOM     23  C   UNL     1      -4.706   2.306  24.530  0.00  0.00    +0.077 C 
BRANCH  23  24
ATOM     24  N   UNL     1      -5.363   2.336  25.027  0.00  0.00    -0.260 NA
ATOM     25  C   UNL     1      -6.039   1.901  24.844  0.00  0.00    +0.090 C 
BRANCH  24  26
ATOM     26  C   UNL     1      -5.345   2.802  25.708  0.00  0.00    +0.151 C 
BRANCH  26  27
ATOM     27  C   UNL     1      -5.682   3.554  25.703  0.00  0.00    -0.060 C 
ATOM     28  C   UNL     1      -6.020   4.308  25.698  0.00  0.00    -0.013 C 
ENDBRANCH  26  27
ENDBRANCH  24  26
ENDBRANCH  23  24
ENDBRANCH  22  23
TORSDOF 8
ENDMDL
