MODEL 1
REMARK VINA RESULT:      -9.1      0.000      0.000
REMARK  Name = 
REMARK  6 active torsions:
REMARK  status: ('A' for Active; 'I' for Inactive)
REMARK    1  A    between atoms: N_3  and  C_4
REMARK    2  A    between atoms: C_8  and  N_12
REMARK    3  A    between atoms: C_16  and  O_17
REMARK    4  A    between atoms: O_17  and  C_18
REMARK    5  A    between atoms: C_21  and  N_24
REMARK    6  A    between atoms: N_29  and  C_30
REMARK                            x       y       z     vdW  Elec       q    Type
REMARK                         _______ _______ _______ _____ _____    ______ ____
ROOT
ATOM      4  C   UNL     1       1.585   0.535  22.991  0.00  0.00    +0.156 C 
ATOM      5  C   UNL     1       1.326  -0.178  22.667  0.00  0.00    +0.166 C 
ATOM      6  O   UNL     1       0.587  -0.351  22.991  0.00  0.00    -0.350 OA
ATOM      7  C   UNL     1       0.389   0.255  23.513  0.00  0.00    +0.169 C 
ATOM      8  C   UNL     1      -0.190   0.524  24.036  0.00  0.00    +0.170 C 
ATOM      9  C   UNL     1       0.069   1.238  24.359  0.00  0.00    +0.169 C 
ATOM     10  O   UNL     1       0.808   1.410  24.036  0.00  0.00    -0.350 OA
ATOM     11  C   UNL     1       1.006   0.803  23.513  0.00  0.00    +0.167 C 
ENDROOT
BRANCH   8  12
ATOM     12  N   UNL     1      -0.903   0.145  24.206  0.00  0.00    -0.180 N 
ATOM     13  N   UNL     1      -0.992  -0.643  24.433  0.00  0.00    -0.040 NA
ATOM     14  N   UNL     1      -1.796  -0.787  24.546  0.00  0.00    -0.020 NA
ATOM     15  N   UNL     1      -2.204  -0.088  24.388  0.00  0.00    -0.071 NA
ATOM     16  C   UNL     1      -1.652   0.488  24.178  0.00  0.00    +0.343 A 
BRANCH  16  17
ATOM     17  O   UNL     1      -1.821   1.270  23.976  0.00  0.00    -0.421 OA
BRANCH  17  18
ATOM     18  C   UNL     1      -2.517   1.625  24.244  0.00  0.00    +0.149 A 
ATOM     19  C   UNL     1      -3.195   1.609  23.775  0.00  0.00    +0.039 A 
ATOM     20  C   UNL     1      -3.890   1.964  24.042  0.00  0.00    +0.022 A 
ATOM     21  C   UNL     1      -3.907   2.334  24.779  0.00  0.00    +0.085 A 
ATOM     22  C   UNL     1      -3.228   2.350  25.249  0.00  0.00    +0.022 A 
ATOM     23  C   UNL     1      -2.533   1.995  24.981  0.00  0.00    +0.039 A 
BRANCH  21  24
ATOM     24  N   UNL     1      -4.602   2.689  25.048  0.00  0.00    -0.208 N 
ATOM     25  C   UNL     1      -5.310   2.300  25.215  0.00  0.00    +0.202 A 
ATOM     26  N   UNL     1      -5.857   2.865  25.467  0.00  0.00    -0.200 NA
ATOM     27  C   UNL     1      -5.486   3.601  25.455  0.00  0.00    +0.221 A 
ATOM     28  N   UNL     1      -4.710   3.492  25.196  0.00  0.00    -0.141 NA
ENDBRANCH  21  24
ENDBRANCH  17  18
ENDBRANCH  16  17
ENDBRANCH   8  12
BRANCH   4   3
ATOM      1  O   UNL     1       3.016  -0.185  23.386  0.00  0.00    -0.249 OA
ATOM      2  C   UNL     1       3.014   0.554  23.018  0.00  0.00    +0.339 C 
ATOM      3  N   UNL     1       2.298   0.914  22.821  0.00  0.00    -0.184 NA
ATOM     29  N   UNL     1       3.726   0.933  22.849  0.00  0.00    -0.189 NA
BRANCH  29  30
ATOM     30  C   UNL     1       4.442   0.573  23.046  0.00  0.00    +0.097 C 
ATOM     31  C   UNL     1       4.858   0.142  22.479  0.00  0.00    +0.022 C 
ATOM     32  C   UNL     1       5.574  -0.217  22.677  0.00  0.00    +0.002 C 
ATOM     33  C   UNL     1       5.874  -0.146  23.442  0.00  0.00    +0.000 C 
ATOM     34  C   UNL     1       5.458   0.285  24.010  0.00  0.00    +0.002 C 
ATOM     35  C   UNL     1       4.742   0.644  23.811  0.00  0.00    +0.022 C 
ENDBRANCH  29  30
ENDBRANCH   4   3
TORSDOF 6
ENDMDL
MODEL 2
REMARK VINA RESULT:      -8.3      2.061      7.028
REMARK  Name = 
REMARK  6 active torsions:
REMARK  status: ('A' for Active; 'I' for Inactive)
REMARK    1  A    between atoms: N_3  and  C_4
REMARK    2  A    between atoms: C_8  and  N_12
REMARK    3  A    between atoms: C_16  and  O_17
REMARK    4  A    between atoms: O_17  and  C_18
REMARK    5  A    between atoms: C_21  and  N_24
REMARK    6  A    between atoms: N_29  and  C_30
REMARK                            x       y       z     vdW  Elec       q    Type
REMARK                         _______ _______ _______ _____ _____    ______ ____
ROOT
ATOM      4  C   UNL     1      -4.469   0.117  24.988  0.00  0.00    +0.156 C 
ATOM      5  C   UNL     1      -4.389   0.045  24.171  0.00  0.00    +0.166 C 
ATOM      6  O   UNL     1      -3.806  -0.518  24.020  0.00  0.00    -0.350 OA
ATOM      7  C   UNL     1      -3.525  -0.795  24.744  0.00  0.00    +0.169 C 
ATOM      8  C   UNL     1      -2.992  -1.315  25.099  0.00  0.00    +0.170 C 
ATOM      9  C   UNL     1      -3.072  -1.244  25.917  0.00  0.00    +0.169 C 
ATOM     10  O   UNL     1      -3.655  -0.680  26.068  0.00  0.00    -0.350 OA
ATOM     11  C   UNL     1      -3.935  -0.403  25.343  0.00  0.00    +0.167 C 
ENDROOT
BRANCH   8  12
ATOM     12  N   UNL     1      -2.470  -1.818  24.705  0.00  0.00    -0.180 N 
ATOM     13  N   UNL     1      -2.653  -2.561  24.395  0.00  0.00    -0.040 NA
ATOM     14  N   UNL     1      -1.969  -2.868  24.050  0.00  0.00    -0.020 NA
ATOM     15  N   UNL     1      -1.365  -2.316  24.147  0.00  0.00    -0.071 NA
ATOM     16  C   UNL     1      -1.674  -1.667  24.552  0.00  0.00    +0.343 A 
BRANCH  16  17
ATOM     17  O   UNL     1      -1.259  -0.987  24.766  0.00  0.00    -0.421 OA
BRANCH  17  18
ATOM     18  C   UNL     1      -0.596  -0.754  24.333  0.00  0.00    +0.149 A 
ATOM     19  C   UNL     1       0.108  -1.178  24.396  0.00  0.00    +0.039 A 
ATOM     20  C   UNL     1       0.770  -0.946  23.964  0.00  0.00    +0.022 A 
ATOM     21  C   UNL     1       0.728  -0.288  23.467  0.00  0.00    +0.085 A 
ATOM     22  C   UNL     1       0.023   0.137  23.403  0.00  0.00    +0.022 A 
ATOM     23  C   UNL     1      -0.639  -0.096  23.837  0.00  0.00    +0.039 A 
BRANCH  21  24
ATOM     24  N   UNL     1       1.390  -0.054  23.033  0.00  0.00    -0.208 N 
ATOM     25  C   UNL     1       1.596  -0.324  22.281  0.00  0.00    +0.202 A 
ATOM     26  N   UNL     1       2.296   0.053  22.058  0.00  0.00    -0.200 NA
ATOM     27  C   UNL     1       2.521   0.555  22.672  0.00  0.00    +0.221 A 
ATOM     28  N   UNL     1       1.961   0.489  23.274  0.00  0.00    -0.141 NA
ENDBRANCH  21  24
ENDBRANCH  17  18
ENDBRANCH  16  17
ENDBRANCH   8  12
BRANCH   4   3
ATOM      1  O   UNL     1      -4.282   1.752  24.875  0.00  0.00    -0.249 OA
ATOM      2  C   UNL     1      -4.898   1.438  25.326  0.00  0.00    +0.339 C 
ATOM      3  N   UNL     1      -4.991   0.620  25.383  0.00  0.00    -0.184 NA
ATOM     29  N   UNL     1      -5.419   1.940  25.720  0.00  0.00    -0.189 NA
BRANCH  29  30
ATOM     30  C   UNL     1      -5.326   2.758  25.664  0.00  0.00    +0.097 C 
ATOM     31  C   UNL     1      -4.601   3.105  25.849  0.00  0.00    +0.022 C 
ATOM     32  C   UNL     1      -4.509   3.923  25.793  0.00  0.00    +0.002 C 
ATOM     33  C   UNL     1      -5.141   4.394  25.551  0.00  0.00    +0.000 C 
ATOM     34  C   UNL     1      -5.867   4.047  25.365  0.00  0.00    +0.002 C 
ATOM     35  C   UNL     1      -5.959   3.229  25.422  0.00  0.00    +0.022 C 
ENDBRANCH  29  30
ENDBRANCH   4   3
TORSDOF 6
ENDMDL
MODEL 3
REMARK VINA RESULT:      -8.2      2.902      4.741
REMARK  Name = 
REMARK  6 active torsions:
REMARK  status: ('A' for Active; 'I' for Inactive)
REMARK    1  A    between atoms: N_3  and  C_4
REMARK    2  A    between atoms: C_8  and  N_12
REMARK    3  A    between atoms: C_16  and  O_17
REMARK    4  A    between atoms: O_17  and  C_18
REMARK    5  A    between atoms: C_21  and  N_24
REMARK    6  A    between atoms: N_29  and  C_30
REMARK                            x       y       z     vdW  Elec       q    Type
REMARK                         _______ _______ _______ _____ _____    ______ ____
ROOT
ATOM      4  C   UNL     1      -0.958  -0.293  25.101  0.00  0.00    +0.156 C 
ATOM      5  C   UNL     1      -1.147  -0.055  25.868  0.00  0.00    +0.166 C 
ATOM      6  O   UNL     1      -0.977   0.749  25.933  0.00  0.00    -0.350 OA
ATOM      7  C   UNL     1      -0.684   1.008  25.208  0.00  0.00    +0.169 C 
ATOM      8  C   UNL     1      -0.397   1.665  24.799  0.00  0.00    +0.170 C 
ATOM      9  C   UNL     1      -0.209   1.427  24.032  0.00  0.00    +0.169 C 
ATOM     10  O   UNL     1      -0.379   0.623  23.967  0.00  0.00    -0.350 OA
ATOM     11  C   UNL     1      -0.672   0.364  24.693  0.00  0.00    +0.167 C 
ENDROOT
BRANCH   8  12
ATOM     12  N   UNL     1      -0.314   2.427  25.105  0.00  0.00    -0.180 N 
ATOM     13  N   UNL     1       0.239   2.666  25.670  0.00  0.00    -0.040 NA
ATOM     14  N   UNL     1       0.126   3.470  25.813  0.00  0.00    -0.020 NA
ATOM     15  N   UNL     1      -0.496   3.729  25.338  0.00  0.00    -0.071 NA
ATOM     16  C   UNL     1      -0.768   3.084  24.900  0.00  0.00    +0.343 A 
BRANCH  16  17
ATOM     17  O   UNL     1      -1.386   3.095  24.353  0.00  0.00    -0.421 OA
BRANCH  17  18
ATOM     18  C   UNL     1      -2.157   3.250  24.605  0.00  0.00    +0.149 A 
ATOM     19  C   UNL     1      -2.289   3.758  25.241  0.00  0.00    +0.039 A 
ATOM     20  C   UNL     1      -3.059   3.912  25.492  0.00  0.00    +0.022 A 
ATOM     21  C   UNL     1      -3.698   3.559  25.107  0.00  0.00    +0.085 A 
ATOM     22  C   UNL     1      -3.565   3.050  24.471  0.00  0.00    +0.022 A 
ATOM     23  C   UNL     1      -2.795   2.896  24.220  0.00  0.00    +0.039 A 
BRANCH  21  24
ATOM     24  N   UNL     1      -4.468   3.713  25.358  0.00  0.00    -0.208 N 
ATOM     25  C   UNL     1      -4.956   3.191  25.771  0.00  0.00    +0.202 A 
ATOM     26  N   UNL     1      -5.677   3.570  25.909  0.00  0.00    -0.200 NA
ATOM     27  C   UNL     1      -5.632   4.326  25.581  0.00  0.00    +0.221 A 
ATOM     28  N   UNL     1      -4.886   4.414  25.241  0.00  0.00    -0.141 NA
ENDBRANCH  21  24
ENDBRANCH  17  18
ENDBRANCH  16  17
ENDBRANCH   8  12
BRANCH   4   3
ATOM      1  O   UNL     1      -2.457  -0.972  24.975  0.00  0.00    -0.249 OA
ATOM      2  C   UNL     1      -1.791  -1.395  24.732  0.00  0.00    +0.339 C 
ATOM      3  N   UNL     1      -1.042  -1.055  24.795  0.00  0.00    -0.184 NA
ATOM     29  N   UNL     1      -1.875  -2.156  24.427  0.00  0.00    -0.189 NA
BRANCH  29  30
ATOM     30  C   UNL     1      -2.624  -2.496  24.363  0.00  0.00    +0.097 C 
ATOM     31  C   UNL     1      -3.165  -2.203  23.815  0.00  0.00    +0.022 C 
ATOM     32  C   UNL     1      -3.915  -2.543  23.752  0.00  0.00    +0.002 C 
ATOM     33  C   UNL     1      -4.122  -3.176  24.238  0.00  0.00    +0.000 C 
ATOM     34  C   UNL     1      -3.580  -3.470  24.787  0.00  0.00    +0.002 C 
ATOM     35  C   UNL     1      -2.831  -3.130  24.849  0.00  0.00    +0.022 C 
ENDBRANCH  29  30
ENDBRANCH   4   3
TORSDOF 6
ENDMDL
MODEL 4
REMARK VINA RESULT:      -7.9      1.426      7.076
REMARK  Name = 
REMARK  6 active torsions:
REMARK  status: ('A' for Active; 'I' for Inactive)
REMARK    1  A    between atoms: N_3  and  C_4
REMARK    2  A    between atoms: C_8  and  N_12
REMARK    3  A    between atoms: C_16  and  O_17
REMARK    4  A    between atoms: O_17  and  C_18
REMARK    5  A    between atoms: C_21  and  N_24
REMARK    6  A    between atoms: N_29  and  C_30
REMARK                            x       y       z     vdW  Elec       q    Type
REMARK                         _______ _______ _______ _____ _____    ______ ____
ROOT
ATOM      4  C   UNL     1      -3.372   0.436  24.994  0.00  0.00    +0.156 C 
ATOM      5  C   UNL     1      -2.898   0.646  25.635  0.00  0.00    +0.166 C 
ATOM      6  O   UNL     1      -2.204   0.202  25.593  0.00  0.00    -0.350 OA
ATOM      7  C   UNL     1      -2.249  -0.281  24.927  0.00  0.00    +0.169 C 
ATOM      8  C   UNL     1      -1.849  -0.854  24.488  0.00  0.00    +0.170 C 
ATOM      9  C   UNL     1      -2.323  -1.063  23.847  0.00  0.00    +0.169 C 
ATOM     10  O   UNL     1      -3.017  -0.620  23.889  0.00  0.00    -0.350 OA
ATOM     11  C   UNL     1      -2.972  -0.136  24.557  0.00  0.00    +0.167 C 
ENDROOT
BRANCH   8  12
ATOM     12  N   UNL     1      -1.103  -1.163  24.661  0.00  0.00    -0.180 N 
ATOM     13  N   UNL     1      -0.938  -1.749  25.218  0.00  0.00    -0.040 NA
ATOM     14  N   UNL     1      -0.125  -1.889  25.209  0.00  0.00    -0.020 NA
ATOM     15  N   UNL     1       0.212  -1.389  24.646  0.00  0.00    -0.071 NA
ATOM     16  C   UNL     1      -0.392  -0.940  24.308  0.00  0.00    +0.343 A 
BRANCH  16  17
ATOM     17  O   UNL     1      -0.301  -0.369  23.720  0.00  0.00    -0.421 OA
BRANCH  17  18
ATOM     18  C   UNL     1       0.455  -0.149  23.471  0.00  0.00    +0.149 A 
ATOM     19  C   UNL     1       0.843  -0.590  22.893  0.00  0.00    +0.039 A 
ATOM     20  C   UNL     1       1.599  -0.371  22.644  0.00  0.00    +0.022 A 
ATOM     21  C   UNL     1       1.966   0.290  22.975  0.00  0.00    +0.085 A 
ATOM     22  C   UNL     1       1.577   0.731  23.554  0.00  0.00    +0.022 A 
ATOM     23  C   UNL     1       0.822   0.511  23.802  0.00  0.00    +0.039 A 
BRANCH  21  24
ATOM     24  N   UNL     1       2.722   0.510  22.727  0.00  0.00    -0.208 N 
ATOM     25  C   UNL     1       3.115   0.224  22.061  0.00  0.00    +0.202 A 
ATOM     26  N   UNL     1       3.853   0.591  22.023  0.00  0.00    -0.200 NA
ATOM     27  C   UNL     1       3.915   1.103  22.667  0.00  0.00    +0.221 A 
ATOM     28  N   UNL     1       3.216   1.053  23.102  0.00  0.00    -0.141 NA
ENDBRANCH  21  24
ENDBRANCH  17  18
ENDBRANCH  16  17
ENDBRANCH   8  12
BRANCH   4   3
ATOM      1  O   UNL     1      -3.731   1.996  25.395  0.00  0.00    -0.249 OA
ATOM      2  C   UNL     1      -4.298   1.525  25.022  0.00  0.00    +0.339 C 
ATOM      3  N   UNL     1      -4.118   0.745  24.822  0.00  0.00    -0.184 NA
ATOM     29  N   UNL     1      -5.042   1.835  24.849  0.00  0.00    -0.189 NA
BRANCH  29  30
ATOM     30  C   UNL     1      -5.222   2.615  25.049  0.00  0.00    +0.097 C 
ATOM     31  C   UNL     1      -4.829   3.237  24.678  0.00  0.00    +0.022 C 
ATOM     32  C   UNL     1      -5.009   4.017  24.878  0.00  0.00    +0.002 C 
ATOM     33  C   UNL     1      -5.583   4.174  25.450  0.00  0.00    +0.000 C 
ATOM     34  C   UNL     1      -5.977   3.551  25.821  0.00  0.00    +0.002 C 
ATOM     35  C   UNL     1      -5.796   2.771  25.620  0.00  0.00    +0.022 C 
ENDBRANCH  29  30
ENDBRANCH   4   3
TORSDOF 6
ENDMDL
MODEL 5
REMARK VINA RESULT:      -7.5      1.346      1.771
REMARK  Name = 
REMARK  6 active torsions:
REMARK  status: ('A' for Active; 'I' for Inactive)
REMARK    1  A    between atoms: N_3  and  C_4
REMARK    2  A    between atoms: C_8  and  N_12
REMARK    3  A    between atoms: C_16  and  O_17
REMARK    4  A    between atoms: O_17  and  C_18
REMARK    5  A    between atoms: C_21  and  N_24
REMARK    6  A    between atoms: N_29  and  C_30
REMARK                            x       y       z     vdW  Elec       q    Type
REMARK                         _______ _______ _______ _____ _____    ______ ____
ROOT
ATOM      4  C   UNL     1       1.026   1.148  23.595  0.00  0.00    +0.156 C 
ATOM      5  C   UNL     1       1.098   1.968  23.538  0.00  0.00    +0.166 C 
ATOM      6  O   UNL     1       0.533   2.308  24.033  0.00  0.00    -0.350 OA
ATOM      7  C   UNL     1       0.112   1.699  24.397  0.00  0.00    +0.169 C 
ATOM      8  C   UNL     1      -0.497   1.532  24.928  0.00  0.00    +0.170 C 
ATOM      9  C   UNL     1      -0.569   0.713  24.985  0.00  0.00    +0.169 C 
ATOM     10  O   UNL     1      -0.004   0.373  24.490  0.00  0.00    -0.350 OA
ATOM     11  C   UNL     1       0.417   0.982  24.126  0.00  0.00    +0.167 C 
ENDROOT
BRANCH   8  12
ATOM     12  N   UNL     1      -0.954   2.089  25.331  0.00  0.00    -0.180 N 
ATOM     13  N   UNL     1      -0.695   2.579  25.942  0.00  0.00    -0.040 NA
ATOM     14  N   UNL     1      -1.332   3.045  26.182  0.00  0.00    -0.020 NA
ATOM     15  N   UNL     1      -1.984   2.844  25.719  0.00  0.00    -0.071 NA
ATOM     16  C   UNL     1      -1.750   2.253  25.193  0.00  0.00    +0.343 A 
BRANCH  16  17
ATOM     17  O   UNL     1      -2.230   1.889  24.628  0.00  0.00    -0.421 OA
BRANCH  17  18
ATOM     18  C   UNL     1      -3.051   1.903  24.714  0.00  0.00    +0.149 A 
ATOM     19  C   UNL     1      -3.441   1.264  25.059  0.00  0.00    +0.039 A 
ATOM     20  C   UNL     1      -4.261   1.277  25.144  0.00  0.00    +0.022 A 
ATOM     21  C   UNL     1      -4.692   1.931  24.884  0.00  0.00    +0.085 A 
ATOM     22  C   UNL     1      -4.302   2.572  24.538  0.00  0.00    +0.022 A 
ATOM     23  C   UNL     1      -3.481   2.557  24.454  0.00  0.00    +0.039 A 
BRANCH  21  24
ATOM     24  N   UNL     1      -5.512   1.946  24.969  0.00  0.00    -0.208 N 
ATOM     25  C   UNL     1      -5.933   2.380  25.530  0.00  0.00    +0.202 A 
ATOM     26  N   UNL     1      -6.737   2.232  25.416  0.00  0.00    -0.200 NA
ATOM     27  C   UNL     1      -6.812   1.707  24.785  0.00  0.00    +0.221 A 
ATOM     28  N   UNL     1      -6.055   1.530  24.508  0.00  0.00    -0.141 NA
ENDBRANCH  21  24
ENDBRANCH  17  18
ENDBRANCH  16  17
ENDBRANCH   8  12
BRANCH   4   3
ATOM      1  O   UNL     1       2.669   1.164  23.748  0.00  0.00    -0.249 OA
ATOM      2  C   UNL     1       2.305   0.599  23.269  0.00  0.00    +0.339 C 
ATOM      3  N   UNL     1       1.483   0.592  23.192  0.00  0.00    -0.184 NA
ATOM     29  N   UNL     1       2.762   0.044  22.866  0.00  0.00    -0.189 NA
BRANCH  29  30
ATOM     30  C   UNL     1       3.584   0.051  22.942  0.00  0.00    +0.097 C 
ATOM     31  C   UNL     1       4.031   0.607  22.530  0.00  0.00    +0.022 C 
ATOM     32  C   UNL     1       4.853   0.615  22.606  0.00  0.00    +0.002 C 
ATOM     33  C   UNL     1       5.226   0.066  23.095  0.00  0.00    +0.000 C 
ATOM     34  C   UNL     1       4.779  -0.491  23.509  0.00  0.00    +0.002 C 
ATOM     35  C   UNL     1       3.957  -0.498  23.432  0.00  0.00    +0.022 C 
ENDBRANCH  29  30
ENDBRANCH   4   3
TORSDOF 6
ENDMDL
MODEL 6
REMARK VINA RESULT:      -6.8     16.968     17.937
REMARK  Name = 
REMARK  6 active torsions:
REMARK  status: ('A' for Active; 'I' for Inactive)
REMARK    1  A    between atoms: N_3  and  C_4
REMARK    2  A    between atoms: C_8  and  N_12
REMARK    3  A    between atoms: C_16  and  O_17
REMARK    4  A    between atoms: O_17  and  C_18
REMARK    5  A    between atoms: C_21  and  N_24
REMARK    6  A    between atoms: N_29  and  C_30
REMARK                            x       y       z     vdW  Elec       q    Type
REMARK                         _______ _______ _______ _____ _____    ______ ____
ROOT
ATOM      4  C   UNL     1      -4.901  -8.919   9.690  0.00  0.00    +0.156 C 
ATOM      5  C   UNL     1      -5.094  -8.205  10.055  0.00  0.00    +0.166 C 
ATOM      6  O   UNL     1      -5.916  -8.134  10.054  0.00  0.00    -0.350 OA
ATOM      7  C   UNL     1      -6.230  -8.802   9.688  0.00  0.00    +0.169 C 
ATOM      8  C   UNL     1      -6.932  -9.173   9.461  0.00  0.00    +0.170 C 
ATOM      9  C   UNL     1      -6.738  -9.886   9.096  0.00  0.00    +0.169 C 
ATOM     10  O   UNL     1      -5.916  -9.958   9.098  0.00  0.00    -0.350 OA
ATOM     11  C   UNL     1      -5.602  -9.288   9.464  0.00  0.00    +0.167 C 
ENDROOT
BRANCH   8  12
ATOM     12  N   UNL     1      -7.694  -8.879   9.579  0.00  0.00    -0.180 N 
ATOM     13  N   UNL     1      -8.040  -8.249   9.172  0.00  0.00    -0.040 NA
ATOM     14  N   UNL     1      -8.804  -8.146   9.466  0.00  0.00    -0.020 NA
ATOM     15  N   UNL     1      -8.930  -8.711  10.052  0.00  0.00    -0.071 NA
ATOM     16  C   UNL     1      -8.244  -9.164  10.122  0.00  0.00    +0.343 A 
BRANCH  16  17
ATOM     17  O   UNL     1      -8.130  -9.793  10.645  0.00  0.00    -0.421 OA
BRANCH  17  18
ATOM     18  C   UNL     1      -8.591  -9.852  11.327  0.00  0.00    +0.149 A 
ATOM     19  C   UNL     1      -9.352 -10.166  11.284  0.00  0.00    +0.039 A 
ATOM     20  C   UNL     1      -9.813 -10.226  11.965  0.00  0.00    +0.022 A 
ATOM     21  C   UNL     1      -9.512  -9.970  12.690  0.00  0.00    +0.085 A 
ATOM     22  C   UNL     1      -8.751  -9.655  12.733  0.00  0.00    +0.022 A 
ATOM     23  C   UNL     1      -8.290  -9.597  12.051  0.00  0.00    +0.039 A 
BRANCH  21  24
ATOM     24  N   UNL     1      -9.973 -10.029  13.372  0.00  0.00    -0.208 N 
ATOM     25  C   UNL     1     -10.182 -10.729  13.756  0.00  0.00    +0.202 A 
ATOM     26  N   UNL     1     -10.644 -10.532  14.412  0.00  0.00    -0.200 NA
ATOM     27  C   UNL     1     -10.718  -9.710  14.432  0.00  0.00    +0.221 A 
ATOM     28  N   UNL     1     -10.304  -9.400  13.790  0.00  0.00    -0.141 NA
ENDBRANCH  21  24
ENDBRANCH  17  18
ENDBRANCH  16  17
ENDBRANCH   8  12
BRANCH   4   3
ATOM      1  O   UNL     1      -3.888  -9.122  10.977  0.00  0.00    -0.249 OA
ATOM      2  C   UNL     1      -3.631  -9.314  10.216  0.00  0.00    +0.339 C 
ATOM      3  N   UNL     1      -4.138  -9.212   9.573  0.00  0.00    -0.184 NA
ATOM     29  N   UNL     1      -2.869  -9.606  10.099  0.00  0.00    -0.189 NA
BRANCH  29  30
ATOM     30  C   UNL     1      -2.362  -9.708  10.742  0.00  0.00    +0.097 C 
ATOM     31  C   UNL     1      -1.744  -9.178  10.868  0.00  0.00    +0.022 C 
ATOM     32  C   UNL     1      -1.237  -9.279  11.511  0.00  0.00    +0.002 C 
ATOM     33  C   UNL     1      -1.349  -9.912  12.028  0.00  0.00    +0.000 C 
ATOM     34  C   UNL     1      -1.968 -10.443  11.903  0.00  0.00    +0.002 C 
ATOM     35  C   UNL     1      -2.475 -10.340  11.259  0.00  0.00    +0.022 C 
ENDBRANCH  29  30
ENDBRANCH   4   3
TORSDOF 6
ENDMDL
MODEL 7
REMARK VINA RESULT:      -6.5     15.025     17.134
REMARK  Name = 
REMARK  6 active torsions:
REMARK  status: ('A' for Active; 'I' for Inactive)
REMARK    1  A    between atoms: N_3  and  C_4
REMARK    2  A    between atoms: C_8  and  N_12
REMARK    3  A    between atoms: C_16  and  O_17
REMARK    4  A    between atoms: O_17  and  C_18
REMARK    5  A    between atoms: C_21  and  N_24
REMARK    6  A    between atoms: N_29  and  C_30
REMARK                            x       y       z     vdW  Elec       q    Type
REMARK                         _______ _______ _______ _____ _____    ______ ____
ROOT
ATOM      4  C   UNL     1      -7.184  -9.875  16.287  0.00  0.00    +0.156 C 
ATOM      5  C   UNL     1      -6.518  -9.507  16.605  0.00  0.00    +0.166 C 
ATOM      6  O   UNL     1      -5.890  -9.623  16.082  0.00  0.00    -0.350 OA
ATOM      7  C   UNL     1      -6.168 -10.062  15.443  0.00  0.00    +0.169 C 
ATOM      8  C   UNL     1      -5.952 -10.405  14.724  0.00  0.00    +0.170 C 
ATOM      9  C   UNL     1      -6.618 -10.774  14.406  0.00  0.00    +0.169 C 
ATOM     10  O   UNL     1      -7.246 -10.658  14.928  0.00  0.00    -0.350 OA
ATOM     11  C   UNL     1      -6.968 -10.218  15.569  0.00  0.00    +0.167 C 
ENDROOT
BRANCH   8  12
ATOM     12  N   UNL     1      -5.201 -10.384  14.383  0.00  0.00    -0.180 N 
ATOM     13  N   UNL     1      -4.483 -10.457  14.784  0.00  0.00    -0.040 NA
ATOM     14  N   UNL     1      -3.875 -10.404  14.230  0.00  0.00    -0.020 NA
ATOM     15  N   UNL     1      -4.215 -10.298  13.487  0.00  0.00    -0.071 NA
ATOM     16  C   UNL     1      -5.035 -10.286  13.581  0.00  0.00    +0.343 A 
BRANCH  16  17
ATOM     17  O   UNL     1      -5.591 -10.192  12.979  0.00  0.00    -0.421 OA
BRANCH  17  18
ATOM     18  C   UNL     1      -5.348  -9.960  12.225  0.00  0.00    +0.149 A 
ATOM     19  C   UNL     1      -5.412  -9.171  11.995  0.00  0.00    +0.039 A 
ATOM     20  C   UNL     1      -5.169  -8.939  11.242  0.00  0.00    +0.022 A 
ATOM     21  C   UNL     1      -4.861  -9.498  10.718  0.00  0.00    +0.085 A 
ATOM     22  C   UNL     1      -4.797 -10.288  10.948  0.00  0.00    +0.022 A 
ATOM     23  C   UNL     1      -5.040 -10.519  11.702  0.00  0.00    +0.039 A 
BRANCH  21  24
ATOM     24  N   UNL     1      -4.618  -9.267   9.964  0.00  0.00    -0.208 N 
ATOM     25  C   UNL     1      -3.850  -9.056   9.747  0.00  0.00    +0.202 A 
ATOM     26  N   UNL     1      -3.856  -8.865   8.944  0.00  0.00    -0.200 NA
ATOM     27  C   UNL     1      -4.627  -8.959   8.666  0.00  0.00    +0.221 A 
ATOM     28  N   UNL     1      -5.097  -9.207   9.296  0.00  0.00    -0.141 NA
ENDBRANCH  21  24
ENDBRANCH  17  18
ENDBRANCH  16  17
ENDBRANCH   8  12
BRANCH   4   3
ATOM      1  O   UNL     1      -8.170  -8.555  16.196  0.00  0.00    -0.249 OA
ATOM      2  C   UNL     1      -8.429  -9.237  16.583  0.00  0.00    +0.339 C 
ATOM      3  N   UNL     1      -7.935  -9.897  16.628  0.00  0.00    -0.184 NA
ATOM     29  N   UNL     1      -9.179  -9.258  16.923  0.00  0.00    -0.189 NA
BRANCH  29  30
ATOM     30  C   UNL     1      -9.672  -8.598  16.878  0.00  0.00    +0.097 C 
ATOM     31  C   UNL     1      -9.822  -8.148  17.552  0.00  0.00    +0.022 C 
ATOM     32  C   UNL     1     -10.315  -7.488  17.507  0.00  0.00    +0.002 C 
ATOM     33  C   UNL     1     -10.658  -7.278  16.786  0.00  0.00    +0.000 C 
ATOM     34  C   UNL     1     -10.508  -7.729  16.111  0.00  0.00    +0.002 C 
ATOM     35  C   UNL     1     -10.015  -8.389  16.158  0.00  0.00    +0.022 C 
ENDBRANCH  29  30
ENDBRANCH   4   3
TORSDOF 6
ENDMDL
MODEL 8
REMARK VINA RESULT:      -6.1     16.500     17.589
REMARK  Name = 
REMARK  6 active torsions:
REMARK  status: ('A' for Active; 'I' for Inactive)
REMARK    1  A    between atoms: N_3  and  C_4
REMARK    2  A    between atoms: C_8  and  N_12
REMARK    3  A    between atoms: C_16  and  O_17
REMARK    4  A    between atoms: O_17  and  C_18
REMARK    5  A    between atoms: C_21  and  N_24
REMARK    6  A    between atoms: N_29  and  C_30
REMARK                            x       y       z     vdW  Elec       q    Type
REMARK                         _______ _______ _______ _____ _____    ______ ____
ROOT
ATOM      4  C   UNL     1      -2.503  -9.798  11.546  0.00  0.00    +0.156 C 
ATOM      5  C   UNL     1      -2.593  -8.978  11.563  0.00  0.00    +0.166 C 
ATOM      6  O   UNL     1      -3.105  -8.766  10.952  0.00  0.00    -0.350 OA
ATOM      7  C   UNL     1      -3.332  -9.454  10.559  0.00  0.00    +0.169 C 
ATOM      8  C   UNL     1      -3.789  -9.749   9.938  0.00  0.00    +0.170 C 
ATOM      9  C   UNL     1      -3.698 -10.569   9.921  0.00  0.00    +0.169 C 
ATOM     10  O   UNL     1      -3.186 -10.781  10.532  0.00  0.00    -0.350 OA
ATOM     11  C   UNL     1      -2.959 -10.092  10.926  0.00  0.00    +0.167 C 
ENDROOT
BRANCH   8  12
ATOM     12  N   UNL     1      -4.254  -9.302   9.424  0.00  0.00    -0.180 N 
ATOM     13  N   UNL     1      -3.977  -8.801   8.830  0.00  0.00    -0.040 NA
ATOM     14  N   UNL     1      -4.630  -8.467   8.453  0.00  0.00    -0.020 NA
ATOM     15  N   UNL     1      -5.310  -8.761   8.813  0.00  0.00    -0.071 NA
ATOM     16  C   UNL     1      -5.078  -9.278   9.413  0.00  0.00    +0.343 A 
BRANCH  16  17
ATOM     17  O   UNL     1      -5.583  -9.696   9.915  0.00  0.00    -0.421 OA
BRANCH  17  18
ATOM     18  C   UNL     1      -6.399  -9.590   9.861  0.00  0.00    +0.149 A 
ATOM     19  C   UNL     1      -6.834 -10.014   9.303  0.00  0.00    +0.039 A 
ATOM     20  C   UNL     1      -7.650  -9.908   9.249  0.00  0.00    +0.022 A 
ATOM     21  C   UNL     1      -8.032  -9.379   9.754  0.00  0.00    +0.085 A 
ATOM     22  C   UNL     1      -7.597  -8.955  10.313  0.00  0.00    +0.022 A 
ATOM     23  C   UNL     1      -6.781  -9.062  10.367  0.00  0.00    +0.039 A 
BRANCH  21  24
ATOM     24  N   UNL     1      -8.848  -9.273   9.701  0.00  0.00    -0.208 N 
ATOM     25  C   UNL     1      -9.413  -9.873   9.666  0.00  0.00    +0.202 A 
ATOM     26  N   UNL     1     -10.158  -9.520   9.616  0.00  0.00    -0.200 NA
ATOM     27  C   UNL     1     -10.052  -8.702   9.621  0.00  0.00    +0.221 A 
ATOM     28  N   UNL     1      -9.243  -8.550   9.673  0.00  0.00    -0.141 NA
ENDBRANCH  21  24
ENDBRANCH  17  18
ENDBRANCH  16  17
ENDBRANCH   8  12
BRANCH   4   3
ATOM      1  O   UNL     1      -2.618  -9.566  13.176  0.00  0.00    -0.249 OA
ATOM      2  C   UNL     1      -2.094 -10.129  12.875  0.00  0.00    +0.339 C 
ATOM      3  N   UNL     1      -2.037 -10.245  12.060  0.00  0.00    -0.184 NA
ATOM     29  N   UNL     1      -1.629 -10.576  13.389  0.00  0.00    -0.189 NA
BRANCH  29  30
ATOM     30  C   UNL     1      -1.686 -10.461  14.204  0.00  0.00    +0.097 C 
ATOM     31  C   UNL     1      -1.107 -10.028  14.601  0.00  0.00    +0.022 C 
ATOM     32  C   UNL     1      -1.164  -9.913  15.416  0.00  0.00    +0.002 C 
ATOM     33  C   UNL     1      -1.801 -10.230  15.834  0.00  0.00    +0.000 C 
ATOM     34  C   UNL     1      -2.381 -10.663  15.436  0.00  0.00    +0.002 C 
ATOM     35  C   UNL     1      -2.323 -10.778  14.622  0.00  0.00    +0.022 C 
ENDBRANCH  29  30
ENDBRANCH   4   3
TORSDOF 6
ENDMDL
