REMARK  Name = 
REMARK  9 active torsions:
REMARK  status: ('A' for Active; 'I' for Inactive)
REMARK    1  A    between atoms: N_2  and  C_4
REMARK    2  A    between atoms: C_7  and  C_8
REMARK    3  A    between atoms: C_8  and  N_9
REMARK    4  A    between atoms: N_9  and  C_10
REMARK    5  A    between atoms: C_22  and  C_23
REMARK    6  A    between atoms: C_23  and  C_24
REMARK    7  A    between atoms: C_24  and  C_25
REMARK    8  A    between atoms: N_27  and  C_28
REMARK    9  A    between atoms: C_28  and  C_29
REMARK                            x       y       z     vdW  Elec       q    Type
REMARK                         _______ _______ _______ _____ _____    ______ ____
ROOT
ATOM     10  C   UNL     1       1.429   0.825   0.000  0.00  0.00    +0.073 C 
ATOM     11  C   UNL     1       0.877   1.438   0.000  0.00  0.00    +0.017 C 
ATOM     12  C   UNL     1       1.289   2.153   0.000  0.00  0.00    +0.001 C 
ATOM     13  C   UNL     1       1.544   2.937   0.000  0.00  0.00    +0.000 C 
ATOM     14  C   UNL     1       0.536   2.488   0.000  0.00  0.00    +0.000 C 
ATOM     15  C   UNL     1       2.096   1.981   0.000  0.00  0.00    +0.004 C 
ATOM     16  C   UNL     1       2.764   2.466   0.000  0.00  0.00    +0.030 C 
ATOM     17  C   UNL     1       3.518   2.130   0.000  0.00  0.00    +0.127 C 
ATOM     18  C   UNL     1       3.717   2.931   0.000  0.00  0.00    +0.033 C 
ATOM     19  O   UNL     1       4.340   2.073   0.000  0.00  0.00    -0.226 OA
ATOM     20  C   UNL     1       3.604   1.310   0.000  0.00  0.00    +0.030 C 
ATOM     21  C   UNL     1       2.936   0.825   0.000  0.00  0.00    +0.004 C 
ATOM     22  C   UNL     1       2.183   1.161   0.000  0.00  0.00    +0.015 C 
ENDROOT
BRANCH  10   9
ATOM      9  N   UNL     1       1.257   0.018   0.000  0.00  0.00    -0.215 NA
BRANCH   9   8
ATOM      8  C   UNL     1       0.473  -0.237   0.000  0.00  0.00    +0.115 C 
BRANCH   8   7
ATOM      4  C   UNL     1      -0.042  -2.658   0.000  0.00  0.00    +0.048 A 
ATOM      5  C   UNL     1      -0.655  -2.106   0.000  0.00  0.00    +0.014 A 
ATOM      6  C   UNL     1      -0.483  -1.299   0.000  0.00  0.00    -0.002 A 
ATOM      7  C   UNL     1       0.301  -1.044   0.000  0.00  0.00    -0.005 A 
ATOM     35  C   UNL     1       0.914  -1.596   0.000  0.00  0.00    -0.002 A 
ATOM     36  C   UNL     1       0.743  -2.403   0.000  0.00  0.00    +0.014 A 
BRANCH   4   2
ATOM      1  C   UNL     1       0.400  -4.017   0.000  0.00  0.00    +0.112 C 
ATOM      2  N   UNL     1      -0.213  -3.465   0.000  0.00  0.00    -0.304 N 
ATOM      3  C   UNL     1      -0.998  -3.720   0.000  0.00  0.00    +0.112 C 
ENDBRANCH   4   2
ENDBRANCH   8   7
ENDBRANCH   9   8
ENDBRANCH  10   9
BRANCH  22  23
ATOM     23  C   UNL     1       2.183   0.336   0.000  0.00  0.00    +0.011 C 
BRANCH  23  24
ATOM     24  C   UNL     1       2.897  -0.077   0.000  0.00  0.00    +0.087 C 
BRANCH  24  25
ATOM     25  C   UNL     1       3.612   0.336   0.000  0.00  0.00    +0.242 C 
ATOM     26  O   UNL     1       3.866   1.120   0.000  0.00  0.00    -0.273 OA
ATOM     27  N   UNL     1       4.326  -0.077   0.000  0.00  0.00    -0.200 NA
BRANCH  27  28
ATOM     28  C   UNL     1       5.040   0.336   0.000  0.00  0.00    +0.143 C 
BRANCH  28  29
ATOM     29  C   UNL     1       5.755  -0.077   0.000  0.00  0.00    +0.019 A 
ATOM     30  C   UNL     1       6.469   0.336   0.000  0.00  0.00    +0.001 A 
ATOM     31  C   UNL     1       7.184  -0.077   0.000  0.00  0.00    +0.020 A 
ATOM     32  C   UNL     1       7.184  -0.902   0.000  0.00  0.00    +0.099 A 
ATOM     33  N   UNL     1       6.469  -1.314   0.000  0.00  0.00    -0.243 NA
ATOM     34  C   UNL     1       5.755  -0.902   0.000  0.00  0.00    +0.096 A 
ENDBRANCH  28  29
ENDBRANCH  27  28
ENDBRANCH  24  25
ENDBRANCH  23  24
ENDBRANCH  22  23
TORSDOF 9
