MODEL 1
REMARK VINA RESULT:     -10.3      0.000      0.000
REMARK  Name = 
REMARK  5 active torsions:
REMARK  status: ('A' for Active; 'I' for Inactive)
REMARK    1  A    between atoms: C_2  and  C_4
REMARK    2  A    between atoms: C_7  and  N_8
REMARK    3  A    between atoms: C_15  and  C_17
REMARK    4  A    between atoms: N_19  and  C_20
REMARK    5  A    between atoms: C_27  and  C_29
REMARK                            x       y       z     vdW  Elec       q    Type
REMARK                         _______ _______ _______ _____ _____    ______ ____
ROOT
ATOM      8  N   UNL     1       0.474  -0.067  23.443  0.00  0.00    -0.162 NA
ATOM      9  C   UNL     1      -0.020   0.545  23.688  0.00  0.00    +0.328 C 
ATOM     10  O   UNL     1       0.247   1.325  23.663  0.00  0.00    -0.250 OA
ATOM     11  N   UNL     1      -0.782   0.378  23.957  0.00  0.00    -0.259 N 
ATOM     12  C   UNL     1      -1.049  -0.402  23.982  0.00  0.00    +0.117 C 
ATOM     13  C   UNL     1      -1.810  -0.570  24.251  0.00  0.00    +0.116 C 
ATOM     14  N   UNL     1      -2.305   0.044  24.496  0.00  0.00    -0.266 N 
ATOM     15  C   UNL     1      -2.038   0.824  24.472  0.00  0.00    +0.174 C 
ATOM     16  C   UNL     1      -1.276   0.991  24.202  0.00  0.00    +0.124 C 
ATOM     27  C   UNL     1      -3.067  -0.124  24.766  0.00  0.00    +0.255 C 
ATOM     28  O   UNL     1      -3.562   0.490  25.011  0.00  0.00    -0.269 OA
ENDROOT
BRANCH   8   7
ATOM      4  C   UNL     1       2.759   0.431  22.633  0.00  0.00    +0.035 A 
ATOM      5  C   UNL     1       2.497   0.749  23.347  0.00  0.00    +0.004 A 
ATOM      6  C   UNL     1       1.735   0.583  23.617  0.00  0.00    +0.017 A 
ATOM      7  C   UNL     1       1.236   0.099  23.173  0.00  0.00    +0.075 A 
ATOM     34  C   UNL     1       1.499  -0.219  22.459  0.00  0.00    +0.017 A 
ATOM     35  C   UNL     1       2.260  -0.053  22.188  0.00  0.00    +0.004 A 
BRANCH   4   2
ATOM      1  C   UNL     1       4.110   0.817  22.896  0.00  0.00    +0.077 C 
ATOM      2  C   UNL     1       3.521   0.597  22.362  0.00  0.00    +0.173 C 
ATOM      3  O   UNL     1       3.692   0.543  21.557  0.00  0.00    -0.291 OA
ENDBRANCH   4   2
ENDBRANCH   8   7
BRANCH  27  29
ATOM     29  C   UNL     1      -3.334  -0.904  24.790  0.00  0.00    +0.083 A 
ATOM     30  C   UNL     1      -3.731  -1.300  24.186  0.00  0.00    +0.012 A 
ATOM     31  C   UNL     1      -3.893  -2.065  24.445  0.00  0.00    +0.008 A 
ATOM     32  C   UNL     1      -3.595  -2.143  25.211  0.00  0.00    +0.036 A 
ATOM     33  S   UNL     1      -3.250  -1.426  25.424  0.00  0.00    -0.082 S 
ENDBRANCH  27  29
BRANCH  15  17
ATOM     17  C   UNL     1      -2.533   1.437  24.717  0.00  0.00    +0.262 C 
ATOM     18  O   UNL     1      -2.884   1.410  25.463  0.00  0.00    -0.271 OA
ATOM     19  N   UNL     1      -2.677   2.077  24.217  0.00  0.00    -0.196 NA
BRANCH  19  20
ATOM     20  C   UNL     1      -3.172   2.689  24.462  0.00  0.00    +0.173 C 
ATOM     21  C   UNL     1      -3.148   2.952  25.244  0.00  0.00    +0.033 C 
ATOM     22  C   UNL     1      -3.643   3.564  25.489  0.00  0.00    +0.026 C 
ATOM     23  C   UNL     1      -4.161   3.915  24.952  0.00  0.00    +0.115 C 
ATOM     24  N   UNL     1      -4.186   3.654  24.170  0.00  0.00    -0.204 NA
ATOM     25  C   UNL     1      -3.690   3.040  23.925  0.00  0.00    +0.261 C 
ATOM     26  O   UNL     1      -3.715   2.779  23.143  0.00  0.00    -0.271 OA
ENDBRANCH  19  20
ENDBRANCH  15  17
TORSDOF 5
ENDMDL
MODEL 2
REMARK VINA RESULT:      -8.3      1.228      3.129
REMARK  Name = 
REMARK  5 active torsions:
REMARK  status: ('A' for Active; 'I' for Inactive)
REMARK    1  A    between atoms: C_2  and  C_4
REMARK    2  A    between atoms: C_7  and  N_8
REMARK    3  A    between atoms: C_15  and  C_17
REMARK    4  A    between atoms: N_19  and  C_20
REMARK    5  A    between atoms: C_27  and  C_29
REMARK                            x       y       z     vdW  Elec       q    Type
REMARK                         _______ _______ _______ _____ _____    ______ ____
ROOT
ATOM      8  N   UNL     1       0.737   1.043  23.385  0.00  0.00    -0.162 NA
ATOM      9  C   UNL     1       0.243   0.448  23.670  0.00  0.00    +0.328 C 
ATOM     10  O   UNL     1       0.526  -0.324  23.741  0.00  0.00    -0.250 OA
ATOM     11  N   UNL     1      -0.534   0.623  23.885  0.00  0.00    -0.259 N 
ATOM     12  C   UNL     1      -0.817   1.395  23.814  0.00  0.00    +0.117 C 
ATOM     13  C   UNL     1      -1.594   1.571  24.029  0.00  0.00    +0.116 C 
ATOM     14  N   UNL     1      -2.088   0.975  24.314  0.00  0.00    -0.266 N 
ATOM     15  C   UNL     1      -1.805   0.203  24.385  0.00  0.00    +0.174 C 
ATOM     16  C   UNL     1      -1.028   0.028  24.170  0.00  0.00    +0.124 C 
ATOM     27  C   UNL     1      -2.865   1.151  24.528  0.00  0.00    +0.255 C 
ATOM     28  O   UNL     1      -3.359   0.555  24.814  0.00  0.00    -0.269 OA
ENDROOT
BRANCH   8   7
ATOM      4  C   UNL     1       3.069   0.518  22.742  0.00  0.00    +0.035 A 
ATOM      5  C   UNL     1       2.446   0.074  22.433  0.00  0.00    +0.004 A 
ATOM      6  C   UNL     1       1.669   0.249  22.648  0.00  0.00    +0.017 A 
ATOM      7  C   UNL     1       1.514   0.867  23.170  0.00  0.00    +0.075 A 
ATOM     34  C   UNL     1       2.137   1.312  23.479  0.00  0.00    +0.017 A 
ATOM     35  C   UNL     1       2.914   1.137  23.265  0.00  0.00    +0.004 A 
BRANCH   4   2
ATOM      1  C   UNL     1       4.377   0.063  23.093  0.00  0.00    +0.077 C 
ATOM      2  C   UNL     1       3.846   0.344  22.528  0.00  0.00    +0.173 C 
ATOM      3  O   UNL     1       4.092   0.450  21.747  0.00  0.00    -0.291 OA
ENDBRANCH   4   2
ENDBRANCH   8   7
BRANCH  27  29
ATOM     29  C   UNL     1      -3.148   1.923  24.458  0.00  0.00    +0.083 A 
ATOM     30  C   UNL     1      -3.518   2.245  23.795  0.00  0.00    +0.012 A 
ATOM     31  C   UNL     1      -3.708   3.029  23.966  0.00  0.00    +0.008 A 
ATOM     32  C   UNL     1      -3.456   3.192  24.734  0.00  0.00    +0.036 A 
ATOM     33  S   UNL     1      -3.110   2.509  25.039  0.00  0.00    -0.082 S 
ENDBRANCH  27  29
BRANCH  15  17
ATOM     17  C   UNL     1      -2.299  -0.392  24.670  0.00  0.00    +0.262 C 
ATOM     18  O   UNL     1      -2.607  -0.342  25.433  0.00  0.00    -0.271 OA
ATOM     19  N   UNL     1      -2.486  -1.039  24.192  0.00  0.00    -0.196 NA
BRANCH  19  20
ATOM     20  C   UNL     1      -2.980  -1.634  24.477  0.00  0.00    +0.173 C 
ATOM     21  C   UNL     1      -2.852  -1.954  25.226  0.00  0.00    +0.033 C 
ATOM     22  C   UNL     1      -3.346  -2.549  25.511  0.00  0.00    +0.026 C 
ATOM     23  C   UNL     1      -3.969  -2.825  25.047  0.00  0.00    +0.115 C 
ATOM     24  N   UNL     1      -4.098  -2.506  24.297  0.00  0.00    -0.204 NA
ATOM     25  C   UNL     1      -3.603  -1.910  24.012  0.00  0.00    +0.261 C 
ATOM     26  O   UNL     1      -3.733  -1.591  23.262  0.00  0.00    -0.271 OA
ENDBRANCH  19  20
ENDBRANCH  15  17
TORSDOF 5
ENDMDL
MODEL 3
REMARK VINA RESULT:      -8.0      3.165      5.005
REMARK  Name = 
REMARK  5 active torsions:
REMARK  status: ('A' for Active; 'I' for Inactive)
REMARK    1  A    between atoms: C_2  and  C_4
REMARK    2  A    between atoms: C_7  and  N_8
REMARK    3  A    between atoms: C_15  and  C_17
REMARK    4  A    between atoms: N_19  and  C_20
REMARK    5  A    between atoms: C_27  and  C_29
REMARK                            x       y       z     vdW  Elec       q    Type
REMARK                         _______ _______ _______ _____ _____    ______ ____
ROOT
ATOM      8  N   UNL     1      -4.138  -0.138  24.795  0.00  0.00    -0.162 NA
ATOM      9  C   UNL     1      -3.567   0.444  24.677  0.00  0.00    +0.328 C 
ATOM     10  O   UNL     1      -2.808   0.234  24.431  0.00  0.00    -0.250 OA
ATOM     11  N   UNL     1      -3.754   1.238  24.804  0.00  0.00    -0.259 N 
ATOM     12  C   UNL     1      -4.513   1.449  25.049  0.00  0.00    +0.117 C 
ATOM     13  C   UNL     1      -4.700   2.242  25.176  0.00  0.00    +0.116 C 
ATOM     14  N   UNL     1      -4.128   2.825  25.058  0.00  0.00    -0.266 N 
ATOM     15  C   UNL     1      -3.369   2.614  24.813  0.00  0.00    +0.174 C 
ATOM     16  C   UNL     1      -3.182   1.821  24.686  0.00  0.00    +0.124 C 
ATOM     27  C   UNL     1      -4.316   3.618  25.185  0.00  0.00    +0.255 C 
ATOM     28  O   UNL     1      -3.744   4.201  25.067  0.00  0.00    -0.269 OA
ENDROOT
BRANCH   8   7
ATOM      4  C   UNL     1      -3.579  -2.519  24.412  0.00  0.00    +0.035 A 
ATOM      5  C   UNL     1      -3.388  -2.161  25.131  0.00  0.00    +0.004 A 
ATOM      6  C   UNL     1      -3.575  -1.367  25.258  0.00  0.00    +0.017 A 
ATOM      7  C   UNL     1      -3.951  -0.932  24.668  0.00  0.00    +0.075 A 
ATOM     34  C   UNL     1      -4.142  -1.290  23.949  0.00  0.00    +0.017 A 
ATOM     35  C   UNL     1      -3.956  -2.083  23.821  0.00  0.00    +0.004 A 
BRANCH   4   2
ATOM      1  C   UNL     1      -2.605  -3.545  24.209  0.00  0.00    +0.077 C 
ATOM      2  C   UNL     1      -3.393  -3.312  24.284  0.00  0.00    +0.173 C 
ATOM      3  O   UNL     1      -3.996  -3.873  24.231  0.00  0.00    -0.291 OA
ENDBRANCH   4   2
ENDBRANCH   8   7
BRANCH  27  29
ATOM     29  C   UNL     1      -5.075   3.828  25.431  0.00  0.00    +0.083 A 
ATOM     30  C   UNL     1      -5.464   3.545  26.100  0.00  0.00    +0.012 A 
ATOM     31  C   UNL     1      -6.207   3.900  26.133  0.00  0.00    +0.008 A 
ATOM     32  C   UNL     1      -6.278   4.404  25.483  0.00  0.00    +0.036 A 
ATOM     33  S   UNL     1      -5.578   4.360  25.049  0.00  0.00    -0.082 S 
ENDBRANCH  27  29
BRANCH  15  17
ATOM     17  C   UNL     1      -2.798   3.197  24.694  0.00  0.00    +0.262 C 
ATOM     18  O   UNL     1      -2.945   3.819  24.173  0.00  0.00    -0.271 OA
ATOM     19  N   UNL     1      -2.079   3.159  25.098  0.00  0.00    -0.196 NA
BRANCH  19  20
ATOM     20  C   UNL     1      -1.508   3.741  24.979  0.00  0.00    +0.173 C 
ATOM     21  C   UNL     1      -1.672   4.526  25.173  0.00  0.00    +0.033 C 
ATOM     22  C   UNL     1      -1.101   5.109  25.054  0.00  0.00    +0.026 C 
ATOM     23  C   UNL     1      -0.364   4.907  24.743  0.00  0.00    +0.115 C 
ATOM     24  N   UNL     1      -0.199   4.122  24.550  0.00  0.00    -0.204 NA
ATOM     25  C   UNL     1      -0.771   3.539  24.668  0.00  0.00    +0.261 C 
ATOM     26  O   UNL     1      -0.605   2.755  24.474  0.00  0.00    -0.271 OA
ENDBRANCH  19  20
ENDBRANCH  15  17
TORSDOF 5
ENDMDL
MODEL 4
REMARK VINA RESULT:      -7.2      1.475      5.566
REMARK  Name = 
REMARK  5 active torsions:
REMARK  status: ('A' for Active; 'I' for Inactive)
REMARK    1  A    between atoms: C_2  and  C_4
REMARK    2  A    between atoms: C_7  and  N_8
REMARK    3  A    between atoms: C_15  and  C_17
REMARK    4  A    between atoms: N_19  and  C_20
REMARK    5  A    between atoms: C_27  and  C_29
REMARK                            x       y       z     vdW  Elec       q    Type
REMARK                         _______ _______ _______ _____ _____    ______ ____
ROOT
ATOM      8  N   UNL     1      -4.400   1.592  25.112  0.00  0.00    -0.162 NA
ATOM      9  C   UNL     1      -3.597   1.535  24.937  0.00  0.00    +0.328 C 
ATOM     10  O   UNL     1      -3.141   2.219  24.866  0.00  0.00    -0.250 OA
ATOM     11  N   UNL     1      -3.248   0.795  24.832  0.00  0.00    -0.259 N 
ATOM     12  C   UNL     1      -3.704   0.111  24.903  0.00  0.00    +0.117 C 
ATOM     13  C   UNL     1      -3.356  -0.630  24.798  0.00  0.00    +0.116 C 
ATOM     14  N   UNL     1      -2.551  -0.686  24.623  0.00  0.00    -0.266 N 
ATOM     15  C   UNL     1      -2.095  -0.002  24.552  0.00  0.00    +0.174 C 
ATOM     16  C   UNL     1      -2.444   0.738  24.657  0.00  0.00    +0.124 C 
ATOM     27  C   UNL     1      -2.204  -1.427  24.518  0.00  0.00    +0.255 C 
ATOM     28  O   UNL     1      -1.399  -1.484  24.343  0.00  0.00    -0.269 OA
ENDROOT
BRANCH   8   7
ATOM      4  C   UNL     1      -5.447   3.813  25.428  0.00  0.00    +0.035 A 
ATOM      5  C   UNL     1      -5.077   3.629  24.714  0.00  0.00    +0.004 A 
ATOM      6  C   UNL     1      -4.728   2.889  24.609  0.00  0.00    +0.017 A 
ATOM      7  C   UNL     1      -4.749   2.332  25.217  0.00  0.00    +0.075 A 
ATOM     34  C   UNL     1      -5.119   2.516  25.931  0.00  0.00    +0.017 A 
ATOM     35  C   UNL     1      -5.468   3.256  26.037  0.00  0.00    +0.004 A 
BRANCH   4   2
ATOM      1  C   UNL     1      -5.409   5.233  25.275  0.00  0.00    +0.077 C 
ATOM      2  C   UNL     1      -5.796   4.552  25.534  0.00  0.00    +0.173 C 
ATOM      3  O   UNL     1      -6.534   4.611  25.899  0.00  0.00    -0.291 OA
ENDBRANCH   4   2
ENDBRANCH   8   7
BRANCH  27  29
ATOM     29  C   UNL     1      -2.660  -2.111  24.589  0.00  0.00    +0.083 A 
ATOM     30  C   UNL     1      -3.076  -2.481  23.981  0.00  0.00    +0.012 A 
ATOM     31  C   UNL     1      -3.452  -3.143  24.297  0.00  0.00    +0.008 A 
ATOM     32  C   UNL     1      -3.269  -3.183  25.100  0.00  0.00    +0.036 A 
ATOM     33  S   UNL     1      -2.779  -2.545  25.281  0.00  0.00    -0.082 S 
ENDBRANCH  27  29
BRANCH  15  17
ATOM     17  C   UNL     1      -1.292  -0.059  24.377  0.00  0.00    +0.262 C 
ATOM     18  O   UNL     1      -0.831  -0.641  24.737  0.00  0.00    -0.271 OA
ATOM     19  N   UNL     1      -0.948   0.465  23.841  0.00  0.00    -0.196 NA
BRANCH  19  20
ATOM     20  C   UNL     1      -0.144   0.409  23.666  0.00  0.00    +0.173 C 
ATOM     21  C   UNL     1       0.146  -0.253  23.267  0.00  0.00    +0.033 C 
ATOM     22  C   UNL     1       0.950  -0.310  23.092  0.00  0.00    +0.026 C 
ATOM     23  C   UNL     1       1.464   0.295  23.315  0.00  0.00    +0.115 C 
ATOM     24  N   UNL     1       1.175   0.957  23.713  0.00  0.00    -0.204 NA
ATOM     25  C   UNL     1       0.370   1.014  23.888  0.00  0.00    +0.261 C 
ATOM     26  O   UNL     1       0.081   1.676  24.287  0.00  0.00    -0.271 OA
ENDBRANCH  19  20
ENDBRANCH  15  17
TORSDOF 5
ENDMDL
MODEL 5
REMARK VINA RESULT:      -6.6      1.840      5.947
REMARK  Name = 
REMARK  5 active torsions:
REMARK  status: ('A' for Active; 'I' for Inactive)
REMARK    1  A    between atoms: C_2  and  C_4
REMARK    2  A    between atoms: C_7  and  N_8
REMARK    3  A    between atoms: C_15  and  C_17
REMARK    4  A    between atoms: N_19  and  C_20
REMARK    5  A    between atoms: C_27  and  C_29
REMARK                            x       y       z     vdW  Elec       q    Type
REMARK                         _______ _______ _______ _____ _____    ______ ____
ROOT
ATOM      8  N   UNL     1      -3.396   2.643  24.860  0.00  0.00    -0.162 NA
ATOM      9  C   UNL     1      -3.494   1.828  24.928  0.00  0.00    +0.328 C 
ATOM     10  O   UNL     1      -4.216   1.519  25.181  0.00  0.00    -0.250 OA
ATOM     11  N   UNL     1      -2.870   1.320  24.745  0.00  0.00    -0.259 N 
ATOM     12  C   UNL     1      -2.148   1.629  24.493  0.00  0.00    +0.117 C 
ATOM     13  C   UNL     1      -1.524   1.122  24.309  0.00  0.00    +0.116 C 
ATOM     14  N   UNL     1      -1.622   0.305  24.378  0.00  0.00    -0.266 N 
ATOM     15  C   UNL     1      -2.344  -0.004  24.630  0.00  0.00    +0.174 C 
ATOM     16  C   UNL     1      -2.968   0.504  24.814  0.00  0.00    +0.124 C 
ATOM     27  C   UNL     1      -0.997  -0.201  24.194  0.00  0.00    +0.255 C 
ATOM     28  O   UNL     1      -1.096  -1.018  24.263  0.00  0.00    -0.269 OA
ENDROOT
BRANCH   8   7
ATOM      4  C   UNL     1      -5.269   4.167  25.409  0.00  0.00    +0.035 A 
ATOM      5  C   UNL     1      -4.662   4.045  25.955  0.00  0.00    +0.004 A 
ATOM      6  C   UNL     1      -4.039   3.537  25.772  0.00  0.00    +0.017 A 
ATOM      7  C   UNL     1      -4.020   3.151  25.043  0.00  0.00    +0.075 A 
ATOM     34  C   UNL     1      -4.626   3.273  24.497  0.00  0.00    +0.017 A 
ATOM     35  C   UNL     1      -5.251   3.781  24.679  0.00  0.00    +0.004 A 
BRANCH   4   2
ATOM      1  C   UNL     1      -5.896   5.446  25.299  0.00  0.00    +0.077 C 
ATOM      2  C   UNL     1      -5.893   4.674  25.591  0.00  0.00    +0.173 C 
ATOM      3  O   UNL     1      -6.514   4.409  26.064  0.00  0.00    -0.291 OA
ENDBRANCH   4   2
ENDBRANCH   8   7
BRANCH  27  29
ATOM     29  C   UNL     1      -0.275   0.107  23.942  0.00  0.00    +0.083 A 
ATOM     30  C   UNL     1       0.198   0.637  24.360  0.00  0.00    +0.012 A 
ATOM     31  C   UNL     1       0.866   0.798  23.904  0.00  0.00    +0.008 A 
ATOM     32  C   UNL     1       0.805   0.367  23.203  0.00  0.00    +0.036 A 
ATOM     33  S   UNL     1       0.100  -0.060  23.226  0.00  0.00    -0.082 S 
ENDBRANCH  27  29
BRANCH  15  17
ATOM     17  C   UNL     1      -2.442  -0.819  24.699  0.00  0.00    +0.262 C 
ATOM     18  O   UNL     1      -1.827  -1.285  24.993  0.00  0.00    -0.271 OA
ATOM     19  N   UNL     1      -3.154  -1.171  24.474  0.00  0.00    -0.196 NA
BRANCH  19  20
ATOM     20  C   UNL     1      -3.251  -1.987  24.543  0.00  0.00    +0.173 C 
ATOM     21  C   UNL     1      -2.867  -2.400  25.145  0.00  0.00    +0.033 C 
ATOM     22  C   UNL     1      -2.965  -3.215  25.214  0.00  0.00    +0.026 C 
ATOM     23  C   UNL     1      -3.447  -3.619  24.680  0.00  0.00    +0.115 C 
ATOM     24  N   UNL     1      -3.832  -3.207  24.078  0.00  0.00    -0.204 NA
ATOM     25  C   UNL     1      -3.734  -2.390  24.009  0.00  0.00    +0.261 C 
ATOM     26  O   UNL     1      -4.119  -1.979  23.407  0.00  0.00    -0.271 OA
ENDBRANCH  19  20
ENDBRANCH  15  17
TORSDOF 5
ENDMDL
MODEL 6
REMARK VINA RESULT:      -6.5      3.176      4.898
REMARK  Name = 
REMARK  5 active torsions:
REMARK  status: ('A' for Active; 'I' for Inactive)
REMARK    1  A    between atoms: C_2  and  C_4
REMARK    2  A    between atoms: C_7  and  N_8
REMARK    3  A    between atoms: C_15  and  C_17
REMARK    4  A    between atoms: N_19  and  C_20
REMARK    5  A    between atoms: C_27  and  C_29
REMARK                            x       y       z     vdW  Elec       q    Type
REMARK                         _______ _______ _______ _____ _____    ______ ____
ROOT
ATOM      8  N   UNL     1      -2.779  -0.302  24.624  0.00  0.00    -0.162 NA
ATOM      9  C   UNL     1      -3.318   0.321  24.664  0.00  0.00    +0.328 C 
ATOM     10  O   UNL     1      -4.128   0.169  24.616  0.00  0.00    -0.250 OA
ATOM     11  N   UNL     1      -3.049   1.096  24.752  0.00  0.00    -0.259 N 
ATOM     12  C   UNL     1      -2.239   1.248  24.800  0.00  0.00    +0.117 C 
ATOM     13  C   UNL     1      -1.969   2.022  24.888  0.00  0.00    +0.116 C 
ATOM     14  N   UNL     1      -2.509   2.645  24.928  0.00  0.00    -0.266 N 
ATOM     15  C   UNL     1      -3.319   2.493  24.880  0.00  0.00    +0.174 C 
ATOM     16  C   UNL     1      -3.588   1.718  24.792  0.00  0.00    +0.124 C 
ATOM     27  C   UNL     1      -2.239   3.420  25.016  0.00  0.00    +0.255 C 
ATOM     28  O   UNL     1      -2.779   4.043  25.056  0.00  0.00    -0.269 OA
ENDROOT
BRANCH   8   7
ATOM      4  C   UNL     1      -3.586  -2.627  24.361  0.00  0.00    +0.035 A 
ATOM      5  C   UNL     1      -3.785  -2.055  23.801  0.00  0.00    +0.004 A 
ATOM      6  C   UNL     1      -3.516  -1.280  23.889  0.00  0.00    +0.017 A 
ATOM      7  C   UNL     1      -3.048  -1.077  24.536  0.00  0.00    +0.075 A 
ATOM     34  C   UNL     1      -2.849  -1.648  25.097  0.00  0.00    +0.017 A 
ATOM     35  C   UNL     1      -3.118  -2.423  25.010  0.00  0.00    +0.004 A 
BRANCH   4   2
ATOM      1  C   UNL     1      -4.353  -3.598  23.648  0.00  0.00    +0.077 C 
ATOM      2  C   UNL     1      -3.854  -3.402  24.275  0.00  0.00    +0.173 C 
ATOM      3  O   UNL     1      -3.623  -3.980  24.816  0.00  0.00    -0.291 OA
ENDBRANCH   4   2
ENDBRANCH   8   7
BRANCH  27  29
ATOM     29  C   UNL     1      -1.429   3.571  25.064  0.00  0.00    +0.083 A 
ATOM     30  C   UNL     1      -0.960   3.492  25.738  0.00  0.00    +0.012 A 
ATOM     31  C   UNL     1      -0.188   3.701  25.537  0.00  0.00    +0.008 A 
ATOM     32  C   UNL     1      -0.180   3.910  24.739  0.00  0.00    +0.036 A 
ATOM     33  S   UNL     1      -0.947   3.830  24.446  0.00  0.00    -0.082 S 
ENDBRANCH  27  29
BRANCH  15  17
ATOM     17  C   UNL     1      -3.858   3.116  24.920  0.00  0.00    +0.262 C 
ATOM     18  O   UNL     1      -3.746   3.789  24.455  0.00  0.00    -0.271 OA
ATOM     19  N   UNL     1      -4.509   3.067  25.423  0.00  0.00    -0.196 NA
BRANCH  19  20
ATOM     20  C   UNL     1      -5.048   3.689  25.463  0.00  0.00    +0.173 C 
ATOM     21  C   UNL     1      -4.920   4.376  25.024  0.00  0.00    +0.033 C 
ATOM     22  C   UNL     1      -5.459   4.998  25.064  0.00  0.00    +0.026 C 
ATOM     23  C   UNL     1      -6.128   4.935  25.543  0.00  0.00    +0.115 C 
ATOM     24  N   UNL     1      -6.257   4.249  25.982  0.00  0.00    -0.204 NA
ATOM     25  C   UNL     1      -5.717   3.625  25.942  0.00  0.00    +0.261 C 
ATOM     26  O   UNL     1      -5.847   2.939  26.381  0.00  0.00    -0.271 OA
ENDBRANCH  19  20
ENDBRANCH  15  17
TORSDOF 5
ENDMDL
MODEL 7
REMARK VINA RESULT:      -6.5      2.117      5.761
REMARK  Name = 
REMARK  5 active torsions:
REMARK  status: ('A' for Active; 'I' for Inactive)
REMARK    1  A    between atoms: C_2  and  C_4
REMARK    2  A    between atoms: C_7  and  N_8
REMARK    3  A    between atoms: C_15  and  C_17
REMARK    4  A    between atoms: N_19  and  C_20
REMARK    5  A    between atoms: C_27  and  C_29
REMARK                            x       y       z     vdW  Elec       q    Type
REMARK                         _______ _______ _______ _____ _____    ______ ____
ROOT
ATOM      8  N   UNL     1      -2.411  -0.388  24.486  0.00  0.00    -0.162 NA
ATOM      9  C   UNL     1      -1.631  -0.374  24.220  0.00  0.00    +0.328 C 
ATOM     10  O   UNL     1      -1.289  -1.057  23.909  0.00  0.00    -0.250 OA
ATOM     11  N   UNL     1      -1.191   0.323  24.265  0.00  0.00    -0.259 N 
ATOM     12  C   UNL     1      -1.533   1.007  24.576  0.00  0.00    +0.117 C 
ATOM     13  C   UNL     1      -1.095   1.704  24.621  0.00  0.00    +0.116 C 
ATOM     14  N   UNL     1      -0.313   1.718  24.355  0.00  0.00    -0.266 N 
ATOM     15  C   UNL     1       0.029   1.034  24.044  0.00  0.00    +0.174 C 
ATOM     16  C   UNL     1      -0.411   0.337  23.999  0.00  0.00    +0.124 C 
ATOM     27  C   UNL     1       0.125   2.415  24.400  0.00  0.00    +0.255 C 
ATOM     28  O   UNL     1       0.906   2.429  24.134  0.00  0.00    -0.269 OA
ENDROOT
BRANCH   8   7
ATOM      4  C   UNL     1      -3.728  -2.479  24.353  0.00  0.00    +0.035 A 
ATOM      5  C   UNL     1      -3.915  -1.842  23.862  0.00  0.00    +0.004 A 
ATOM      6  C   UNL     1      -3.475  -1.145  23.907  0.00  0.00    +0.017 A 
ATOM      7  C   UNL     1      -2.850  -1.085  24.441  0.00  0.00    +0.075 A 
ATOM     34  C   UNL     1      -2.664  -1.721  24.931  0.00  0.00    +0.017 A 
ATOM     35  C   UNL     1      -3.102  -2.418  24.888  0.00  0.00    +0.004 A 
BRANCH   4   2
ATOM      1  C   UNL     1      -4.771  -3.250  23.752  0.00  0.00    +0.077 C 
ATOM      2  C   UNL     1      -4.167  -3.176  24.309  0.00  0.00    +0.173 C 
ATOM      3  O   UNL     1      -4.001  -3.799  24.823  0.00  0.00    -0.291 OA
ENDBRANCH   4   2
ENDBRANCH   8   7
BRANCH  27  29
ATOM     29  C   UNL     1      -0.217   3.098  24.711  0.00  0.00    +0.083 A 
ATOM     30  C   UNL     1      -0.303   3.276  25.512  0.00  0.00    +0.012 A 
ATOM     31  C   UNL     1      -0.672   4.011  25.571  0.00  0.00    +0.008 A 
ATOM     32  C   UNL     1      -0.814   4.288  24.807  0.00  0.00    +0.036 A 
ATOM     33  S   UNL     1      -0.533   3.724  24.275  0.00  0.00    -0.082 S 
ENDBRANCH  27  29
BRANCH  15  17
ATOM     17  C   UNL     1       0.809   1.048  23.778  0.00  0.00    +0.262 C 
ATOM     18  O   UNL     1       1.325   1.633  24.046  0.00  0.00    -0.271 OA
ATOM     19  N   UNL     1       1.074   0.478  23.244  0.00  0.00    -0.196 NA
BRANCH  19  20
ATOM     20  C   UNL     1       1.854   0.492  22.978  0.00  0.00    +0.173 C 
ATOM     21  C   UNL     1       2.437   0.866  23.426  0.00  0.00    +0.033 C 
ATOM     22  C   UNL     1       3.217   0.880  23.160  0.00  0.00    +0.026 C 
ATOM     23  C   UNL     1       3.416   0.519  22.446  0.00  0.00    +0.115 C 
ATOM     24  N   UNL     1       2.834   0.144  21.997  0.00  0.00    -0.204 NA
ATOM     25  C   UNL     1       2.053   0.131  22.263  0.00  0.00    +0.261 C 
ATOM     26  O   UNL     1       1.471  -0.244  21.814  0.00  0.00    -0.271 OA
ENDBRANCH  19  20
ENDBRANCH  15  17
TORSDOF 5
ENDMDL
