MODEL 1
REMARK VINA RESULT:      -8.7      0.000      0.000
REMARK  Name = 
REMARK  8 active torsions:
REMARK  status: ('A' for Active; 'I' for Inactive)
REMARK    1  A    between atoms: O_2  and  C_3
REMARK    2  A    between atoms: C_6  and  C_9
REMARK    3  A    between atoms: C_12  and  C_14
REMARK    4  A    between atoms: C_16  and  N_20
REMARK    5  A    between atoms: C_21  and  C_23
REMARK    6  A    between atoms: C_23  and  O_24
REMARK    7  A    between atoms: O_24  and  C_25
REMARK    8  A    between atoms: C_25  and  C_26
REMARK                            x       y       z     vdW  Elec       q    Type
REMARK                         _______ _______ _______ _____ _____    ______ ____
ROOT
ATOM     14  C   UNL     1      -1.634  -0.397  24.498  0.00  0.00    +0.139 C 
ATOM     15  C   UNL     1      -1.154  -0.383  23.828  0.00  0.00    +0.049 C 
ATOM     16  C   UNL     1      -0.392  -0.607  24.055  0.00  0.00    +0.113 C 
ATOM     17  C   UNL     1      -0.402  -0.759  24.865  0.00  0.00    +0.094 C 
ATOM     18  N   UNL     1      -1.169  -0.629  25.140  0.00  0.00    -0.264 NA
ATOM     19  C   UNL     1      -1.427  -0.716  25.918  0.00  0.00    +0.090 C 
ENDROOT
BRANCH  14  12
ATOM      9  C   UNL     1      -3.580   0.466  24.645  0.00  0.00    +0.203 A 
ATOM     10  N   UNL     1      -3.767  -0.320  24.480  0.00  0.00    -0.056 NA
ATOM     11  O   UNL     1      -3.061  -0.739  24.404  0.00  0.00    -0.336 OA
ATOM     12  C   UNL     1      -2.437  -0.212  24.524  0.00  0.00    +0.251 A 
ATOM     13  N   UNL     1      -2.758   0.533  24.673  0.00  0.00    -0.190 NA
BRANCH   9   6
ATOM      3  C   UNL     1      -5.199   2.304  24.999  0.00  0.00    +0.139 A 
ATOM      4  C   UNL     1      -4.541   2.421  24.515  0.00  0.00    +0.037 A 
ATOM      5  C   UNL     1      -4.001   1.809  24.397  0.00  0.00    +0.006 A 
ATOM      6  C   UNL     1      -4.120   1.078  24.763  0.00  0.00    +0.039 A 
ATOM      7  C   UNL     1      -4.778   0.961  25.247  0.00  0.00    +0.006 A 
ATOM      8  C   UNL     1      -5.318   1.575  25.364  0.00  0.00    +0.037 A 
BRANCH   3   2
ATOM      1  C   UNL     1      -5.540   3.553  25.603  0.00  0.00    +0.252 C 
ATOM      2  O   UNL     1      -5.739   2.918  25.116  0.00  0.00    -0.471 OA
ENDBRANCH   3   2
ENDBRANCH   9   6
ENDBRANCH  14  12
BRANCH  16  20
ATOM     20  N   UNL     1       0.263  -0.667  23.557  0.00  0.00    -0.204 NA
ATOM     21  C   UNL     1       0.678   0.012  23.338  0.00  0.00    +0.272 C 
ATOM     22  O   UNL     1       0.437   0.751  23.616  0.00  0.00    -0.271 OA
BRANCH  21  23
ATOM     23  C   UNL     1       1.333  -0.048  22.840  0.00  0.00    +0.229 C 
BRANCH  23  24
ATOM     24  O   UNL     1       2.035   0.342  23.034  0.00  0.00    -0.333 OA
BRANCH  24  25
ATOM     25  C   UNL     1       2.691   0.278  22.539  0.00  0.00    +0.257 C 
BRANCH  25  26
ATOM     26  C   UNL     1       3.427   0.555  22.792  0.00  0.00    +0.394 C 
ATOM     27  O   UNL     1       3.544   1.362  22.913  0.00  0.00    -0.243 OA
ATOM     28  O   UNL     1       4.044   0.024  22.924  0.00  0.00    -0.243 OA
ENDBRANCH  25  26
ENDBRANCH  24  25
ENDBRANCH  23  24
ENDBRANCH  21  23
ENDBRANCH  16  20
TORSDOF 8
ENDMDL
MODEL 2
REMARK VINA RESULT:      -8.3      3.358      5.030
REMARK  Name = 
REMARK  8 active torsions:
REMARK  status: ('A' for Active; 'I' for Inactive)
REMARK    1  A    between atoms: O_2  and  C_3
REMARK    2  A    between atoms: C_6  and  C_9
REMARK    3  A    between atoms: C_12  and  C_14
REMARK    4  A    between atoms: C_16  and  N_20
REMARK    5  A    between atoms: C_21  and  C_23
REMARK    6  A    between atoms: C_23  and  O_24
REMARK    7  A    between atoms: O_24  and  C_25
REMARK    8  A    between atoms: C_25  and  C_26
REMARK                            x       y       z     vdW  Elec       q    Type
REMARK                         _______ _______ _______ _____ _____    ______ ____
ROOT
ATOM     14  C   UNL     1      -4.704   2.059  25.137  0.00  0.00    +0.139 C 
ATOM     15  C   UNL     1      -4.050   2.524  24.946  0.00  0.00    +0.049 C 
ATOM     16  C   UNL     1      -4.198   3.292  25.210  0.00  0.00    +0.113 C 
ATOM     17  C   UNL     1      -4.943   3.302  25.563  0.00  0.00    +0.094 C 
ATOM     18  N   UNL     1      -5.256   2.540  25.518  0.00  0.00    -0.264 NA
ATOM     19  C   UNL     1      -5.992   2.300  25.804  0.00  0.00    +0.090 C 
ENDROOT
BRANCH  14  12
ATOM      9  C   UNL     1      -4.524  -0.041  24.799  0.00  0.00    +0.203 A 
ATOM     10  N   UNL     1      -5.327   0.076  24.651  0.00  0.00    -0.056 NA
ATOM     11  O   UNL     1      -5.493   0.877  24.759  0.00  0.00    -0.336 OA
ATOM     12  C   UNL     1      -4.791   1.255  24.975  0.00  0.00    +0.251 A 
ATOM     13  N   UNL     1      -4.193   0.688  25.000  0.00  0.00    -0.190 NA
BRANCH   9   6
ATOM      3  C   UNL     1      -3.319  -2.198  24.667  0.00  0.00    +0.139 A 
ATOM      4  C   UNL     1      -3.759  -1.931  24.022  0.00  0.00    +0.037 A 
ATOM      5  C   UNL     1      -4.161  -1.212  24.066  0.00  0.00    +0.006 A 
ATOM      6  C   UNL     1      -4.122  -0.760  24.756  0.00  0.00    +0.039 A 
ATOM      7  C   UNL     1      -3.682  -1.027  25.400  0.00  0.00    +0.006 A 
ATOM      8  C   UNL     1      -3.280  -1.746  25.355  0.00  0.00    +0.037 A 
BRANCH   3   2
ATOM      1  C   UNL     1      -2.102  -2.927  24.494  0.00  0.00    +0.252 C 
ATOM      2  O   UNL     1      -2.917  -2.918  24.622  0.00  0.00    -0.471 OA
ENDBRANCH   3   2
ENDBRANCH   9   6
ENDBRANCH  14  12
BRANCH  16  20
ATOM     20  N   UNL     1      -3.689   3.937  25.133  0.00  0.00    -0.204 NA
ATOM     21  C   UNL     1      -3.129   4.092  25.719  0.00  0.00    +0.272 C 
ATOM     22  O   UNL     1      -3.078   3.602  26.381  0.00  0.00    -0.271 OA
BRANCH  21  23
ATOM     23  C   UNL     1      -2.620   4.737  25.642  0.00  0.00    +0.229 C 
BRANCH  23  24
ATOM     24  O   UNL     1      -1.812   4.612  25.528  0.00  0.00    -0.333 OA
BRANCH  24  25
ATOM     25  C   UNL     1      -1.352   5.197  25.172  0.00  0.00    +0.257 C 
BRANCH  25  26
ATOM     26  C   UNL     1      -0.638   4.996  24.808  0.00  0.00    +0.394 C 
ATOM     27  O   UNL     1      -0.327   5.479  24.216  0.00  0.00    -0.243 OA
ATOM     28  O   UNL     1      -0.237   4.313  25.037  0.00  0.00    -0.243 OA
ENDBRANCH  25  26
ENDBRANCH  24  25
ENDBRANCH  23  24
ENDBRANCH  21  23
ENDBRANCH  16  20
TORSDOF 8
ENDMDL
MODEL 3
REMARK VINA RESULT:      -7.5      1.884      2.228
REMARK  Name = 
REMARK  8 active torsions:
REMARK  status: ('A' for Active; 'I' for Inactive)
REMARK    1  A    between atoms: O_2  and  C_3
REMARK    2  A    between atoms: C_6  and  C_9
REMARK    3  A    between atoms: C_12  and  C_14
REMARK    4  A    between atoms: C_16  and  N_20
REMARK    5  A    between atoms: C_21  and  C_23
REMARK    6  A    between atoms: C_23  and  O_24
REMARK    7  A    between atoms: O_24  and  C_25
REMARK    8  A    between atoms: C_25  and  C_26
REMARK                            x       y       z     vdW  Elec       q    Type
REMARK                         _______ _______ _______ _____ _____    ______ ____
ROOT
ATOM     14  C   UNL     1      -0.927   2.444  24.769  0.00  0.00    +0.139 C 
ATOM     15  C   UNL     1      -0.613   2.137  24.070  0.00  0.00    +0.049 C 
ATOM     16  C   UNL     1       0.128   1.817  24.243  0.00  0.00    +0.113 C 
ATOM     17  C   UNL     1       0.272   1.925  25.048  0.00  0.00    +0.094 C 
ATOM     18  N   UNL     1      -0.380   2.313  25.373  0.00  0.00    -0.264 NA
ATOM     19  C   UNL     1      -0.470   2.531  26.163  0.00  0.00    +0.090 C 
ENDROOT
BRANCH  14  12
ATOM      9  C   UNL     1      -2.970   3.022  24.983  0.00  0.00    +0.203 A 
ATOM     10  N   UNL     1      -2.598   3.757  24.964  0.00  0.00    -0.056 NA
ATOM     11  O   UNL     1      -1.787   3.631  24.881  0.00  0.00    -0.336 OA
ATOM     12  C   UNL     1      -1.658   2.816  24.849  0.00  0.00    +0.251 A 
ATOM     13  N   UNL     1      -2.389   2.440  24.912  0.00  0.00    -0.190 NA
BRANCH   9   6
ATOM      3  C   UNL     1      -5.403   2.627  25.213  0.00  0.00    +0.139 A 
ATOM      4  C   UNL     1      -5.030   3.193  25.683  0.00  0.00    +0.037 A 
ATOM      5  C   UNL     1      -4.220   3.325  25.607  0.00  0.00    +0.006 A 
ATOM      6  C   UNL     1      -3.781   2.890  25.059  0.00  0.00    +0.039 A 
ATOM      7  C   UNL     1      -4.154   2.324  24.589  0.00  0.00    +0.006 A 
ATOM      8  C   UNL     1      -4.965   2.193  24.666  0.00  0.00    +0.037 A 
BRANCH   3   2
ATOM      1  C   UNL     1      -6.537   1.771  25.066  0.00  0.00    +0.252 C 
ATOM      2  O   UNL     1      -6.214   2.496  25.290  0.00  0.00    -0.471 OA
ENDBRANCH   3   2
ENDBRANCH   9   6
ENDBRANCH  14  12
BRANCH  16  20
ATOM     20  N   UNL     1       0.635   1.452  23.705  0.00  0.00    -0.204 NA
ATOM     21  C   UNL     1       0.573   0.641  23.565  0.00  0.00    +0.272 C 
ATOM     22  O   UNL     1       0.005   0.195  23.963  0.00  0.00    -0.271 OA
BRANCH  21  23
ATOM     23  C   UNL     1       1.081   0.276  23.026  0.00  0.00    +0.229 C 
BRANCH  23  24
ATOM     24  O   UNL     1       1.897   0.373  23.098  0.00  0.00    -0.333 OA
BRANCH  24  25
ATOM     25  C   UNL     1       2.401   0.061  22.524  0.00  0.00    +0.257 C 
BRANCH  25  26
ATOM     26  C   UNL     1       3.219   0.128  22.614  0.00  0.00    +0.394 C 
ATOM     27  O   UNL     1       3.638  -0.454  23.021  0.00  0.00    -0.243 OA
ATOM     28  O   UNL     1       3.617   0.778  22.297  0.00  0.00    -0.243 OA
ENDBRANCH  25  26
ENDBRANCH  24  25
ENDBRANCH  23  24
ENDBRANCH  21  23
ENDBRANCH  16  20
TORSDOF 8
ENDMDL
MODEL 4
REMARK VINA RESULT:      -7.4      2.832      4.508
REMARK  Name = 
REMARK  8 active torsions:
REMARK  status: ('A' for Active; 'I' for Inactive)
REMARK    1  A    between atoms: O_2  and  C_3
REMARK    2  A    between atoms: C_6  and  C_9
REMARK    3  A    between atoms: C_12  and  C_14
REMARK    4  A    between atoms: C_16  and  N_20
REMARK    5  A    between atoms: C_21  and  C_23
REMARK    6  A    between atoms: C_23  and  O_24
REMARK    7  A    between atoms: O_24  and  C_25
REMARK    8  A    between atoms: C_25  and  C_26
REMARK                            x       y       z     vdW  Elec       q    Type
REMARK                         _______ _______ _______ _____ _____    ______ ____
ROOT
ATOM     14  C   UNL     1      -0.230   0.329  24.435  0.00  0.00    +0.139 C 
ATOM     15  C   UNL     1      -0.356   1.061  24.793  0.00  0.00    +0.049 C 
ATOM     16  C   UNL     1       0.137   1.613  24.427  0.00  0.00    +0.113 C 
ATOM     17  C   UNL     1       0.567   1.221  23.842  0.00  0.00    +0.094 C 
ATOM     18  N   UNL     1       0.341   0.428  23.847  0.00  0.00    -0.264 NA
ATOM     19  C   UNL     1       0.634  -0.163  23.352  0.00  0.00    +0.090 C 
ENDROOT
BRANCH  14  12
ATOM      9  C   UNL     1      -1.517  -1.352  24.710  0.00  0.00    +0.203 A 
ATOM     10  N   UNL     1      -0.860  -1.581  25.152  0.00  0.00    -0.056 NA
ATOM     11  O   UNL     1      -0.297  -0.979  25.104  0.00  0.00    -0.336 OA
ATOM     12  C   UNL     1      -0.607  -0.378  24.630  0.00  0.00    +0.251 A 
ATOM     13  N   UNL     1      -1.361  -0.608  24.387  0.00  0.00    -0.190 NA
BRANCH   9   6
ATOM      3  C   UNL     1      -3.593  -2.662  24.402  0.00  0.00    +0.139 A 
ATOM      4  C   UNL     1      -3.633  -1.881  24.663  0.00  0.00    +0.037 A 
ATOM      5  C   UNL     1      -2.941  -1.444  24.766  0.00  0.00    +0.006 A 
ATOM      6  C   UNL     1      -2.208  -1.789  24.607  0.00  0.00    +0.039 A 
ATOM      7  C   UNL     1      -2.168  -2.571  24.346  0.00  0.00    +0.006 A 
ATOM      8  C   UNL     1      -2.861  -3.007  24.244  0.00  0.00    +0.037 A 
BRANCH   3   2
ATOM      1  C   UNL     1      -4.720  -3.025  23.602  0.00  0.00    +0.252 C 
ATOM      2  O   UNL     1      -4.286  -3.099  24.300  0.00  0.00    -0.471 OA
ENDBRANCH   3   2
ENDBRANCH   9   6
ENDBRANCH  14  12
BRANCH  16  20
ATOM     20  N   UNL     1       0.188   2.415  24.613  0.00  0.00    -0.204 NA
ATOM     21  C   UNL     1      -0.363   2.946  24.304  0.00  0.00    +0.272 C 
ATOM     22  O   UNL     1      -0.966   2.674  23.810  0.00  0.00    -0.271 OA
BRANCH  21  23
ATOM     23  C   UNL     1      -0.311   3.748  24.490  0.00  0.00    +0.229 C 
BRANCH  23  24
ATOM     24  O   UNL     1      -0.992   4.167  24.697  0.00  0.00    -0.333 OA
BRANCH  24  25
ATOM     25  C   UNL     1      -0.926   4.926  25.014  0.00  0.00    +0.257 C 
BRANCH  25  26
ATOM     26  C   UNL     1      -1.606   5.345  25.223  0.00  0.00    +0.394 C 
ATOM     27  O   UNL     1      -2.191   4.982  25.678  0.00  0.00    -0.243 OA
ATOM     28  O   UNL     1      -1.701   6.127  24.977  0.00  0.00    -0.243 OA
ENDBRANCH  25  26
ENDBRANCH  24  25
ENDBRANCH  23  24
ENDBRANCH  21  23
ENDBRANCH  16  20
TORSDOF 8
ENDMDL
MODEL 5
REMARK VINA RESULT:      -7.4      3.366      4.829
REMARK  Name = 
REMARK  8 active torsions:
REMARK  status: ('A' for Active; 'I' for Inactive)
REMARK    1  A    between atoms: O_2  and  C_3
REMARK    2  A    between atoms: C_6  and  C_9
REMARK    3  A    between atoms: C_12  and  C_14
REMARK    4  A    between atoms: C_16  and  N_20
REMARK    5  A    between atoms: C_21  and  C_23
REMARK    6  A    between atoms: C_23  and  O_24
REMARK    7  A    between atoms: O_24  and  C_25
REMARK    8  A    between atoms: C_25  and  C_26
REMARK                            x       y       z     vdW  Elec       q    Type
REMARK                         _______ _______ _______ _____ _____    ______ ____
ROOT
ATOM     14  C   UNL     1      -4.492   1.672  25.195  0.00  0.00    +0.139 C 
ATOM     15  C   UNL     1      -4.085   0.956  25.237  0.00  0.00    +0.049 C 
ATOM     16  C   UNL     1      -4.610   0.351  25.037  0.00  0.00    +0.113 C 
ATOM     17  C   UNL     1      -5.342   0.694  24.871  0.00  0.00    +0.094 C 
ATOM     18  N   UNL     1      -5.269   1.510  24.969  0.00  0.00    -0.264 NA
ATOM     19  C   UNL     1      -5.868   2.067  24.860  0.00  0.00    +0.090 C 
ENDROOT
BRANCH  14  12
ATOM      9  C   UNL     1      -3.340   3.456  25.414  0.00  0.00    +0.203 A 
ATOM     10  N   UNL     1      -4.049   3.679  25.770  0.00  0.00    -0.056 NA
ATOM     11  O   UNL     1      -4.567   3.038  25.732  0.00  0.00    -0.336 OA
ATOM     12  C   UNL     1      -4.178   2.418  25.351  0.00  0.00    +0.251 A 
ATOM     13  N   UNL     1      -3.419   2.676  25.154  0.00  0.00    -0.190 NA
BRANCH   9   6
ATOM      3  C   UNL     1      -1.325   4.871  25.163  0.00  0.00    +0.139 A 
ATOM      4  C   UNL     1      -1.247   4.072  25.353  0.00  0.00    +0.037 A 
ATOM      5  C   UNL     1      -1.919   3.600  25.437  0.00  0.00    +0.006 A 
ATOM      6  C   UNL     1      -2.669   3.928  25.330  0.00  0.00    +0.039 A 
ATOM      7  C   UNL     1      -2.747   4.727  25.140  0.00  0.00    +0.006 A 
ATOM      8  C   UNL     1      -2.074   5.198  25.057  0.00  0.00    +0.037 A 
BRANCH   3   2
ATOM      1  C   UNL     1      -0.234   5.340  24.369  0.00  0.00    +0.252 C 
ATOM      2  O   UNL     1      -0.653   5.342  25.080  0.00  0.00    -0.471 OA
ENDBRANCH   3   2
ENDBRANCH   9   6
ENDBRANCH  14  12
BRANCH  16  20
ATOM     20  N   UNL     1      -4.434  -0.454  25.008  0.00  0.00    -0.204 NA
ATOM     21  C   UNL     1      -4.075  -0.773  24.337  0.00  0.00    +0.272 C 
ATOM     22  O   UNL     1      -3.893  -0.287  23.695  0.00  0.00    -0.271 OA
BRANCH  21  23
ATOM     23  C   UNL     1      -3.899  -1.579  24.308  0.00  0.00    +0.229 C 
BRANCH  23  24
ATOM     24  O   UNL     1      -3.129  -1.826  24.140  0.00  0.00    -0.333 OA
BRANCH  24  25
ATOM     25  C   UNL     1      -2.840  -2.524  24.471  0.00  0.00    +0.257 C 
BRANCH  25  26
ATOM     26  C   UNL     1      -2.035  -2.702  24.420  0.00  0.00    +0.394 C 
ATOM     27  O   UNL     1      -1.736  -3.070  23.746  0.00  0.00    -0.243 OA
ATOM     28  O   UNL     1      -1.531  -2.511  25.045  0.00  0.00    -0.243 OA
ENDBRANCH  25  26
ENDBRANCH  24  25
ENDBRANCH  23  24
ENDBRANCH  21  23
ENDBRANCH  16  20
TORSDOF 8
ENDMDL
