MODEL 1
REMARK VINA RESULT:      -9.8      0.000      0.000
REMARK  Name = 
REMARK  4 active torsions:
REMARK  status: ('A' for Active; 'I' for Inactive)
REMARK    1  A    between atoms: C_2  and  C_24
REMARK    2  A    between atoms: N_3  and  C_4
REMARK    3  A    between atoms: C_8  and  N_12
REMARK    4  A    between atoms: C_15  and  C_19
REMARK                            x       y       z     vdW  Elec       q    Type
REMARK                         _______ _______ _______ _____ _____    ______ ____
ROOT
ATOM      4  C   UNL     1      -1.827   2.542  24.832  0.00  0.00    +0.155 C 
ATOM      5  C   UNL     1      -1.451   3.216  24.538  0.00  0.00    +0.166 C 
ATOM      6  O   UNL     1      -0.668   3.017  24.371  0.00  0.00    -0.350 OA
ATOM      7  C   UNL     1      -0.560   2.222  24.560  0.00  0.00    +0.166 C 
ATOM      8  C   UNL     1      -0.009   1.607  24.573  0.00  0.00    +0.154 C 
ATOM      9  C   UNL     1      -0.385   0.934  24.866  0.00  0.00    +0.166 C 
ATOM     10  O   UNL     1      -1.169   1.132  25.034  0.00  0.00    -0.350 OA
ATOM     11  C   UNL     1      -1.276   1.928  24.845  0.00  0.00    +0.166 C 
ENDROOT
BRANCH   8  12
ATOM     12  N   UNL     1       0.779   1.658  24.335  0.00  0.00    -0.200 NA
ATOM     13  C   UNL     1       1.090   1.095  23.817  0.00  0.00    +0.237 A 
ATOM     14  N   UNL     1       1.878   1.146  23.578  0.00  0.00    -0.209 NA
ATOM     15  C   UNL     1       2.189   0.584  23.061  0.00  0.00    +0.120 A 
ATOM     16  C   UNL     1       1.711  -0.029  22.782  0.00  0.00    +0.043 A 
ATOM     17  C   UNL     1       0.924  -0.079  23.020  0.00  0.00    +0.104 A 
ATOM     18  N   UNL     1       0.613   0.483  23.537  0.00  0.00    -0.211 NA
BRANCH  15  19
ATOM     19  C   UNL     1       2.977   0.634  22.822  0.00  0.00    +0.163 A 
ATOM     20  C   UNL     1       3.283   0.376  22.101  0.00  0.00    +0.042 A 
ATOM     21  C   UNL     1       4.093   0.534  22.096  0.00  0.00    +0.044 A 
ATOM     22  C   UNL     1       4.288   0.890  22.814  0.00  0.00    +0.180 A 
ATOM     23  O   UNL     1       3.598   0.952  23.263  0.00  0.00    -0.449 OA
ENDBRANCH  15  19
ENDBRANCH   8  12
BRANCH   4   3
ATOM      1  O   UNL     1      -2.989   3.386  24.019  0.00  0.00    -0.268 OA
ATOM      2  C   UNL     1      -3.196   2.914  24.663  0.00  0.00    +0.265 C 
ATOM      3  N   UNL     1      -2.615   2.492  25.069  0.00  0.00    -0.198 NA
BRANCH   2  24
ATOM     24  C   UNL     1      -3.985   2.864  24.901  0.00  0.00    +0.058 A 
ATOM     25  C   UNL     1      -4.310   3.453  25.378  0.00  0.00    +0.008 A 
ATOM     26  C   UNL     1      -5.098   3.403  25.616  0.00  0.00    +0.040 A 
ATOM     27  C   UNL     1      -5.562   2.764  25.377  0.00  0.00    +0.176 A 
ATOM     28  O   UNL     1      -6.349   2.567  25.522  0.00  0.00    -0.435 OA
ATOM     29  C   UNL     1      -6.511   1.857  25.136  0.00  0.00    +0.429 C 
ATOM     30  O   UNL     1      -5.823   1.615  24.751  0.00  0.00    -0.435 OA
ATOM     31  C   UNL     1      -5.237   2.175  24.899  0.00  0.00    +0.177 A 
ATOM     32  C   UNL     1      -4.448   2.225  24.661  0.00  0.00    +0.045 A 
ENDBRANCH   2  24
ENDBRANCH   4   3
TORSDOF 4
ENDMDL
MODEL 2
REMARK VINA RESULT:      -9.4      1.075      7.167
REMARK  Name = 
REMARK  4 active torsions:
REMARK  status: ('A' for Active; 'I' for Inactive)
REMARK    1  A    between atoms: C_2  and  C_24
REMARK    2  A    between atoms: N_3  and  C_4
REMARK    3  A    between atoms: C_8  and  N_12
REMARK    4  A    between atoms: C_15  and  C_19
REMARK                            x       y       z     vdW  Elec       q    Type
REMARK                         _______ _______ _______ _____ _____    ______ ____
ROOT
ATOM      4  C   UNL     1       0.820   0.770  23.680  0.00  0.00    +0.155 C 
ATOM      5  C   UNL     1       0.324   0.311  23.206  0.00  0.00    +0.166 C 
ATOM      6  O   UNL     1      -0.451   0.422  23.467  0.00  0.00    -0.350 OA
ATOM      7  C   UNL     1      -0.434   0.949  24.101  0.00  0.00    +0.166 C 
ATOM      8  C   UNL     1      -0.902   1.344  24.655  0.00  0.00    +0.154 C 
ATOM      9  C   UNL     1      -0.406   1.803  25.127  0.00  0.00    +0.166 C 
ATOM     10  O   UNL     1       0.369   1.692  24.867  0.00  0.00    -0.350 OA
ATOM     11  C   UNL     1       0.351   1.164  24.233  0.00  0.00    +0.166 C 
ENDROOT
BRANCH   8  12
ATOM     12  N   UNL     1      -1.723   1.288  24.722  0.00  0.00    -0.200 NA
ATOM     13  C   UNL     1      -2.176   1.973  24.813  0.00  0.00    +0.237 A 
ATOM     14  N   UNL     1      -2.996   1.917  24.880  0.00  0.00    -0.209 NA
ATOM     15  C   UNL     1      -3.449   2.601  24.971  0.00  0.00    +0.120 A 
ATOM     16  C   UNL     1      -3.081   3.339  24.994  0.00  0.00    +0.043 A 
ATOM     17  C   UNL     1      -2.261   3.394  24.927  0.00  0.00    +0.104 A 
ATOM     18  N   UNL     1      -1.809   2.711  24.836  0.00  0.00    -0.211 NA
BRANCH  15  19
ATOM     19  C   UNL     1      -4.270   2.546  25.039  0.00  0.00    +0.163 A 
ATOM     20  C   UNL     1      -4.778   2.195  24.493  0.00  0.00    +0.042 A 
ATOM     21  C   UNL     1      -5.549   2.264  24.781  0.00  0.00    +0.044 A 
ATOM     22  C   UNL     1      -5.516   2.658  25.504  0.00  0.00    +0.180 A 
ATOM     23  O   UNL     1      -4.725   2.833  25.664  0.00  0.00    -0.449 OA
ENDBRANCH  15  19
ENDBRANCH   8  12
BRANCH   4   3
ATOM      1  O   UNL     1       1.627  -0.205  22.621  0.00  0.00    -0.268 OA
ATOM      2  C   UNL     1       2.043   0.338  23.083  0.00  0.00    +0.265 C 
ATOM      3  N   UNL     1       1.640   0.825  23.612  0.00  0.00    -0.198 NA
BRANCH   2  24
ATOM     24  C   UNL     1       2.864   0.392  23.014  0.00  0.00    +0.058 A 
ATOM     25  C   UNL     1       3.203   1.015  22.591  0.00  0.00    +0.008 A 
ATOM     26  C   UNL     1       4.022   1.069  22.523  0.00  0.00    +0.040 A 
ATOM     27  C   UNL     1       4.505   0.501  22.878  0.00  0.00    +0.176 A 
ATOM     28  O   UNL     1       5.324   0.411  22.905  0.00  0.00    -0.435 OA
ATOM     29  C   UNL     1       5.492  -0.266  23.344  0.00  0.00    +0.429 C 
ATOM     30  O   UNL     1       4.777  -0.595  23.589  0.00  0.00    -0.435 OA
ATOM     31  C   UNL     1       4.167  -0.121  23.301  0.00  0.00    +0.177 A 
ATOM     32  C   UNL     1       3.346  -0.176  23.369  0.00  0.00    +0.045 A 
ENDBRANCH   2  24
ENDBRANCH   4   3
TORSDOF 4
ENDMDL
MODEL 3
REMARK VINA RESULT:      -7.9     15.239     16.419
REMARK  Name = 
REMARK  4 active torsions:
REMARK  status: ('A' for Active; 'I' for Inactive)
REMARK    1  A    between atoms: C_2  and  C_24
REMARK    2  A    between atoms: N_3  and  C_4
REMARK    3  A    between atoms: C_8  and  N_12
REMARK    4  A    between atoms: C_15  and  C_19
REMARK                            x       y       z     vdW  Elec       q    Type
REMARK                         _______ _______ _______ _____ _____    ______ ____
ROOT
ATOM      4  C   UNL     1      -5.243 -10.633  15.565  0.00  0.00    +0.155 C 
ATOM      5  C   UNL     1      -4.427 -10.570  15.462  0.00  0.00    +0.166 C 
ATOM      6  O   UNL     1      -4.278 -10.484  14.655  0.00  0.00    -0.350 OA
ATOM      7  C   UNL     1      -5.001 -10.493  14.259  0.00  0.00    +0.166 C 
ATOM      8  C   UNL     1      -5.356 -10.446  13.515  0.00  0.00    +0.154 C 
ATOM      9  C   UNL     1      -6.172 -10.509  13.619  0.00  0.00    +0.166 C 
ATOM     10  O   UNL     1      -6.322 -10.596  14.425  0.00  0.00    -0.350 OA
ATOM     11  C   UNL     1      -5.598 -10.586  14.821  0.00  0.00    +0.166 C 
ENDROOT
BRANCH   8  12
ATOM     12  N   UNL     1      -4.963 -10.352  12.796  0.00  0.00    -0.200 NA
ATOM     13  C   UNL     1      -5.269  -9.842  12.223  0.00  0.00    +0.237 A 
ATOM     14  N   UNL     1      -4.876  -9.748  11.504  0.00  0.00    -0.209 NA
ATOM     15  C   UNL     1      -5.183  -9.239  10.932  0.00  0.00    +0.120 A 
ATOM     16  C   UNL     1      -5.881  -8.825  11.078  0.00  0.00    +0.043 A 
ATOM     17  C   UNL     1      -6.273  -8.919  11.797  0.00  0.00    +0.104 A 
ATOM     18  N   UNL     1      -5.968  -9.428  12.370  0.00  0.00    -0.211 NA
BRANCH  15  19
ATOM     19  C   UNL     1      -4.790  -9.145  10.212  0.00  0.00    +0.163 A 
ATOM     20  C   UNL     1      -4.031  -8.837  10.110  0.00  0.00    +0.042 A 
ATOM     21  C   UNL     1      -3.859  -8.844   9.303  0.00  0.00    +0.044 A 
ATOM     22  C   UNL     1      -4.511  -9.155   8.906  0.00  0.00    +0.180 A 
ATOM     23  O   UNL     1      -5.087  -9.341   9.467  0.00  0.00    -0.449 OA
ENDBRANCH  15  19
ENDBRANCH   8  12
BRANCH   4   3
ATOM      1  O   UNL     1      -4.572 -10.046  16.953  0.00  0.00    -0.268 OA
ATOM      2  C   UNL     1      -5.300 -10.434  16.978  0.00  0.00    +0.265 C 
ATOM      3  N   UNL     1      -5.635 -10.727  16.284  0.00  0.00    -0.198 NA
BRANCH   2  24
ATOM     24  C   UNL     1      -5.692 -10.528  17.698  0.00  0.00    +0.058 A 
ATOM     25  C   UNL     1      -5.262 -10.687  18.384  0.00  0.00    +0.008 A 
ATOM     26  C   UNL     1      -5.654 -10.781  19.103  0.00  0.00    +0.040 A 
ATOM     27  C   UNL     1      -6.476 -10.716  19.138  0.00  0.00    +0.176 A 
ATOM     28  O   UNL     1      -7.010 -10.781  19.762  0.00  0.00    -0.435 OA
ATOM     29  C   UNL     1      -7.769 -10.662  19.463  0.00  0.00    +0.429 C 
ATOM     30  O   UNL     1      -7.705 -10.524  18.653  0.00  0.00    -0.435 OA
ATOM     31  C   UNL     1      -6.906 -10.557  18.451  0.00  0.00    +0.177 A 
ATOM     32  C   UNL     1      -6.514 -10.463  17.731  0.00  0.00    +0.045 A 
ENDBRANCH   2  24
ENDBRANCH   4   3
TORSDOF 4
ENDMDL
MODEL 4
REMARK VINA RESULT:      -7.4      1.651      2.569
REMARK  Name = 
REMARK  4 active torsions:
REMARK  status: ('A' for Active; 'I' for Inactive)
REMARK    1  A    between atoms: C_2  and  C_24
REMARK    2  A    between atoms: N_3  and  C_4
REMARK    3  A    between atoms: C_8  and  N_12
REMARK    4  A    between atoms: C_15  and  C_19
REMARK                            x       y       z     vdW  Elec       q    Type
REMARK                         _______ _______ _______ _____ _____    ______ ____
ROOT
ATOM      4  C   UNL     1      -0.931  -0.268  24.185  0.00  0.00    +0.155 C 
ATOM      5  C   UNL     1      -0.587  -0.753  24.757  0.00  0.00    +0.166 C 
ATOM      6  O   UNL     1       0.209  -0.848  24.565  0.00  0.00    -0.350 OA
ATOM      7  C   UNL     1       0.358  -0.421  23.875  0.00  0.00    +0.166 C 
ATOM      8  C   UNL     1       0.943  -0.216  23.329  0.00  0.00    +0.154 C 
ATOM      9  C   UNL     1       0.598   0.269  22.758  0.00  0.00    +0.166 C 
ATOM     10  O   UNL     1      -0.199   0.364  22.949  0.00  0.00    -0.350 OA
ATOM     11  C   UNL     1      -0.347  -0.063  23.640  0.00  0.00    +0.166 C 
ENDROOT
BRANCH   8  12
ATOM     12  N   UNL     1       1.732  -0.455  23.352  0.00  0.00    -0.200 NA
ATOM     13  C   UNL     1       2.333   0.096  23.219  0.00  0.00    +0.237 A 
ATOM     14  N   UNL     1       3.122  -0.143  23.242  0.00  0.00    -0.209 NA
ATOM     15  C   UNL     1       3.722   0.407  23.110  0.00  0.00    +0.120 A 
ATOM     16  C   UNL     1       3.533   1.195  22.955  0.00  0.00    +0.043 A 
ATOM     17  C   UNL     1       2.744   1.433  22.932  0.00  0.00    +0.104 A 
ATOM     18  N   UNL     1       2.144   0.884  23.064  0.00  0.00    -0.211 NA
BRANCH  15  19
ATOM     19  C   UNL     1       4.512   0.169  23.133  0.00  0.00    +0.163 A 
ATOM     20  C   UNL     1       4.947  -0.004  23.812  0.00  0.00    +0.042 A 
ATOM     21  C   UNL     1       5.709  -0.218  23.580  0.00  0.00    +0.044 A 
ATOM     22  C   UNL     1       5.746  -0.177  22.757  0.00  0.00    +0.180 A 
ATOM     23  O   UNL     1       5.006   0.062  22.480  0.00  0.00    -0.449 OA
ENDBRANCH  15  19
ENDBRANCH   8  12
BRANCH   4   3
ATOM      1  O   UNL     1      -1.791  -0.132  25.587  0.00  0.00    -0.268 OA
ATOM      2  C   UNL     1      -2.150   0.038  24.864  0.00  0.00    +0.265 C 
ATOM      3  N   UNL     1      -1.720  -0.030  24.163  0.00  0.00    -0.198 NA
BRANCH   2  24
ATOM     24  C   UNL     1      -2.940   0.277  24.842  0.00  0.00    +0.058 A 
ATOM     25  C   UNL     1      -3.542  -0.288  24.847  0.00  0.00    +0.008 A 
ATOM     26  C   UNL     1      -4.331  -0.050  24.825  0.00  0.00    +0.040 A 
ATOM     27  C   UNL     1      -4.519   0.753  24.798  0.00  0.00    +0.176 A 
ATOM     28  O   UNL     1      -5.241   1.151  24.772  0.00  0.00    -0.435 OA
ATOM     29  C   UNL     1      -5.086   1.961  24.751  0.00  0.00    +0.429 C 
ATOM     30  O   UNL     1      -4.268   2.064  24.763  0.00  0.00    -0.435 OA
ATOM     31  C   UNL     1      -3.918   1.318  24.792  0.00  0.00    +0.177 A 
ATOM     32  C   UNL     1      -3.128   1.079  24.814  0.00  0.00    +0.045 A 
ENDBRANCH   2  24
ENDBRANCH   4   3
TORSDOF 4
ENDMDL
MODEL 5
REMARK VINA RESULT:      -7.3     15.323     16.292
REMARK  Name = 
REMARK  4 active torsions:
REMARK  status: ('A' for Active; 'I' for Inactive)
REMARK    1  A    between atoms: C_2  and  C_24
REMARK    2  A    between atoms: N_3  and  C_4
REMARK    3  A    between atoms: C_8  and  N_12
REMARK    4  A    between atoms: C_15  and  C_19
REMARK                            x       y       z     vdW  Elec       q    Type
REMARK                         _______ _______ _______ _____ _____    ______ ____
ROOT
ATOM      4  C   UNL     1      -7.222  -9.950  15.420  0.00  0.00    +0.155 C 
ATOM      5  C   UNL     1      -6.441  -9.891  15.682  0.00  0.00    +0.166 C 
ATOM      6  O   UNL     1      -5.947  -9.971  15.026  0.00  0.00    -0.350 OA
ATOM      7  C   UNL     1      -6.421 -10.079  14.360  0.00  0.00    +0.166 C 
ATOM      8  C   UNL     1      -6.410 -10.195  13.542  0.00  0.00    +0.154 C 
ATOM      9  C   UNL     1      -7.190 -10.254  13.283  0.00  0.00    +0.166 C 
ATOM     10  O   UNL     1      -7.685 -10.175  13.938  0.00  0.00    -0.350 OA
ATOM     11  C   UNL     1      -7.209 -10.066  14.604  0.00  0.00    +0.166 C 
ENDROOT
BRANCH   8  12
ATOM     12  N   UNL     1      -5.735 -10.244  13.070  0.00  0.00    -0.200 NA
ATOM     13  C   UNL     1      -5.649  -9.739  12.422  0.00  0.00    +0.237 A 
ATOM     14  N   UNL     1      -4.974  -9.788  11.950  0.00  0.00    -0.209 NA
ATOM     15  C   UNL     1      -4.888  -9.283  11.303  0.00  0.00    +0.120 A 
ATOM     16  C   UNL     1      -5.476  -8.732  11.128  0.00  0.00    +0.043 A 
ATOM     17  C   UNL     1      -6.150  -8.684  11.601  0.00  0.00    +0.104 A 
ATOM     18  N   UNL     1      -6.237  -9.187  12.248  0.00  0.00    -0.211 NA
BRANCH  15  19
ATOM     19  C   UNL     1      -4.213  -9.332  10.830  0.00  0.00    +0.163 A 
ATOM     20  C   UNL     1      -4.197  -9.312  10.005  0.00  0.00    +0.042 A 
ATOM     21  C   UNL     1      -3.410  -9.376   9.764  0.00  0.00    +0.044 A 
ATOM     22  C   UNL     1      -2.940  -9.435  10.440  0.00  0.00    +0.180 A 
ATOM     23  O   UNL     1      -3.437  -9.408  11.099  0.00  0.00    -0.449 OA
ENDBRANCH  15  19
ENDBRANCH   8  12
BRANCH   4   3
ATOM      1  O   UNL     1      -7.172  -9.117  16.844  0.00  0.00    -0.268 OA
ATOM      2  C   UNL     1      -7.871  -9.485  16.605  0.00  0.00    +0.265 C 
ATOM      3  N   UNL     1      -7.896  -9.902  15.893  0.00  0.00    -0.198 NA
BRANCH   2  24
ATOM     24  C   UNL     1      -8.545  -9.436  17.079  0.00  0.00    +0.058 A 
ATOM     25  C   UNL     1      -9.063  -8.800  16.995  0.00  0.00    +0.008 A 
ATOM     26  C   UNL     1      -9.737  -8.752  17.468  0.00  0.00    +0.040 A 
ATOM     27  C   UNL     1      -9.893  -9.339  18.026  0.00  0.00    +0.176 A 
ATOM     28  O   UNL     1     -10.508  -9.439  18.565  0.00  0.00    -0.435 OA
ATOM     29  C   UNL     1     -10.370 -10.137  18.983  0.00  0.00    +0.429 C 
ATOM     30  O   UNL     1      -9.670 -10.468  18.701  0.00  0.00    -0.435 OA
ATOM     31  C   UNL     1      -9.375  -9.976  18.110  0.00  0.00    +0.177 A 
ATOM     32  C   UNL     1      -8.700 -10.024  17.636  0.00  0.00    +0.045 A 
ENDBRANCH   2  24
ENDBRANCH   4   3
TORSDOF 4
ENDMDL
MODEL 6
REMARK VINA RESULT:      -6.7     15.587     17.502
REMARK  Name = 
REMARK  4 active torsions:
REMARK  status: ('A' for Active; 'I' for Inactive)
REMARK    1  A    between atoms: C_2  and  C_24
REMARK    2  A    between atoms: N_3  and  C_4
REMARK    3  A    between atoms: C_8  and  N_12
REMARK    4  A    between atoms: C_15  and  C_19
REMARK                            x       y       z     vdW  Elec       q    Type
REMARK                         _______ _______ _______ _____ _____    ______ ____
ROOT
ATOM      4  C   UNL     1      -6.559  -9.662  13.117  0.00  0.00    +0.155 C 
ATOM      5  C   UNL     1      -7.359  -9.637  12.917  0.00  0.00    +0.166 C 
ATOM      6  O   UNL     1      -7.794  -9.862  13.580  0.00  0.00    -0.350 OA
ATOM      7  C   UNL     1      -7.264 -10.027  14.190  0.00  0.00    +0.166 C 
ATOM      8  C   UNL     1      -7.205 -10.267  14.978  0.00  0.00    +0.154 C 
ATOM      9  C   UNL     1      -6.405 -10.292  15.177  0.00  0.00    +0.166 C 
ATOM     10  O   UNL     1      -5.969 -10.067  14.513  0.00  0.00    -0.350 OA
ATOM     11  C   UNL     1      -6.501  -9.903  13.904  0.00  0.00    +0.166 C 
ENDROOT
BRANCH   8  12
ATOM     12  N   UNL     1      -7.836 -10.450  15.476  0.00  0.00    -0.200 NA
ATOM     13  C   UNL     1      -7.887 -10.100  16.223  0.00  0.00    +0.237 A 
ATOM     14  N   UNL     1      -8.518 -10.283  16.721  0.00  0.00    -0.209 NA
ATOM     15  C   UNL     1      -8.568  -9.933  17.467  0.00  0.00    +0.120 A 
ATOM     16  C   UNL     1      -7.987  -9.401  17.713  0.00  0.00    +0.043 A 
ATOM     17  C   UNL     1      -7.357  -9.219  17.214  0.00  0.00    +0.104 A 
ATOM     18  N   UNL     1      -7.306  -9.568  16.469  0.00  0.00    -0.211 NA
BRANCH  15  19
ATOM     19  C   UNL     1      -9.199 -10.116  17.966  0.00  0.00    +0.163 A 
ATOM     20  C   UNL     1      -9.204 -10.701  18.547  0.00  0.00    +0.042 A 
ATOM     21  C   UNL     1      -9.944 -10.693  18.912  0.00  0.00    +0.044 A 
ATOM     22  C   UNL     1     -10.396 -10.102  18.557  0.00  0.00    +0.180 A 
ATOM     23  O   UNL     1      -9.936  -9.745  17.972  0.00  0.00    -0.449 OA
ENDBRANCH  15  19
ENDBRANCH   8  12
BRANCH   4   3
ATOM      1  O   UNL     1      -6.822  -9.445  11.502  0.00  0.00    -0.268 OA
ATOM      2  C   UNL     1      -6.060  -9.371  11.810  0.00  0.00    +0.265 C 
ATOM      3  N   UNL     1      -5.929  -9.479  12.618  0.00  0.00    -0.198 NA
BRANCH   2  24
ATOM     24  C   UNL     1      -5.429  -9.188  11.310  0.00  0.00    +0.058 A 
ATOM     25  C   UNL     1      -5.477  -8.534  10.808  0.00  0.00    +0.008 A 
ATOM     26  C   UNL     1      -4.847  -8.352  10.309  0.00  0.00    +0.040 A 
ATOM     27  C   UNL     1      -4.168  -8.821  10.311  0.00  0.00    +0.176 A 
ATOM     28  O   UNL     1      -3.465  -8.778   9.883  0.00  0.00    -0.435 OA
ATOM     29  C   UNL     1      -2.983  -9.403  10.120  0.00  0.00    +0.429 C 
ATOM     30  O   UNL     1      -3.388  -9.834  10.695  0.00  0.00    -0.435 OA
ATOM     31  C   UNL     1      -4.121  -9.475  10.813  0.00  0.00    +0.177 A 
ATOM     32  C   UNL     1      -4.752  -9.658  11.313  0.00  0.00    +0.045 A 
ENDBRANCH   2  24
ENDBRANCH   4   3
TORSDOF 4
ENDMDL
