MODEL 1
REMARK VINA RESULT:     -11.9      0.000      0.000
REMARK  Name = 
REMARK  7 active torsions:
REMARK  status: ('A' for Active; 'I' for Inactive)
REMARK    1  A    between atoms: O_2  and  C_3
REMARK    2  A    between atoms: C_6  and  C_7
REMARK    3  A    between atoms: C_7  and  N_8
REMARK    4  A    between atoms: C_12  and  C_13
REMARK    5  A    between atoms: C_15  and  C_18
REMARK    6  A    between atoms: C_21  and  O_22
REMARK    7  A    between atoms: O_22  and  C_23
REMARK                            x       y       z     vdW  Elec       q    Type
REMARK                         _______ _______ _______ _____ _____    ______ ____
ROOT
ATOM     13  C   UNL     1      -0.689   2.627  24.781  0.00  0.00    +0.251 A 
ATOM     14  N   UNL     1      -1.080   1.926  24.973  0.00  0.00    -0.190 NA
ATOM     15  C   UNL     1      -0.593   1.295  24.764  0.00  0.00    +0.205 A 
ATOM     16  N   UNL     1       0.102   1.605  24.443  0.00  0.00    -0.056 NA
ATOM     17  O   UNL     1       0.042   2.428  24.454  0.00  0.00    -0.336 OA
ENDROOT
BRANCH  15  18
ATOM     18  C   UNL     1      -0.767   0.494  24.859  0.00  0.00    +0.058 A 
ATOM     19  C   UNL     1      -1.026   0.213  25.590  0.00  0.00    +0.010 A 
ATOM     20  C   UNL     1      -1.200  -0.587  25.686  0.00  0.00    +0.058 A 
ATOM     21  C   UNL     1      -1.115  -1.107  25.051  0.00  0.00    +0.225 A 
ATOM     29  N   UNL     1      -0.856  -0.826  24.320  0.00  0.00    -0.210 NA
ATOM     30  C   UNL     1      -0.681  -0.025  24.224  0.00  0.00    +0.105 A 
BRANCH  21  22
ATOM     22  O   UNL     1      -1.289  -1.908  25.147  0.00  0.00    -0.464 OA
BRANCH  22  23
ATOM     23  C   UNL     1      -2.038  -2.193  24.951  0.00  0.00    +0.168 C 
ATOM     24  C   UNL     1      -2.678  -2.052  25.453  0.00  0.00    +0.044 C 
ATOM     25  C   UNL     1      -3.427  -2.338  25.257  0.00  0.00    +0.004 C 
ATOM     26  C   UNL     1      -3.535  -2.765  24.559  0.00  0.00    +0.000 C 
ATOM     27  C   UNL     1      -2.895  -2.906  24.057  0.00  0.00    +0.004 C 
ATOM     28  C   UNL     1      -2.147  -2.620  24.253  0.00  0.00    +0.044 C 
ENDBRANCH  22  23
ENDBRANCH  21  22
ENDBRANCH  15  18
BRANCH  13  12
ATOM      8  N   UNL     1      -1.758   3.636  24.799  0.00  0.00    -0.263 NA
ATOM      9  C   UNL     1      -1.797   4.441  24.971  0.00  0.00    +0.073 C 
ATOM     10  C   UNL     1      -1.038   4.695  25.176  0.00  0.00    +0.019 C 
ATOM     11  C   UNL     1      -0.531   4.046  25.129  0.00  0.00    +0.027 C 
ATOM     12  C   UNL     1      -0.976   3.391  24.896  0.00  0.00    +0.138 C 
BRANCH   8   7
ATOM      7  C   UNL     1      -2.390   3.159  24.569  0.00  0.00    +0.099 C 
BRANCH   7   6
ATOM      3  C   UNL     1      -4.700   3.760  25.224  0.00  0.00    +0.139 A 
ATOM      4  C   UNL     1      -4.449   3.870  24.445  0.00  0.00    +0.037 A 
ATOM      5  C   UNL     1      -3.680   3.670  24.227  0.00  0.00    +0.000 A 
ATOM      6  C   UNL     1      -3.160   3.359  24.788  0.00  0.00    -0.006 A 
ATOM     31  C   UNL     1      -3.410   3.249  25.566  0.00  0.00    +0.000 A 
ATOM     32  C   UNL     1      -4.180   3.450  25.784  0.00  0.00    +0.037 A 
BRANCH   3   2
ATOM      1  C   UNL     1      -5.982   3.379  25.726  0.00  0.00    +0.252 C 
ATOM      2  O   UNL     1      -5.469   3.960  25.442  0.00  0.00    -0.471 OA
ENDBRANCH   3   2
ENDBRANCH   7   6
ENDBRANCH   8   7
ENDBRANCH  13  12
TORSDOF 7
ENDMDL
MODEL 2
REMARK VINA RESULT:     -11.2      1.916      3.397
REMARK  Name = 
REMARK  7 active torsions:
REMARK  status: ('A' for Active; 'I' for Inactive)
REMARK    1  A    between atoms: O_2  and  C_3
REMARK    2  A    between atoms: C_6  and  C_7
REMARK    3  A    between atoms: C_7  and  N_8
REMARK    4  A    between atoms: C_12  and  C_13
REMARK    5  A    between atoms: C_15  and  C_18
REMARK    6  A    between atoms: C_21  and  O_22
REMARK    7  A    between atoms: O_22  and  C_23
REMARK                            x       y       z     vdW  Elec       q    Type
REMARK                         _______ _______ _______ _____ _____    ______ ____
ROOT
ATOM     13  C   UNL     1      -5.127   1.903  25.066  0.00  0.00    +0.251 A 
ATOM     14  N   UNL     1      -4.553   1.342  25.257  0.00  0.00    -0.190 NA
ATOM     15  C   UNL     1      -4.763   0.629  24.901  0.00  0.00    +0.205 A 
ATOM     16  N   UNL     1      -5.469   0.748  24.490  0.00  0.00    -0.056 NA
ATOM     17  O   UNL     1      -5.694   1.535  24.592  0.00  0.00    -0.336 OA
ENDROOT
BRANCH  15  18
ATOM     18  C   UNL     1      -4.344  -0.080  24.947  0.00  0.00    +0.058 A 
ATOM     19  C   UNL     1      -4.246  -0.545  24.273  0.00  0.00    +0.010 A 
ATOM     20  C   UNL     1      -3.827  -1.254  24.318  0.00  0.00    +0.058 A 
ATOM     21  C   UNL     1      -3.505  -1.498  25.037  0.00  0.00    +0.225 A 
ATOM     29  N   UNL     1      -3.602  -1.033  25.712  0.00  0.00    -0.210 NA
ATOM     30  C   UNL     1      -4.022  -0.324  25.667  0.00  0.00    +0.105 A 
BRANCH  21  22
ATOM     22  O   UNL     1      -3.085  -2.207  25.082  0.00  0.00    -0.464 OA
BRANCH  22  23
ATOM     23  C   UNL     1      -2.274  -2.217  24.930  0.00  0.00    +0.168 C 
ATOM     24  C   UNL     1      -1.749  -1.874  25.467  0.00  0.00    +0.044 C 
ATOM     25  C   UNL     1      -0.939  -1.884  25.315  0.00  0.00    +0.004 C 
ATOM     26  C   UNL     1      -0.653  -2.237  24.626  0.00  0.00    +0.000 C 
ATOM     27  C   UNL     1      -1.178  -2.579  24.089  0.00  0.00    +0.004 C 
ATOM     28  C   UNL     1      -1.989  -2.569  24.241  0.00  0.00    +0.044 C 
ENDBRANCH  22  23
ENDBRANCH  21  22
ENDBRANCH  15  18
BRANCH  13  12
ATOM      8  N   UNL     1      -4.518   3.232  25.218  0.00  0.00    -0.263 NA
ATOM      9  C   UNL     1      -4.763   3.953  25.535  0.00  0.00    +0.073 C 
ATOM     10  C   UNL     1      -5.532   3.858  25.820  0.00  0.00    +0.019 C 
ATOM     11  C   UNL     1      -5.761   3.078  25.679  0.00  0.00    +0.027 C 
ATOM     12  C   UNL     1      -5.135   2.691  25.307  0.00  0.00    +0.138 C 
BRANCH   8   7
ATOM      7  C   UNL     1      -3.785   3.079  24.873  0.00  0.00    +0.099 C 
BRANCH   7   6
ATOM      3  C   UNL     1      -1.915   4.671  25.176  0.00  0.00    +0.139 A 
ATOM      4  C   UNL     1      -2.037   4.068  25.725  0.00  0.00    +0.037 A 
ATOM      5  C   UNL     1      -2.660   3.537  25.625  0.00  0.00    +0.000 A 
ATOM      6  C   UNL     1      -3.162   3.610  24.973  0.00  0.00    -0.006 A 
ATOM     31  C   UNL     1      -3.040   4.213  24.424  0.00  0.00    +0.000 A 
ATOM     32  C   UNL     1      -2.416   4.744  24.526  0.00  0.00    +0.037 A 
BRANCH   3   2
ATOM      1  C   UNL     1      -0.575   5.075  24.887  0.00  0.00    +0.252 C 
ATOM      2  O   UNL     1      -1.292   5.201  25.277  0.00  0.00    -0.471 OA
ENDBRANCH   3   2
ENDBRANCH   7   6
ENDBRANCH   8   7
ENDBRANCH  13  12
TORSDOF 7
ENDMDL
MODEL 3
REMARK VINA RESULT:     -10.6      2.660      4.205
REMARK  Name = 
REMARK  7 active torsions:
REMARK  status: ('A' for Active; 'I' for Inactive)
REMARK    1  A    between atoms: O_2  and  C_3
REMARK    2  A    between atoms: C_6  and  C_7
REMARK    3  A    between atoms: C_7  and  N_8
REMARK    4  A    between atoms: C_12  and  C_13
REMARK    5  A    between atoms: C_15  and  C_18
REMARK    6  A    between atoms: C_21  and  O_22
REMARK    7  A    between atoms: O_22  and  C_23
REMARK                            x       y       z     vdW  Elec       q    Type
REMARK                         _______ _______ _______ _____ _____    ______ ____
ROOT
ATOM     13  C   UNL     1      -1.547   0.272  24.500  0.00  0.00    +0.251 A 
ATOM     14  N   UNL     1      -1.040   0.224  23.852  0.00  0.00    -0.190 NA
ATOM     15  C   UNL     1      -0.266   0.307  24.124  0.00  0.00    +0.205 A 
ATOM     16  N   UNL     1      -0.295   0.407  24.943  0.00  0.00    -0.056 NA
ATOM     17  O   UNL     1      -1.086   0.385  25.176  0.00  0.00    -0.336 OA
ENDROOT
BRANCH  15  18
ATOM     18  C   UNL     1       0.417   0.292  23.662  0.00  0.00    +0.058 A 
ATOM     19  C   UNL     1       0.603  -0.381  23.223  0.00  0.00    +0.010 A 
ATOM     20  C   UNL     1       1.285  -0.397  22.761  0.00  0.00    +0.058 A 
ATOM     21  C   UNL     1       1.782   0.262  22.736  0.00  0.00    +0.225 A 
ATOM     29  N   UNL     1       1.596   0.935  23.174  0.00  0.00    -0.210 NA
ATOM     30  C   UNL     1       0.913   0.951  23.637  0.00  0.00    +0.105 A 
BRANCH  21  22
ATOM     22  O   UNL     1       2.465   0.246  22.273  0.00  0.00    -0.464 OA
BRANCH  22  23
ATOM     23  C   UNL     1       3.207   0.258  22.632  0.00  0.00    +0.168 C 
ATOM     24  C   UNL     1       3.501  -0.423  22.994  0.00  0.00    +0.044 C 
ATOM     25  C   UNL     1       4.244  -0.411  23.354  0.00  0.00    +0.004 C 
ATOM     26  C   UNL     1       4.692   0.282  23.351  0.00  0.00    +0.000 C 
ATOM     27  C   UNL     1       4.398   0.963  22.989  0.00  0.00    +0.004 C 
ATOM     28  C   UNL     1       3.655   0.951  22.629  0.00  0.00    +0.044 C 
ENDBRANCH  22  23
ENDBRANCH  21  22
ENDBRANCH  15  18
BRANCH  13  12
ATOM      8  N   UNL     1      -2.896   0.847  24.396  0.00  0.00    -0.263 NA
ATOM      9  C   UNL     1      -3.662   0.541  24.403  0.00  0.00    +0.073 C 
ATOM     10  C   UNL     1      -3.609  -0.278  24.491  0.00  0.00    +0.019 C 
ATOM     11  C   UNL     1      -2.810  -0.478  24.538  0.00  0.00    +0.027 C 
ATOM     12  C   UNL     1      -2.369   0.217  24.479  0.00  0.00    +0.138 C 
BRANCH   8   7
ATOM      7  C   UNL     1      -2.692   1.642  24.320  0.00  0.00    +0.099 C 
BRANCH   7   6
ATOM      3  C   UNL     1      -4.345   3.403  24.863  0.00  0.00    +0.139 A 
ATOM      4  C   UNL     1      -3.827   3.129  25.444  0.00  0.00    +0.037 A 
ATOM      5  C   UNL     1      -3.276   2.543  25.264  0.00  0.00    +0.000 A 
ATOM      6  C   UNL     1      -3.243   2.229  24.500  0.00  0.00    -0.006 A 
ATOM     31  C   UNL     1      -3.761   2.502  23.919  0.00  0.00    +0.000 A 
ATOM     32  C   UNL     1      -4.312   3.089  24.102  0.00  0.00    +0.037 A 
BRANCH   3   2
ATOM      1  C   UNL     1      -5.520   3.824  25.559  0.00  0.00    +0.252 C 
ATOM      2  O   UNL     1      -4.895   3.989  25.045  0.00  0.00    -0.471 OA
ENDBRANCH   3   2
ENDBRANCH   7   6
ENDBRANCH   8   7
ENDBRANCH  13  12
TORSDOF 7
ENDMDL
MODEL 4
REMARK VINA RESULT:     -10.5      1.859      3.404
REMARK  Name = 
REMARK  7 active torsions:
REMARK  status: ('A' for Active; 'I' for Inactive)
REMARK    1  A    between atoms: O_2  and  C_3
REMARK    2  A    between atoms: C_6  and  C_7
REMARK    3  A    between atoms: C_7  and  N_8
REMARK    4  A    between atoms: C_12  and  C_13
REMARK    5  A    between atoms: C_15  and  C_18
REMARK    6  A    between atoms: C_21  and  O_22
REMARK    7  A    between atoms: O_22  and  C_23
REMARK                            x       y       z     vdW  Elec       q    Type
REMARK                         _______ _______ _______ _____ _____    ______ ____
ROOT
ATOM     13  C   UNL     1      -3.677   2.965  24.822  0.00  0.00    +0.251 A 
ATOM     14  N   UNL     1      -3.649   2.159  24.996  0.00  0.00    -0.190 NA
ATOM     15  C   UNL     1      -4.067   1.756  24.411  0.00  0.00    +0.205 A 
ATOM     16  N   UNL     1      -4.354   2.314  23.874  0.00  0.00    -0.056 NA
ATOM     17  O   UNL     1      -4.113   3.060  24.128  0.00  0.00    -0.336 OA
ENDROOT
BRANCH  15  18
ATOM     18  C   UNL     1      -4.179   0.940  24.367  0.00  0.00    +0.058 A 
ATOM     19  C   UNL     1      -4.614   0.553  24.952  0.00  0.00    +0.010 A 
ATOM     20  C   UNL     1      -4.727  -0.263  24.910  0.00  0.00    +0.058 A 
ATOM     21  C   UNL     1      -4.405  -0.692  24.283  0.00  0.00    +0.225 A 
ATOM     29  N   UNL     1      -3.970  -0.306  23.699  0.00  0.00    -0.210 NA
ATOM     30  C   UNL     1      -3.857   0.511  23.741  0.00  0.00    +0.105 A 
BRANCH  21  22
ATOM     22  O   UNL     1      -4.518  -1.509  24.241  0.00  0.00    -0.464 OA
BRANCH  22  23
ATOM     23  C   UNL     1      -3.902  -2.021  24.440  0.00  0.00    +0.168 C 
ATOM     24  C   UNL     1      -3.594  -2.535  23.873  0.00  0.00    +0.044 C 
ATOM     25  C   UNL     1      -2.979  -3.047  24.071  0.00  0.00    +0.004 C 
ATOM     26  C   UNL     1      -2.672  -3.045  24.837  0.00  0.00    +0.000 C 
ATOM     27  C   UNL     1      -2.980  -2.531  25.404  0.00  0.00    +0.004 C 
ATOM     28  C   UNL     1      -3.595  -2.019  25.206  0.00  0.00    +0.044 C 
ENDBRANCH  22  23
ENDBRANCH  21  22
ENDBRANCH  15  18
BRANCH  13  12
ATOM      8  N   UNL     1      -2.523   3.733  25.313  0.00  0.00    -0.263 NA
ATOM      9  C   UNL     1      -2.425   4.381  25.813  0.00  0.00    +0.073 C 
ATOM     10  C   UNL     1      -3.171   4.618  26.073  0.00  0.00    +0.019 C 
ATOM     11  C   UNL     1      -3.731   4.116  25.733  0.00  0.00    +0.027 C 
ATOM     12  C   UNL     1      -3.330   3.569  25.263  0.00  0.00    +0.138 C 
BRANCH   8   7
ATOM      7  C   UNL     1      -1.921   3.321  24.929  0.00  0.00    +0.099 C 
BRANCH   7   6
ATOM      3  C   UNL     1       0.184   2.806  26.125  0.00  0.00    +0.139 A 
ATOM      4  C   UNL     1      -0.437   2.263  26.130  0.00  0.00    +0.037 A 
ATOM      5  C   UNL     1      -1.139   2.434  25.732  0.00  0.00    +0.000 A 
ATOM      6  C   UNL     1      -1.219   3.150  25.328  0.00  0.00    -0.006 A 
ATOM     31  C   UNL     1      -0.598   3.693  25.323  0.00  0.00    +0.000 A 
ATOM     32  C   UNL     1       0.103   3.520  25.722  0.00  0.00    +0.037 A 
BRANCH   3   2
ATOM      1  C   UNL     1       0.925   2.718  27.344  0.00  0.00    +0.252 C 
ATOM      2  O   UNL     1       0.885   2.633  26.524  0.00  0.00    -0.471 OA
ENDBRANCH   3   2
ENDBRANCH   7   6
ENDBRANCH   8   7
ENDBRANCH  13  12
TORSDOF 7
ENDMDL
MODEL 5
REMARK VINA RESULT:     -10.4      1.094      5.001
REMARK  Name = 
REMARK  7 active torsions:
REMARK  status: ('A' for Active; 'I' for Inactive)
REMARK    1  A    between atoms: O_2  and  C_3
REMARK    2  A    between atoms: C_6  and  C_7
REMARK    3  A    between atoms: C_7  and  N_8
REMARK    4  A    between atoms: C_12  and  C_13
REMARK    5  A    between atoms: C_15  and  C_18
REMARK    6  A    between atoms: C_21  and  O_22
REMARK    7  A    between atoms: O_22  and  C_23
REMARK                            x       y       z     vdW  Elec       q    Type
REMARK                         _______ _______ _______ _____ _____    ______ ____
ROOT
ATOM     13  C   UNL     1      -0.421   1.347  24.062  0.00  0.00    +0.251 A 
ATOM     14  N   UNL     1      -1.239   1.458  24.077  0.00  0.00    -0.190 NA
ATOM     15  C   UNL     1      -1.389   2.218  24.358  0.00  0.00    +0.205 A 
ATOM     16  N   UNL     1      -0.664   2.578  24.517  0.00  0.00    -0.056 NA
ATOM     17  O   UNL     1      -0.066   2.040  24.335  0.00  0.00    -0.336 OA
ENDROOT
BRANCH  15  18
ATOM     18  C   UNL     1      -2.133   2.559  24.461  0.00  0.00    +0.058 A 
ATOM     19  C   UNL     1      -2.664   2.590  23.831  0.00  0.00    +0.010 A 
ATOM     20  C   UNL     1      -3.407   2.931  23.933  0.00  0.00    +0.058 A 
ATOM     21  C   UNL     1      -3.621   3.242  24.667  0.00  0.00    +0.225 A 
ATOM     29  N   UNL     1      -3.091   3.212  25.298  0.00  0.00    -0.210 NA
ATOM     30  C   UNL     1      -2.346   2.870  25.195  0.00  0.00    +0.105 A 
BRANCH  21  22
ATOM     22  O   UNL     1      -4.365   3.584  24.770  0.00  0.00    -0.464 OA
BRANCH  22  23
ATOM     23  C   UNL     1      -4.985   3.136  25.080  0.00  0.00    +0.168 C 
ATOM     24  C   UNL     1      -5.244   3.270  25.852  0.00  0.00    +0.044 C 
ATOM     25  C   UNL     1      -5.863   2.823  26.163  0.00  0.00    +0.004 C 
ATOM     26  C   UNL     1      -6.224   2.242  25.701  0.00  0.00    +0.000 C 
ATOM     27  C   UNL     1      -5.965   2.108  24.929  0.00  0.00    +0.004 C 
ATOM     28  C   UNL     1      -5.346   2.556  24.618  0.00  0.00    +0.044 C 
ENDBRANCH  22  23
ENDBRANCH  21  22
ENDBRANCH  15  18
BRANCH  13  12
ATOM      8  N   UNL     1      -0.124  -0.091  24.136  0.00  0.00    -0.263 NA
ATOM      9  C   UNL     1       0.376  -0.604  23.728  0.00  0.00    +0.073 C 
ATOM     10  C   UNL     1       0.782  -0.166  23.158  0.00  0.00    +0.019 C 
ATOM     11  C   UNL     1       0.532   0.618  23.215  0.00  0.00    +0.027 C 
ATOM     12  C   UNL     1      -0.028   0.665  23.819  0.00  0.00    +0.138 C 
BRANCH   8   7
ATOM      7  C   UNL     1      -0.632  -0.297  24.752  0.00  0.00    +0.099 C 
BRANCH   7   6
ATOM      3  C   UNL     1      -1.922  -2.405  24.643  0.00  0.00    +0.139 A 
ATOM      4  C   UNL     1      -1.179  -2.395  25.000  0.00  0.00    +0.037 A 
ATOM      5  C   UNL     1      -0.748  -1.692  25.036  0.00  0.00    +0.000 A 
ATOM      6  C   UNL     1      -1.062  -0.999  24.715  0.00  0.00    -0.006 A 
ATOM     31  C   UNL     1      -1.806  -1.010  24.359  0.00  0.00    +0.000 A 
ATOM     32  C   UNL     1      -2.236  -1.714  24.323  0.00  0.00    +0.037 A 
BRANCH   3   2
ATOM      1  C   UNL     1      -3.175  -3.092  24.673  0.00  0.00    +0.252 C 
ATOM      2  O   UNL     1      -2.352  -3.108  24.607  0.00  0.00    -0.471 OA
ENDBRANCH   3   2
ENDBRANCH   7   6
ENDBRANCH   8   7
ENDBRANCH  13  12
TORSDOF 7
ENDMDL
MODEL 6
REMARK VINA RESULT:     -10.4      3.012      5.155
REMARK  Name = 
REMARK  7 active torsions:
REMARK  status: ('A' for Active; 'I' for Inactive)
REMARK    1  A    between atoms: O_2  and  C_3
REMARK    2  A    between atoms: C_6  and  C_7
REMARK    3  A    between atoms: C_7  and  N_8
REMARK    4  A    between atoms: C_12  and  C_13
REMARK    5  A    between atoms: C_15  and  C_18
REMARK    6  A    between atoms: C_21  and  O_22
REMARK    7  A    between atoms: O_22  and  C_23
REMARK                            x       y       z     vdW  Elec       q    Type
REMARK                         _______ _______ _______ _____ _____    ______ ____
ROOT
ATOM     13  C   UNL     1      -0.800   1.200  23.995  0.00  0.00    +0.251 A 
ATOM     14  N   UNL     1      -0.231   0.882  23.490  0.00  0.00    -0.190 NA
ATOM     15  C   UNL     1       0.513   1.073  23.790  0.00  0.00    +0.205 A 
ATOM     16  N   UNL     1       0.404   1.509  24.482  0.00  0.00    -0.056 NA
ATOM     17  O   UNL     1      -0.408   1.588  24.608  0.00  0.00    -0.336 OA
ENDROOT
BRANCH  15  18
ATOM     18  C   UNL     1       1.239   0.865  23.458  0.00  0.00    +0.058 A 
ATOM     19  C   UNL     1       1.331   0.128  23.097  0.00  0.00    +0.010 A 
ATOM     20  C   UNL     1       2.057  -0.081  22.766  0.00  0.00    +0.058 A 
ATOM     21  C   UNL     1       2.690   0.447  22.795  0.00  0.00    +0.225 A 
ATOM     29  N   UNL     1       2.599   1.183  23.155  0.00  0.00    -0.210 NA
ATOM     30  C   UNL     1       1.873   1.392  23.487  0.00  0.00    +0.105 A 
BRANCH  21  22
ATOM     22  O   UNL     1       3.417   0.238  22.463  0.00  0.00    -0.464 OA
BRANCH  22  23
ATOM     23  C   UNL     1       4.065   0.087  22.950  0.00  0.00    +0.168 C 
ATOM     24  C   UNL     1       4.629   0.675  23.080  0.00  0.00    +0.044 C 
ATOM     25  C   UNL     1       5.277   0.524  23.567  0.00  0.00    +0.004 C 
ATOM     26  C   UNL     1       5.361  -0.214  23.925  0.00  0.00    +0.000 C 
ATOM     27  C   UNL     1       4.797  -0.803  23.795  0.00  0.00    +0.004 C 
ATOM     28  C   UNL     1       4.149  -0.652  23.308  0.00  0.00    +0.044 C 
ENDBRANCH  22  23
ENDBRANCH  21  22
ENDBRANCH  15  18
BRANCH  13  12
ATOM      8  N   UNL     1      -2.112   0.604  24.289  0.00  0.00    -0.263 NA
ATOM      9  C   UNL     1      -2.884   0.741  24.034  0.00  0.00    +0.073 C 
ATOM     10  C   UNL     1      -2.868   1.362  23.491  0.00  0.00    +0.019 C 
ATOM     11  C   UNL     1      -2.085   1.609  23.410  0.00  0.00    +0.027 C 
ATOM     12  C   UNL     1      -1.617   1.141  23.904  0.00  0.00    +0.138 C 
BRANCH   8   7
ATOM      7  C   UNL     1      -1.875   0.033  24.834  0.00  0.00    +0.099 C 
BRANCH   7   6
ATOM      3  C   UNL     1      -3.199  -2.040  25.108  0.00  0.00    +0.139 A 
ATOM      4  C   UNL     1      -2.571  -2.020  24.574  0.00  0.00    +0.037 A 
ATOM      5  C   UNL     1      -2.130  -1.329  24.482  0.00  0.00    +0.000 A 
ATOM      6  C   UNL     1      -2.317  -0.658  24.925  0.00  0.00    -0.006 A 
ATOM     31  C   UNL     1      -2.945  -0.679  25.460  0.00  0.00    +0.000 A 
ATOM     32  C   UNL     1      -3.386  -1.370  25.551  0.00  0.00    +0.037 A 
BRANCH   3   2
ATOM      1  C   UNL     1      -3.728  -3.252  24.564  0.00  0.00    +0.252 C 
ATOM      2  O   UNL     1      -3.640  -2.731  25.200  0.00  0.00    -0.471 OA
ENDBRANCH   3   2
ENDBRANCH   7   6
ENDBRANCH   8   7
ENDBRANCH  13  12
TORSDOF 7
ENDMDL
MODEL 7
REMARK VINA RESULT:      -9.9      2.119      5.669
REMARK  Name = 
REMARK  7 active torsions:
REMARK  status: ('A' for Active; 'I' for Inactive)
REMARK    1  A    between atoms: O_2  and  C_3
REMARK    2  A    between atoms: C_6  and  C_7
REMARK    3  A    between atoms: C_7  and  N_8
REMARK    4  A    between atoms: C_12  and  C_13
REMARK    5  A    between atoms: C_15  and  C_18
REMARK    6  A    between atoms: C_21  and  O_22
REMARK    7  A    between atoms: O_22  and  C_23
REMARK                            x       y       z     vdW  Elec       q    Type
REMARK                         _______ _______ _______ _____ _____    ______ ____
ROOT
ATOM     13  C   UNL     1      -1.987  -1.238  24.629  0.00  0.00    +0.251 A 
ATOM     14  N   UNL     1      -2.373  -0.528  24.790  0.00  0.00    -0.190 NA
ATOM     15  C   UNL     1      -3.150  -0.592  24.523  0.00  0.00    +0.205 A 
ATOM     16  N   UNL     1      -3.245  -1.344  24.195  0.00  0.00    -0.056 NA
ATOM     17  O   UNL     1      -2.526  -1.743  24.260  0.00  0.00    -0.336 OA
ENDROOT
BRANCH  15  18
ATOM     18  C   UNL     1      -3.732  -0.009  24.573  0.00  0.00    +0.058 A 
ATOM     19  C   UNL     1      -4.273  -0.020  25.196  0.00  0.00    +0.010 A 
ATOM     20  C   UNL     1      -4.855   0.562  25.247  0.00  0.00    +0.058 A 
ATOM     21  C   UNL     1      -4.895   1.156  24.676  0.00  0.00    +0.225 A 
ATOM     29  N   UNL     1      -4.354   1.168  24.054  0.00  0.00    -0.210 NA
ATOM     30  C   UNL     1      -3.772   0.585  24.002  0.00  0.00    +0.105 A 
BRANCH  21  22
ATOM     22  O   UNL     1      -5.477   1.739  24.727  0.00  0.00    -0.464 OA
BRANCH  22  23
ATOM     23  C   UNL     1      -5.297   2.475  25.053  0.00  0.00    +0.168 C 
ATOM     24  C   UNL     1      -4.868   3.026  24.613  0.00  0.00    +0.044 C 
ATOM     25  C   UNL     1      -4.687   3.762  24.939  0.00  0.00    +0.004 C 
ATOM     26  C   UNL     1      -4.935   3.947  25.704  0.00  0.00    +0.000 C 
ATOM     27  C   UNL     1      -5.363   3.395  26.144  0.00  0.00    +0.004 C 
ATOM     28  C   UNL     1      -5.544   2.659  25.818  0.00  0.00    +0.044 C 
ENDBRANCH  22  23
ENDBRANCH  21  22
ENDBRANCH  15  18
BRANCH  13  12
ATOM      8  N   UNL     1      -0.536  -1.072  24.453  0.00  0.00    -0.263 NA
ATOM      9  C   UNL     1       0.134  -1.411  24.793  0.00  0.00    +0.073 C 
ATOM     10  C   UNL     1      -0.115  -1.962  25.354  0.00  0.00    +0.019 C 
ATOM     11  C   UNL     1      -0.940  -1.965  25.361  0.00  0.00    +0.027 C 
ATOM     12  C   UNL     1      -1.201  -1.414  24.803  0.00  0.00    +0.138 C 
BRANCH   8   7
ATOM      7  C   UNL     1      -0.542  -0.494  23.866  0.00  0.00    +0.099 C 
BRANCH   7   6
ATOM      3  C   UNL     1       1.588   0.468  23.052  0.00  0.00    +0.139 A 
ATOM      4  C   UNL     1       1.297  -0.230  22.721  0.00  0.00    +0.037 A 
ATOM      5  C   UNL     1       0.587  -0.551  22.992  0.00  0.00    +0.000 A 
ATOM      6  C   UNL     1       0.167  -0.173  23.595  0.00  0.00    -0.006 A 
ATOM     31  C   UNL     1       0.458   0.525  23.925  0.00  0.00    +0.000 A 
ATOM     32  C   UNL     1       1.168   0.845  23.653  0.00  0.00    +0.037 A 
BRANCH   3   2
ATOM      1  C   UNL     1       2.948   0.296  22.647  0.00  0.00    +0.252 C 
ATOM      2  O   UNL     1       2.297   0.788  22.780  0.00  0.00    -0.471 OA
ENDBRANCH   3   2
ENDBRANCH   7   6
ENDBRANCH   8   7
ENDBRANCH  13  12
TORSDOF 7
ENDMDL
