MODEL 1
REMARK VINA RESULT:     -17.4      0.000      0.000
REMARK  Name = 
REMARK  2 active torsions:
REMARK  status: ('A' for Active; 'I' for Inactive)
REMARK    1  A    between atoms: N_3  and  C_4
REMARK    2  A    between atoms: C_19  and  C_20
REMARK                            x       y       z     vdW  Elec       q    Type
REMARK                         _______ _______ _______ _____ _____    ______ ____
ROOT
ATOM      1  O   UNL     1      -1.280   1.384  24.045  0.00  0.00    -0.250 OA
ATOM      2  C   UNL     1      -2.145   1.223  24.275  0.00  0.00    +0.327 C 
ATOM      3  N   UNL     1      -2.849   0.671  24.513  0.00  0.00    -0.162 NA
ATOM     10  N   UNL     1      -2.739   1.857  24.342  0.00  0.00    -0.262 N 
ATOM     11  C   UNL     1      -2.779   2.686  24.251  0.00  0.00    +0.097 C 
ATOM     12  C   UNL     1      -3.733   2.830  24.465  0.00  0.00    +0.043 C 
ATOM     13  C   UNL     1      -4.483   3.112  24.612  0.00  0.00    +0.011 C 
ATOM     14  C   UNL     1      -4.153   2.492  24.608  0.00  0.00    +0.058 C 
ATOM     15  C   UNL     1      -3.229   2.370  24.398  0.00  0.00    +0.101 C 
ATOM     16  C   UNL     1      -4.300   1.597  24.752  0.00  0.00    +0.041 A 
ATOM     17  C   UNL     1      -4.901   1.072  24.962  0.00  0.00    +0.013 A 
ATOM     18  C   UNL     1      -4.741   0.265  25.021  0.00  0.00    +0.002 A 
ATOM     19  C   UNL     1      -3.980  -0.017  24.871  0.00  0.00    +0.034 A 
ATOM     26  C   UNL     1      -3.379   0.507  24.661  0.00  0.00    +0.257 A 
ATOM     27  O   UNL     1      -2.465   0.313  24.463  0.00  0.00    -0.267 OA
ATOM     28  N   UNL     1      -3.539   1.315  24.602  0.00  0.00    -0.299 N 
ATOM     29  C   UNL     1      -3.877   1.892  24.614  0.00  0.00    +0.110 C 
ENDROOT
BRANCH   3   4
ATOM      4  C   UNL     1      -2.557  -0.308  24.561  0.00  0.00    +0.075 A 
ATOM      5  C   UNL     1      -1.955  -0.439  25.108  0.00  0.00    +0.017 A 
ATOM      6  C   UNL     1      -1.654  -1.199  25.217  0.00  0.00    +0.001 A 
ATOM      7  C   UNL     1      -1.956  -1.829  24.777  0.00  0.00    +0.000 A 
ATOM      8  C   UNL     1      -2.558  -1.698  24.229  0.00  0.00    +0.001 A 
ATOM      9  C   UNL     1      -2.731  -0.815  24.273  0.00  0.00    +0.017 A 
ENDBRANCH   3   4
BRANCH  19  20
ATOM     20  C   UNL     1      -3.821  -0.824  24.930  0.00  0.00    +0.027 C 
ATOM     21  C   UNL     1      -3.928  -1.315  24.275  0.00  0.00    +0.005 C 
ATOM     22  C   UNL     1      -3.769  -2.122  24.334  0.00  0.00    +0.000 C 
ATOM     23  C   UNL     1      -3.504  -2.439  25.048  0.00  0.00    +0.000 C 
ATOM     24  C   UNL     1      -3.396  -1.949  25.703  0.00  0.00    +0.000 C 
ATOM     25  C   UNL     1      -3.555  -1.141  25.644  0.00  0.00    +0.005 C 
ENDBRANCH  19  20
TORSDOF 2
ENDMDL
MODEL 2
REMARK VINA RESULT:     -16.7      0.964      3.415
REMARK  Name = 
REMARK  2 active torsions:
REMARK  status: ('A' for Active; 'I' for Inactive)
REMARK    1  A    between atoms: N_3  and  C_4
REMARK    2  A    between atoms: C_19  and  C_20
REMARK                            x       y       z     vdW  Elec       q    Type
REMARK                         _______ _______ _______ _____ _____    ______ ____
ROOT
ATOM      1  O   UNL     1      -0.585  -0.752  24.756  0.00  0.00    -0.250 OA
ATOM      2  C   UNL     1      -1.483  -0.705  24.626  0.00  0.00    +0.327 C 
ATOM      3  N   UNL     1      -2.274  -0.250  24.464  0.00  0.00    -0.162 NA
ATOM     10  N   UNL     1      -1.997  -1.409  24.635  0.00  0.00    -0.262 N 
ATOM     11  C   UNL     1      -1.922  -2.234  24.740  0.00  0.00    +0.097 C 
ATOM     12  C   UNL     1      -2.868  -2.500  24.639  0.00  0.00    +0.043 C 
ATOM     13  C   UNL     1      -3.588  -2.876  24.582  0.00  0.00    +0.011 C 
ATOM     14  C   UNL     1      -3.341  -2.221  24.541  0.00  0.00    +0.058 C 
ATOM     15  C   UNL     1      -2.422  -1.980  24.641  0.00  0.00    +0.101 C 
ATOM     16  C   UNL     1      -3.615  -1.354  24.404  0.00  0.00    +0.041 A 
ATOM     17  C   UNL     1      -4.296  -0.913  24.259  0.00  0.00    +0.013 A 
ATOM     18  C   UNL     1      -4.247  -0.094  24.173  0.00  0.00    +0.002 A 
ATOM     19  C   UNL     1      -3.515   0.283  24.231  0.00  0.00    +0.034 A 
ATOM     26  C   UNL     1      -2.834  -0.158  24.376  0.00  0.00    +0.257 A 
ATOM     27  O   UNL     1      -1.935   0.153  24.465  0.00  0.00    -0.267 OA
ATOM     28  N   UNL     1      -2.883  -0.976  24.463  0.00  0.00    -0.299 N 
ATOM     29  C   UNL     1      -3.145  -1.592  24.497  0.00  0.00    +0.110 C 
ENDROOT
BRANCH   3   4
ATOM      4  C   UNL     1      -2.114   0.755  24.371  0.00  0.00    +0.075 A 
ATOM      5  C   UNL     1      -1.815   1.100  25.058  0.00  0.00    +0.017 A 
ATOM      6  C   UNL     1      -1.655   1.909  25.077  0.00  0.00    +0.001 A 
ATOM      7  C   UNL     1      -1.794   2.373  24.409  0.00  0.00    +0.000 A 
ATOM      8  C   UNL     1      -2.093   2.029  23.722  0.00  0.00    +0.001 A 
ATOM      9  C   UNL     1      -2.192   1.155  23.919  0.00  0.00    +0.017 A 
ENDBRANCH   3   4
BRANCH  19  20
ATOM     20  C   UNL     1      -3.467   1.102  24.144  0.00  0.00    +0.027 C 
ATOM     21  C   UNL     1      -3.573   1.593  24.799  0.00  0.00    +0.005 C 
ATOM     22  C   UNL     1      -3.524   2.412  24.712  0.00  0.00    +0.000 C 
ATOM     23  C   UNL     1      -3.370   2.740  23.972  0.00  0.00    +0.000 C 
ATOM     24  C   UNL     1      -3.264   2.250  23.317  0.00  0.00    +0.000 C 
ATOM     25  C   UNL     1      -3.312   1.430  23.403  0.00  0.00    +0.005 C 
ENDBRANCH  19  20
TORSDOF 2
ENDMDL
