MODEL 1
REMARK VINA RESULT:     -12.6      0.000      0.000
REMARK  Name = 
REMARK  5 active torsions:
REMARK  status: ('A' for Active; 'I' for Inactive)
REMARK    1  A    between atoms: C_8  and  C_10
REMARK    2  A    between atoms: C_10  and  C_11
REMARK    3  A    between atoms: C_11  and  C_12
REMARK    4  A    between atoms: C_19  and  N_22
REMARK    5  A    between atoms: N_25  and  C_26
REMARK                            x       y       z     vdW  Elec       q    Type
REMARK                         _______ _______ _______ _____ _____    ______ ____
ROOT
ATOM     12  C   UNL     1      -4.289   3.062  25.321  0.00  0.00    +0.080 C 
ATOM     13  C   UNL     1      -4.752   3.482  25.860  0.00  0.00    +0.131 C 
ATOM     14  N   UNL     1      -5.446   3.150  26.156  0.00  0.00    -0.203 NA
ATOM     15  C   UNL     1      -5.679   2.397  25.913  0.00  0.00    +0.256 C 
ATOM     16  O   UNL     1      -6.374   2.064  26.210  0.00  0.00    -0.272 OA
ATOM     17  C   UNL     1      -5.217   1.975  25.374  0.00  0.00    +0.138 C 
ATOM     18  C   UNL     1      -5.306   1.228  25.037  0.00  0.00    +0.049 C 
ATOM     19  C   UNL     1      -4.667   1.098  24.533  0.00  0.00    +0.115 C 
ATOM     20  C   UNL     1      -4.182   1.766  24.558  0.00  0.00    +0.094 C 
ATOM     21  N   UNL     1      -4.523   2.308  25.078  0.00  0.00    -0.265 NA
ENDROOT
BRANCH  19  22
ATOM     22  N   UNL     1      -4.535   0.420  24.082  0.00  0.00    -0.187 NA
ATOM     23  C   UNL     1      -4.105  -0.209  24.399  0.00  0.00    +0.343 C 
ATOM     24  O   UNL     1      -3.808  -0.160  25.167  0.00  0.00    -0.249 OA
ATOM     25  N   UNL     1      -3.972  -0.887  23.948  0.00  0.00    -0.161 NA
BRANCH  25  26
ATOM     26  C   UNL     1      -3.543  -1.516  24.265  0.00  0.00    +0.076 A 
ATOM     27  C   UNL     1      -2.719  -1.515  24.224  0.00  0.00    +0.028 A 
ATOM     28  C   UNL     1      -2.289  -2.144  24.541  0.00  0.00    +0.059 A 
ATOM     29 CL   UNL     1      -1.465  -2.143  24.500  0.00  0.00    -0.082 Cl
ATOM     30  C   UNL     1      -2.684  -2.774  24.899  0.00  0.00    +0.011 A 
ATOM     31  C   UNL     1      -3.508  -2.775  24.940  0.00  0.00    +0.002 A 
ATOM     32  C   UNL     1      -3.937  -2.146  24.623  0.00  0.00    +0.017 A 
ENDBRANCH  25  26
ENDBRANCH  19  22
BRANCH  12  11
ATOM     11  C   UNL     1      -3.596   3.394  25.025  0.00  0.00    +0.027 C 
BRANCH  11  10
ATOM     10  C   UNL     1      -2.949   3.512  25.524  0.00  0.00    +0.087 C 
BRANCH  10   8
ATOM      1  O   UNL     1       0.674   2.595  26.089  0.00  0.00    -0.223 OA
ATOM      2  C   UNL     1      -0.058   2.907  25.874  0.00  0.00    +0.155 C 
ATOM      3  C   UNL     1      -0.752   2.574  26.170  0.00  0.00    +0.054 C 
ATOM      4  C   UNL     1      -1.485   2.887  25.954  0.00  0.00    +0.096 C 
ATOM      5  N   UNL     1      -1.523   3.533  25.444  0.00  0.00    -0.279 N 
ATOM      6  C   UNL     1      -0.829   3.866  25.148  0.00  0.00    +0.096 C 
ATOM      7  C   UNL     1      -0.096   3.554  25.363  0.00  0.00    +0.054 C 
ATOM      8  C   UNL     1      -2.255   3.846  25.228  0.00  0.00    +0.226 C 
ATOM      9  O   UNL     1      -2.294   4.492  24.717  0.00  0.00    -0.275 OA
ENDBRANCH  10   8
ENDBRANCH  11  10
ENDBRANCH  12  11
TORSDOF 5
ENDMDL
MODEL 2
REMARK VINA RESULT:     -11.9      1.419      3.728
REMARK  Name = 
REMARK  5 active torsions:
REMARK  status: ('A' for Active; 'I' for Inactive)
REMARK    1  A    between atoms: C_8  and  C_10
REMARK    2  A    between atoms: C_10  and  C_11
REMARK    3  A    between atoms: C_11  and  C_12
REMARK    4  A    between atoms: C_19  and  N_22
REMARK    5  A    between atoms: N_25  and  C_26
REMARK                            x       y       z     vdW  Elec       q    Type
REMARK                         _______ _______ _______ _____ _____    ______ ____
ROOT
ATOM     12  C   UNL     1      -1.413   3.111  25.185  0.00  0.00    +0.080 C 
ATOM     13  C   UNL     1      -1.008   3.674  24.737  0.00  0.00    +0.131 C 
ATOM     14  N   UNL     1      -0.327   3.461  24.325  0.00  0.00    -0.203 NA
ATOM     15  C   UNL     1      -0.050   2.685  24.359  0.00  0.00    +0.256 C 
ATOM     16  O   UNL     1       0.633   2.472  23.946  0.00  0.00    -0.272 OA
ATOM     17  C   UNL     1      -0.454   2.121  24.806  0.00  0.00    +0.138 C 
ATOM     18  C   UNL     1      -0.313   1.321  24.942  0.00  0.00    +0.049 C 
ATOM     19  C   UNL     1      -0.908   1.038  25.439  0.00  0.00    +0.115 C 
ATOM     20  C   UNL     1      -1.416   1.666  25.610  0.00  0.00    +0.094 C 
ATOM     21  N   UNL     1      -1.136   2.335  25.219  0.00  0.00    -0.265 NA
ENDROOT
BRANCH  19  22
ATOM     22  N   UNL     1      -0.981   0.265  25.717  0.00  0.00    -0.187 NA
ATOM     23  C   UNL     1      -1.548  -0.239  25.391  0.00  0.00    +0.343 C 
ATOM     24  O   UNL     1      -2.041   0.032  24.787  0.00  0.00    -0.249 OA
ATOM     25  N   UNL     1      -1.622  -1.012  25.669  0.00  0.00    -0.161 NA
BRANCH  25  26
ATOM     26  C   UNL     1      -2.188  -1.515  25.343  0.00  0.00    +0.076 A 
ATOM     27  C   UNL     1      -1.965  -2.081  24.786  0.00  0.00    +0.028 A 
ATOM     28  C   UNL     1      -2.531  -2.585  24.459  0.00  0.00    +0.059 A 
ATOM     29 CL   UNL     1      -2.308  -3.151  23.902  0.00  0.00    -0.082 Cl
ATOM     30  C   UNL     1      -3.321  -2.522  24.690  0.00  0.00    +0.011 A 
ATOM     31  C   UNL     1      -3.544  -1.956  25.248  0.00  0.00    +0.002 A 
ATOM     32  C   UNL     1      -2.978  -1.453  25.574  0.00  0.00    +0.017 A 
ENDBRANCH  25  26
ENDBRANCH  19  22
BRANCH  12  11
ATOM     11  C   UNL     1      -2.094   3.324  25.597  0.00  0.00    +0.027 C 
BRANCH  11  10
ATOM     10  C   UNL     1      -2.806   3.429  25.193  0.00  0.00    +0.087 C 
BRANCH  10   8
ATOM      1  O   UNL     1      -6.346   2.143  24.871  0.00  0.00    -0.223 OA
ATOM      2  C   UNL     1      -5.632   2.513  25.054  0.00  0.00    +0.155 C 
ATOM      3  C   UNL     1      -4.947   2.317  24.639  0.00  0.00    +0.054 C 
ATOM      4  C   UNL     1      -4.233   2.688  24.824  0.00  0.00    +0.096 C 
ATOM      5  N   UNL     1      -4.205   3.254  25.423  0.00  0.00    -0.279 N 
ATOM      6  C   UNL     1      -4.891   3.449  25.838  0.00  0.00    +0.096 C 
ATOM      7  C   UNL     1      -5.604   3.079  25.654  0.00  0.00    +0.054 C 
ATOM      8  C   UNL     1      -3.491   3.625  25.608  0.00  0.00    +0.226 C 
ATOM      9  O   UNL     1      -3.463   4.190  26.207  0.00  0.00    -0.275 OA
ENDBRANCH  10   8
ENDBRANCH  11  10
ENDBRANCH  12  11
TORSDOF 5
ENDMDL
MODEL 3
REMARK VINA RESULT:     -11.6      1.925      4.199
REMARK  Name = 
REMARK  5 active torsions:
REMARK  status: ('A' for Active; 'I' for Inactive)
REMARK    1  A    between atoms: C_8  and  C_10
REMARK    2  A    between atoms: C_10  and  C_11
REMARK    3  A    between atoms: C_11  and  C_12
REMARK    4  A    between atoms: C_19  and  N_22
REMARK    5  A    between atoms: N_25  and  C_26
REMARK                            x       y       z     vdW  Elec       q    Type
REMARK                         _______ _______ _______ _____ _____    ______ ____
ROOT
ATOM     12  C   UNL     1      -1.913  -1.274  24.380  0.00  0.00    +0.080 C 
ATOM     13  C   UNL     1      -1.641  -2.008  24.641  0.00  0.00    +0.131 C 
ATOM     14  N   UNL     1      -2.175  -2.566  24.931  0.00  0.00    -0.203 NA
ATOM     15  C   UNL     1      -2.980  -2.391  24.960  0.00  0.00    +0.256 C 
ATOM     16  O   UNL     1      -3.514  -2.951  25.250  0.00  0.00    -0.272 OA
ATOM     17  C   UNL     1      -3.253  -1.658  24.699  0.00  0.00    +0.138 C 
ATOM     18  C   UNL     1      -4.009  -1.332  24.661  0.00  0.00    +0.049 C 
ATOM     19  C   UNL     1      -3.944  -0.572  24.348  0.00  0.00    +0.115 C 
ATOM     20  C   UNL     1      -3.146  -0.428  24.192  0.00  0.00    +0.094 C 
ATOM     21  N   UNL     1      -2.719  -1.099  24.409  0.00  0.00    -0.265 NA
ENDROOT
BRANCH  19  22
ATOM     22  N   UNL     1      -4.566  -0.047  24.214  0.00  0.00    -0.187 NA
ATOM     23  C   UNL     1      -4.625   0.646  24.659  0.00  0.00    +0.343 C 
ATOM     24  O   UNL     1      -4.061   0.813  25.237  0.00  0.00    -0.249 OA
ATOM     25  N   UNL     1      -5.247   1.171  24.525  0.00  0.00    -0.161 NA
BRANCH  25  26
ATOM     26  C   UNL     1      -5.306   1.863  24.970  0.00  0.00    +0.076 A 
ATOM     27  C   UNL     1      -4.891   2.537  24.739  0.00  0.00    +0.028 A 
ATOM     28  C   UNL     1      -4.949   3.230  25.184  0.00  0.00    +0.059 A 
ATOM     29 CL   UNL     1      -4.534   3.905  24.953  0.00  0.00    -0.082 Cl
ATOM     30  C   UNL     1      -5.423   3.247  25.859  0.00  0.00    +0.011 A 
ATOM     31  C   UNL     1      -5.838   2.573  26.090  0.00  0.00    +0.002 A 
ATOM     32  C   UNL     1      -5.779   1.881  25.645  0.00  0.00    +0.017 A 
ENDBRANCH  25  26
ENDBRANCH  19  22
BRANCH  12  11
ATOM     11  C   UNL     1      -1.380  -0.716  24.090  0.00  0.00    +0.027 C 
BRANCH  11  10
ATOM     10  C   UNL     1      -0.881  -0.313  24.609  0.00  0.00    +0.087 C 
BRANCH  10   8
ATOM      1  O   UNL     1       0.055   3.064  26.028  0.00  0.00    -0.223 OA
ATOM      2  C   UNL     1      -0.052   2.365  25.603  0.00  0.00    +0.155 C 
ATOM      3  C   UNL     1      -0.561   1.782  25.888  0.00  0.00    +0.054 C 
ATOM      4  C   UNL     1      -0.667   1.083  25.462  0.00  0.00    +0.096 C 
ATOM      5  N   UNL     1      -0.266   0.969  24.751  0.00  0.00    -0.279 N 
ATOM      6  C   UNL     1       0.242   1.552  24.465  0.00  0.00    +0.096 C 
ATOM      7  C   UNL     1       0.350   2.251  24.891  0.00  0.00    +0.054 C 
ATOM      8  C   UNL     1      -0.373   0.271  24.324  0.00  0.00    +0.226 C 
ATOM      9  O   UNL     1       0.028   0.156  23.613  0.00  0.00    -0.275 OA
ENDBRANCH  10   8
ENDBRANCH  11  10
ENDBRANCH  12  11
TORSDOF 5
ENDMDL
MODEL 4
REMARK VINA RESULT:     -11.3      2.032      5.098
REMARK  Name = 
REMARK  5 active torsions:
REMARK  status: ('A' for Active; 'I' for Inactive)
REMARK    1  A    between atoms: C_8  and  C_10
REMARK    2  A    between atoms: C_10  and  C_11
REMARK    3  A    between atoms: C_11  and  C_12
REMARK    4  A    between atoms: C_19  and  N_22
REMARK    5  A    between atoms: N_25  and  C_26
REMARK                            x       y       z     vdW  Elec       q    Type
REMARK                         _______ _______ _______ _____ _____    ______ ____
ROOT
ATOM     12  C   UNL     1      -0.424   1.228  24.507  0.00  0.00    +0.080 C 
ATOM     13  C   UNL     1       0.313   1.347  24.859  0.00  0.00    +0.131 C 
ATOM     14  N   UNL     1       0.509   2.087  25.167  0.00  0.00    -0.203 NA
ATOM     15  C   UNL     1      -0.032   2.708  25.123  0.00  0.00    +0.256 C 
ATOM     16  O   UNL     1       0.164   3.449  25.432  0.00  0.00    -0.272 OA
ATOM     17  C   UNL     1      -0.769   2.590  24.772  0.00  0.00    +0.138 C 
ATOM     18  C   UNL     1      -1.410   3.095  24.650  0.00  0.00    +0.049 C 
ATOM     19  C   UNL     1      -2.002   2.668  24.266  0.00  0.00    +0.115 C 
ATOM     20  C   UNL     1      -1.727   1.898  24.151  0.00  0.00    +0.094 C 
ATOM     21  N   UNL     1      -0.965   1.850  24.464  0.00  0.00    -0.265 NA
ENDROOT
BRANCH  19  22
ATOM     22  N   UNL     1      -2.739   2.958  24.038  0.00  0.00    -0.187 NA
ATOM     23  C   UNL     1      -3.403   2.815  24.508  0.00  0.00    +0.343 C 
ATOM     24  O   UNL     1      -3.328   2.382  25.206  0.00  0.00    -0.249 OA
ATOM     25  N   UNL     1      -4.140   3.106  24.280  0.00  0.00    -0.161 NA
BRANCH  25  26
ATOM     26  C   UNL     1      -4.803   2.963  24.749  0.00  0.00    +0.076 A 
ATOM     27  C   UNL     1      -5.268   2.295  24.614  0.00  0.00    +0.028 A 
ATOM     28  C   UNL     1      -5.932   2.152  25.084  0.00  0.00    +0.059 A 
ATOM     29 CL   UNL     1      -6.397   1.485  24.949  0.00  0.00    -0.082 Cl
ATOM     30  C   UNL     1      -6.129   2.677  25.689  0.00  0.00    +0.011 A 
ATOM     31  C   UNL     1      -5.663   3.345  25.824  0.00  0.00    +0.002 A 
ATOM     32  C   UNL     1      -5.001   3.488  25.354  0.00  0.00    +0.017 A 
ENDBRANCH  25  26
ENDBRANCH  19  22
BRANCH  12  11
ATOM     11  C   UNL     1      -0.619   0.489  24.200  0.00  0.00    +0.027 C 
BRANCH  11  10
ATOM     10  C   UNL     1      -0.838  -0.124  24.706  0.00  0.00    +0.087 C 
BRANCH  10   8
ATOM      1  O   UNL     1      -3.503  -2.758  25.208  0.00  0.00    -0.223 OA
ATOM      2  C   UNL     1      -2.852  -2.292  25.011  0.00  0.00    +0.155 C 
ATOM      3  C   UNL     1      -2.794  -1.521  25.298  0.00  0.00    +0.054 C 
ATOM      4  C   UNL     1      -2.142  -1.055  25.100  0.00  0.00    +0.096 C 
ATOM      5  N   UNL     1      -1.548  -1.361  24.617  0.00  0.00    -0.279 N 
ATOM      6  C   UNL     1      -1.606  -2.132  24.330  0.00  0.00    +0.096 C 
ATOM      7  C   UNL     1      -2.257  -2.598  24.527  0.00  0.00    +0.054 C 
ATOM      8  C   UNL     1      -0.896  -0.895  24.419  0.00  0.00    +0.226 C 
ATOM      9  O   UNL     1      -0.302  -1.201  23.936  0.00  0.00    -0.275 OA
ENDBRANCH  10   8
ENDBRANCH  11  10
ENDBRANCH  12  11
TORSDOF 5
ENDMDL
MODEL 5
REMARK VINA RESULT:     -11.1      2.236      5.818
REMARK  Name = 
REMARK  5 active torsions:
REMARK  status: ('A' for Active; 'I' for Inactive)
REMARK    1  A    between atoms: C_8  and  C_10
REMARK    2  A    between atoms: C_10  and  C_11
REMARK    3  A    between atoms: C_11  and  C_12
REMARK    4  A    between atoms: C_19  and  N_22
REMARK    5  A    between atoms: N_25  and  C_26
REMARK                            x       y       z     vdW  Elec       q    Type
REMARK                         _______ _______ _______ _____ _____    ______ ____
ROOT
ATOM     12  C   UNL     1      -0.405  -0.125  24.531  0.00  0.00    +0.080 C 
ATOM     13  C   UNL     1       0.209  -0.344  24.026  0.00  0.00    +0.131 C 
ATOM     14  N   UNL     1       0.699   0.232  23.697  0.00  0.00    -0.203 NA
ATOM     15  C   UNL     1       0.574   1.028  23.871  0.00  0.00    +0.256 C 
ATOM     16  O   UNL     1       1.064   1.605  23.541  0.00  0.00    -0.272 OA
ATOM     17  C   UNL     1      -0.041   1.249  24.375  0.00  0.00    +0.138 C 
ATOM     18  C   UNL     1      -0.295   1.985  24.646  0.00  0.00    +0.049 C 
ATOM     19  C   UNL     1      -0.942   1.864  25.143  0.00  0.00    +0.115 C 
ATOM     20  C   UNL     1      -1.088   1.052  25.179  0.00  0.00    +0.094 C 
ATOM     21  N   UNL     1      -0.530   0.672  24.705  0.00  0.00    -0.265 NA
ENDROOT
BRANCH  19  22
ATOM     22  N   UNL     1      -1.370   2.451  25.535  0.00  0.00    -0.187 NA
ATOM     23  C   UNL     1      -2.128   2.651  25.278  0.00  0.00    +0.343 C 
ATOM     24  O   UNL     1      -2.459   2.263  24.629  0.00  0.00    -0.249 OA
ATOM     25  N   UNL     1      -2.556   3.238  25.669  0.00  0.00    -0.161 NA
BRANCH  25  26
ATOM     26  C   UNL     1      -3.313   3.437  25.413  0.00  0.00    +0.076 A 
ATOM     27  C   UNL     1      -3.974   3.152  25.816  0.00  0.00    +0.028 A 
ATOM     28  C   UNL     1      -4.733   3.351  25.560  0.00  0.00    +0.059 A 
ATOM     29 CL   UNL     1      -5.393   3.066  25.963  0.00  0.00    -0.082 Cl
ATOM     30  C   UNL     1      -4.830   3.835  24.899  0.00  0.00    +0.011 A 
ATOM     31  C   UNL     1      -4.169   4.120  24.495  0.00  0.00    +0.002 A 
ATOM     32  C   UNL     1      -3.412   3.921  24.752  0.00  0.00    +0.017 A 
ENDBRANCH  25  26
ENDBRANCH  19  22
BRANCH  12  11
ATOM     11  C   UNL     1      -0.895  -0.700  24.860  0.00  0.00    +0.027 C 
BRANCH  11  10
ATOM     10  C   UNL     1      -1.422  -1.117  24.382  0.00  0.00    +0.087 C 
BRANCH  10   8
ATOM      1  O   UNL     1      -4.898  -2.493  23.818  0.00  0.00    -0.223 OA
ATOM      2  C   UNL     1      -4.119  -2.320  24.029  0.00  0.00    +0.155 C 
ATOM      3  C   UNL     1      -3.757  -1.635  23.745  0.00  0.00    +0.054 C 
ATOM      4  C   UNL     1      -2.978  -1.463  23.958  0.00  0.00    +0.096 C 
ATOM      5  N   UNL     1      -2.563  -1.974  24.453  0.00  0.00    -0.279 N 
ATOM      6  C   UNL     1      -2.925  -2.659  24.737  0.00  0.00    +0.096 C 
ATOM      7  C   UNL     1      -3.703  -2.832  24.525  0.00  0.00    +0.054 C 
ATOM      8  C   UNL     1      -1.784  -1.802  24.665  0.00  0.00    +0.226 C 
ATOM      9  O   UNL     1      -1.368  -2.313  25.161  0.00  0.00    -0.275 OA
ENDBRANCH  10   8
ENDBRANCH  11  10
ENDBRANCH  12  11
TORSDOF 5
ENDMDL
MODEL 6
REMARK VINA RESULT:     -10.8      1.363      4.491
REMARK  Name = 
REMARK  5 active torsions:
REMARK  status: ('A' for Active; 'I' for Inactive)
REMARK    1  A    between atoms: C_8  and  C_10
REMARK    2  A    between atoms: C_10  and  C_11
REMARK    3  A    between atoms: C_11  and  C_12
REMARK    4  A    between atoms: C_19  and  N_22
REMARK    5  A    between atoms: N_25  and  C_26
REMARK                            x       y       z     vdW  Elec       q    Type
REMARK                         _______ _______ _______ _____ _____    ______ ____
ROOT
ATOM     12  C   UNL     1      -5.103   1.546  24.839  0.00  0.00    +0.080 C 
ATOM     13  C   UNL     1      -5.851   1.538  25.187  0.00  0.00    +0.131 C 
ATOM     14  N   UNL     1      -6.099   2.175  25.648  0.00  0.00    -0.203 NA
ATOM     15  C   UNL     1      -5.599   2.821  25.762  0.00  0.00    +0.256 C 
ATOM     16  O   UNL     1      -5.848   3.459  26.224  0.00  0.00    -0.272 OA
ATOM     17  C   UNL     1      -4.851   2.830  25.415  0.00  0.00    +0.138 C 
ATOM     18  C   UNL     1      -4.242   3.386  25.430  0.00  0.00    +0.049 C 
ATOM     19  C   UNL     1      -3.618   3.093  24.978  0.00  0.00    +0.115 C 
ATOM     20  C   UNL     1      -3.841   2.355  24.683  0.00  0.00    +0.094 C 
ATOM     21  N   UNL     1      -4.603   2.193  24.954  0.00  0.00    -0.265 NA
ENDROOT
BRANCH  19  22
ATOM     22  N   UNL     1      -2.897   3.471  24.844  0.00  0.00    -0.187 NA
ATOM     23  C   UNL     1      -2.189   3.092  25.038  0.00  0.00    +0.343 C 
ATOM     24  O   UNL     1      -2.204   2.336  25.366  0.00  0.00    -0.249 OA
ATOM     25  N   UNL     1      -1.469   3.470  24.903  0.00  0.00    -0.161 NA
BRANCH  25  26
ATOM     26  C   UNL     1      -0.762   3.091  25.097  0.00  0.00    +0.076 A 
ATOM     27  C   UNL     1      -0.339   2.686  24.516  0.00  0.00    +0.028 A 
ATOM     28  C   UNL     1       0.369   2.307  24.710  0.00  0.00    +0.059 A 
ATOM     29 CL   UNL     1       0.792   1.902  24.129  0.00  0.00    -0.082 Cl
ATOM     30  C   UNL     1       0.651   2.334  25.485  0.00  0.00    +0.011 A 
ATOM     31  C   UNL     1       0.227   2.739  26.065  0.00  0.00    +0.002 A 
ATOM     32  C   UNL     1      -0.479   3.117  25.871  0.00  0.00    +0.017 A 
ENDBRANCH  25  26
ENDBRANCH  19  22
BRANCH  12  11
ATOM     11  C   UNL     1      -4.856   0.910  24.378  0.00  0.00    +0.027 C 
BRANCH  11  10
ATOM     10  C   UNL     1      -4.661   0.192  24.736  0.00  0.00    +0.087 C 
BRANCH  10   8
ATOM      1  O   UNL     1      -2.922  -3.054  25.593  0.00  0.00    -0.223 OA
ATOM      2  C   UNL     1      -3.314  -2.407  25.263  0.00  0.00    +0.155 C 
ATOM      3  C   UNL     1      -3.486  -1.747  25.728  0.00  0.00    +0.054 C 
ATOM      4  C   UNL     1      -3.877  -1.101  25.397  0.00  0.00    +0.096 C 
ATOM      5  N   UNL     1      -4.097  -1.114  24.602  0.00  0.00    -0.279 N 
ATOM      6  C   UNL     1      -3.925  -1.773  24.137  0.00  0.00    +0.096 C 
ATOM      7  C   UNL     1      -3.533  -2.420  24.467  0.00  0.00    +0.054 C 
ATOM      8  C   UNL     1      -4.488  -0.467  24.271  0.00  0.00    +0.226 C 
ATOM      9  O   UNL     1      -4.708  -0.480  23.476  0.00  0.00    -0.275 OA
ENDBRANCH  10   8
ENDBRANCH  11  10
ENDBRANCH  12  11
TORSDOF 5
ENDMDL
