MODEL 1
REMARK VINA RESULT:     -14.1      0.000      0.000
REMARK  Name = 
REMARK  7 active torsions:
REMARK  status: ('A' for Active; 'I' for Inactive)
REMARK    1  A    between atoms: O_2  and  C_3
REMARK    2  A    between atoms: C_3  and  C_4
REMARK    3  A    between atoms: C_4  and  N_5
REMARK    4  A    between atoms: C_6  and  C_8
REMARK    5  A    between atoms: C_8  and  C_9
REMARK    6  A    between atoms: C_14  and  C_16
REMARK    7  A    between atoms: C_27  and  C_29
REMARK                            x       y       z     vdW  Elec       q    Type
REMARK                         _______ _______ _______ _____ _____    ______ ____
ROOT
ATOM      9  C   UNL     1      -3.514   0.107  24.394  0.00  0.00    +0.050 C 
ATOM     10  C   UNL     1      -2.832   0.547  24.547  0.00  0.00    +0.063 A 
ATOM     11  C   UNL     1      -2.118   0.161  24.698  0.00  0.00    +0.023 A 
ATOM     12  C   UNL     1      -2.087  -0.662  24.697  0.00  0.00    +0.034 C 
ATOM     13  C   UNL     1      -2.768  -1.102  24.545  0.00  0.00    +0.010 C 
ATOM     14  C   UNL     1      -2.736  -1.926  24.544  0.00  0.00    +0.059 C 
ATOM     15  C   UNL     1      -1.949  -1.753  24.717  0.00  0.00    +0.005 C 
ATOM     18  C   UNL     1      -3.418  -2.365  24.391  0.00  0.00    +0.154 C 
ATOM     19  O   UNL     1      -3.386  -3.190  24.390  0.00  0.00    -0.223 OA
ATOM     20  C   UNL     1      -4.131  -1.980  24.239  0.00  0.00    +0.033 C 
ATOM     21  C   UNL     1      -4.163  -1.155  24.240  0.00  0.00    +0.003 C 
ATOM     22  C   UNL     1      -3.482  -0.716  24.393  0.00  0.00    +0.006 C 
ATOM     23  C   UNL     1      -4.195  -0.331  24.241  0.00  0.00    +0.000 C 
ATOM     24  S   UNL     1      -1.541   0.736  24.830  0.00  0.00    -0.054 S 
ATOM     25  C   UNL     1      -1.897   1.476  24.759  0.00  0.00    +0.185 A 
ATOM     26  N   UNL     1      -1.523   2.206  24.848  0.00  0.00    -0.154 NA
ATOM     27  C   UNL     1      -1.952   2.904  24.761  0.00  0.00    +0.247 C 
ATOM     28  O   UNL     1      -2.758   2.873  24.585  0.00  0.00    -0.273 OA
ATOM     35  N   UNL     1      -2.696   1.360  24.584  0.00  0.00    -0.227 NA
ENDROOT
BRANCH  27  29
ATOM     29  C   UNL     1      -1.578   3.634  24.849  0.00  0.00    +0.079 C 
ATOM     30  C   UNL     1      -0.807   3.739  24.576  0.00  0.00    +0.009 C 
ATOM     31  C   UNL     1      -0.432   4.468  24.665  0.00  0.00    +0.000 C 
ATOM     32  C   UNL     1      -0.830   5.094  25.027  0.00  0.00    +0.000 C 
ATOM     33  C   UNL     1      -1.602   4.990  25.301  0.00  0.00    +0.000 C 
ATOM     34  C   UNL     1      -1.975   4.260  25.212  0.00  0.00    +0.009 C 
ENDBRANCH  27  29
BRANCH  14  16
ATOM     16  C   UNL     1      -2.431  -2.690  24.603  0.00  0.00    +0.184 C 
ATOM     17  O   UNL     1      -1.614  -2.806  24.637  0.00  0.00    -0.220 OA
ENDBRANCH  14  16
BRANCH   9   8
ATOM      8  C   UNL     1      -4.227   0.493  24.242  0.00  0.00    +0.093 C 
BRANCH   8   6
ATOM      5  N   UNL     1      -5.124   1.488  24.741  0.00  0.00    -0.203 NA
ATOM      6  C   UNL     1      -4.661   0.816  24.866  0.00  0.00    +0.242 C 
ATOM      7  O   UNL     1      -4.632   0.468  25.612  0.00  0.00    -0.273 OA
BRANCH   5   4
ATOM      4  C   UNL     1      -5.559   1.810  25.364  0.00  0.00    +0.147 C 
BRANCH   4   3
ATOM      3  C   UNL     1      -5.888   2.563  25.290  0.00  0.00    +0.166 C 
BRANCH   3   2
ATOM      1  C   UNL     1      -5.747   3.926  25.696  0.00  0.00    +0.174 C 
ATOM      2  O   UNL     1      -5.774   3.123  25.886  0.00  0.00    -0.349 OA
ENDBRANCH   3   2
ENDBRANCH   4   3
ENDBRANCH   5   4
ENDBRANCH   8   6
ENDBRANCH   9   8
TORSDOF 7
ENDMDL
MODEL 2
REMARK VINA RESULT:     -13.3      1.912      3.615
REMARK  Name = 
REMARK  7 active torsions:
REMARK  status: ('A' for Active; 'I' for Inactive)
REMARK    1  A    between atoms: O_2  and  C_3
REMARK    2  A    between atoms: C_3  and  C_4
REMARK    3  A    between atoms: C_4  and  N_5
REMARK    4  A    between atoms: C_6  and  C_8
REMARK    5  A    between atoms: C_8  and  C_9
REMARK    6  A    between atoms: C_14  and  C_16
REMARK    7  A    between atoms: C_27  and  C_29
REMARK                            x       y       z     vdW  Elec       q    Type
REMARK                         _______ _______ _______ _____ _____    ______ ____
ROOT
ATOM      9  C   UNL     1      -1.538  -0.387  24.622  0.00  0.00    +0.050 C 
ATOM     10  C   UNL     1      -1.918   0.342  24.699  0.00  0.00    +0.063 A 
ATOM     11  C   UNL     1      -2.742   0.377  24.717  0.00  0.00    +0.023 A 
ATOM     12  C   UNL     1      -3.186  -0.315  24.659  0.00  0.00    +0.034 C 
ATOM     13  C   UNL     1      -2.807  -1.044  24.582  0.00  0.00    +0.010 C 
ATOM     14  C   UNL     1      -3.251  -1.736  24.524  0.00  0.00    +0.059 C 
ATOM     15  C   UNL     1      -3.858  -1.182  24.588  0.00  0.00    +0.005 C 
ATOM     18  C   UNL     1      -2.870  -2.465  24.448  0.00  0.00    +0.154 C 
ATOM     19  O   UNL     1      -3.315  -3.158  24.390  0.00  0.00    -0.223 OA
ATOM     20  C   UNL     1      -2.047  -2.500  24.429  0.00  0.00    +0.033 C 
ATOM     21  C   UNL     1      -1.603  -1.808  24.487  0.00  0.00    +0.003 C 
ATOM     22  C   UNL     1      -1.982  -1.079  24.564  0.00  0.00    +0.006 C 
ATOM     23  C   UNL     1      -1.158  -1.115  24.545  0.00  0.00    +0.000 C 
ATOM     24  S   UNL     1      -2.961   1.169  24.797  0.00  0.00    -0.054 S 
ATOM     25  C   UNL     1      -2.273   1.622  24.827  0.00  0.00    +0.185 A 
ATOM     26  N   UNL     1      -2.235   2.443  24.905  0.00  0.00    -0.154 NA
ATOM     27  C   UNL     1      -1.504   2.822  24.928  0.00  0.00    +0.247 C 
ATOM     28  O   UNL     1      -0.809   2.381  24.873  0.00  0.00    -0.273 OA
ATOM     35  N   UNL     1      -1.628   1.111  24.767  0.00  0.00    -0.227 NA
ENDROOT
BRANCH  27  29
ATOM     29  C   UNL     1      -1.466   3.643  25.006  0.00  0.00    +0.079 C 
ATOM     30  C   UNL     1      -2.082   4.052  25.369  0.00  0.00    +0.009 C 
ATOM     31  C   UNL     1      -2.045   4.873  25.447  0.00  0.00    +0.000 C 
ATOM     32  C   UNL     1      -1.389   5.284  25.161  0.00  0.00    +0.000 C 
ATOM     33  C   UNL     1      -0.772   4.874  24.796  0.00  0.00    +0.000 C 
ATOM     34  C   UNL     1      -0.811   4.054  24.719  0.00  0.00    +0.009 C 
ENDBRANCH  27  29
BRANCH  14  16
ATOM     16  C   UNL     1      -3.906  -2.237  24.489  0.00  0.00    +0.184 C 
ATOM     17  O   UNL     1      -4.585  -1.998  24.085  0.00  0.00    -0.220 OA
ENDBRANCH  14  16
BRANCH   9   8
ATOM      8  C   UNL     1      -0.714  -0.422  24.603  0.00  0.00    +0.093 C 
BRANCH   8   6
ATOM      5  N   UNL     1       0.511  -0.199  23.903  0.00  0.00    -0.203 NA
ATOM      6  C   UNL     1      -0.311  -0.265  23.900  0.00  0.00    +0.242 C 
ATOM      7  O   UNL     1      -0.729  -0.175  23.196  0.00  0.00    -0.273 OA
BRANCH   5   4
ATOM      4  C   UNL     1       0.915  -0.042  23.200  0.00  0.00    +0.147 C 
BRANCH   4   3
ATOM      3  C   UNL     1       1.730   0.084  23.213  0.00  0.00    +0.166 C 
BRANCH   3   2
ATOM      1  C   UNL     1       2.961   0.272  22.512  0.00  0.00    +0.174 C 
ATOM      2  O   UNL     1       2.157   0.088  22.506  0.00  0.00    -0.349 OA
ENDBRANCH   3   2
ENDBRANCH   4   3
ENDBRANCH   5   4
ENDBRANCH   8   6
ENDBRANCH   9   8
TORSDOF 7
ENDMDL
MODEL 3
REMARK VINA RESULT:     -13.2      1.872      5.836
REMARK  Name = 
REMARK  7 active torsions:
REMARK  status: ('A' for Active; 'I' for Inactive)
REMARK    1  A    between atoms: O_2  and  C_3
REMARK    2  A    between atoms: C_3  and  C_4
REMARK    3  A    between atoms: C_4  and  N_5
REMARK    4  A    between atoms: C_6  and  C_8
REMARK    5  A    between atoms: C_8  and  C_9
REMARK    6  A    between atoms: C_14  and  C_16
REMARK    7  A    between atoms: C_27  and  C_29
REMARK                            x       y       z     vdW  Elec       q    Type
REMARK                         _______ _______ _______ _____ _____    ______ ____
ROOT
ATOM      9  C   UNL     1      -1.335   1.983  24.921  0.00  0.00    +0.050 C 
ATOM     10  C   UNL     1      -2.034   1.546  24.877  0.00  0.00    +0.063 A 
ATOM     11  C   UNL     1      -2.763   1.924  24.957  0.00  0.00    +0.023 A 
ATOM     12  C   UNL     1      -2.793   2.738  25.082  0.00  0.00    +0.034 C 
ATOM     13  C   UNL     1      -2.095   3.176  25.126  0.00  0.00    +0.010 C 
ATOM     14  C   UNL     1      -2.126   3.991  25.251  0.00  0.00    +0.059 C 
ATOM     15  C   UNL     1      -2.932   3.816  25.250  0.00  0.00    +0.005 C 
ATOM     18  C   UNL     1      -1.427   4.427  25.295  0.00  0.00    +0.154 C 
ATOM     19  O   UNL     1      -1.457   5.243  25.419  0.00  0.00    -0.223 OA
ATOM     20  C   UNL     1      -0.698   4.050  25.214  0.00  0.00    +0.033 C 
ATOM     21  C   UNL     1      -0.668   3.235  25.089  0.00  0.00    +0.003 C 
ATOM     22  C   UNL     1      -1.366   2.797  25.045  0.00  0.00    +0.006 C 
ATOM     23  C   UNL     1      -0.637   2.420  24.965  0.00  0.00    +0.000 C 
ATOM     24  S   UNL     1      -3.354   1.352  24.890  0.00  0.00    -0.054 S 
ATOM     25  C   UNL     1      -2.992   0.623  24.767  0.00  0.00    +0.185 A 
ATOM     26  N   UNL     1      -3.377  -0.101  24.670  0.00  0.00    -0.154 NA
ATOM     27  C   UNL     1      -2.939  -0.789  24.551  0.00  0.00    +0.247 C 
ATOM     28  O   UNL     1      -2.115  -0.755  24.530  0.00  0.00    -0.273 OA
ATOM     35  N   UNL     1      -2.175   0.741  24.759  0.00  0.00    -0.227 NA
ENDROOT
BRANCH  27  29
ATOM     29  C   UNL     1      -3.324  -1.512  24.454  0.00  0.00    +0.079 C 
ATOM     30  C   UNL     1      -3.930  -1.586  23.900  0.00  0.00    +0.009 C 
ATOM     31  C   UNL     1      -4.315  -2.310  23.802  0.00  0.00    +0.000 C 
ATOM     32  C   UNL     1      -4.093  -2.959  24.260  0.00  0.00    +0.000 C 
ATOM     33  C   UNL     1      -3.486  -2.886  24.815  0.00  0.00    +0.000 C 
ATOM     34  C   UNL     1      -3.102  -2.162  24.911  0.00  0.00    +0.009 C 
ENDBRANCH  27  29
BRANCH  14  16
ATOM     16  C   UNL     1      -2.436   4.744  25.375  0.00  0.00    +0.184 C 
ATOM     17  O   UNL     1      -3.182   4.832  25.717  0.00  0.00    -0.220 OA
ENDBRANCH  14  16
BRANCH   9   8
ATOM      8  C   UNL     1      -0.607   1.605  24.840  0.00  0.00    +0.093 C 
BRANCH   8   6
ATOM      5  N   UNL     1       0.272   0.836  24.016  0.00  0.00    -0.203 NA
ATOM      6  C   UNL     1      -0.335   1.390  24.090  0.00  0.00    +0.242 C 
ATOM      7  O   UNL     1      -0.670   1.729  23.418  0.00  0.00    -0.273 OA
BRANCH   5   4
ATOM      4  C   UNL     1       0.544   0.622  23.266  0.00  0.00    +0.147 C 
BRANCH   4   3
ATOM      3  C   UNL     1       1.152   0.070  23.192  0.00  0.00    +0.166 C 
BRANCH   3   2
ATOM      1  C   UNL     1       2.359  -0.065  22.438  0.00  0.00    +0.174 C 
ATOM      2  O   UNL     1       1.536  -0.026  22.466  0.00  0.00    -0.349 OA
ENDBRANCH   3   2
ENDBRANCH   4   3
ENDBRANCH   5   4
ENDBRANCH   8   6
ENDBRANCH   9   8
TORSDOF 7
ENDMDL
MODEL 4
REMARK VINA RESULT:     -12.4      1.241      4.880
REMARK  Name = 
REMARK  7 active torsions:
REMARK  status: ('A' for Active; 'I' for Inactive)
REMARK    1  A    between atoms: O_2  and  C_3
REMARK    2  A    between atoms: C_3  and  C_4
REMARK    3  A    between atoms: C_4  and  N_5
REMARK    4  A    between atoms: C_6  and  C_8
REMARK    5  A    between atoms: C_8  and  C_9
REMARK    6  A    between atoms: C_14  and  C_16
REMARK    7  A    between atoms: C_27  and  C_29
REMARK                            x       y       z     vdW  Elec       q    Type
REMARK                         _______ _______ _______ _____ _____    ______ ____
ROOT
ATOM      9  C   UNL     1      -2.652   2.798  25.297  0.00  0.00    +0.050 C 
ATOM     10  C   UNL     1      -2.453   2.062  24.980  0.00  0.00    +0.063 A 
ATOM     11  C   UNL     1      -1.745   1.969  24.568  0.00  0.00    +0.023 A 
ATOM     12  C   UNL     1      -1.236   2.610  24.472  0.00  0.00    +0.034 C 
ATOM     13  C   UNL     1      -1.434   3.345  24.788  0.00  0.00    +0.010 C 
ATOM     14  C   UNL     1      -0.925   3.987  24.692  0.00  0.00    +0.059 C 
ATOM     15  C   UNL     1      -0.497   3.405  24.295  0.00  0.00    +0.005 C 
ATOM     18  C   UNL     1      -1.124   4.723  25.009  0.00  0.00    +0.154 C 
ATOM     19  O   UNL     1      -0.614   5.365  24.913  0.00  0.00    -0.223 OA
ATOM     20  C   UNL     1      -1.832   4.817  25.421  0.00  0.00    +0.033 C 
ATOM     21  C   UNL     1      -2.341   4.175  25.517  0.00  0.00    +0.003 C 
ATOM     22  C   UNL     1      -2.143   3.439  25.201  0.00  0.00    +0.006 C 
ATOM     23  C   UNL     1      -2.851   3.533  25.613  0.00  0.00    +0.000 C 
ATOM     24  S   UNL     1      -1.697   1.183  24.320  0.00  0.00    -0.054 S 
ATOM     25  C   UNL     1      -2.375   0.792  24.578  0.00  0.00    +0.185 A 
ATOM     26  N   UNL     1      -2.555  -0.003  24.452  0.00  0.00    -0.154 NA
ATOM     27  C   UNL     1      -3.258  -0.320  24.745  0.00  0.00    +0.247 C 
ATOM     28  O   UNL     1      -3.782   0.159  25.165  0.00  0.00    -0.273 OA
ATOM     35  N   UNL     1      -2.843   1.335  24.987  0.00  0.00    -0.227 NA
ENDROOT
BRANCH  27  29
ATOM     29  C   UNL     1      -3.438  -1.115  24.618  0.00  0.00    +0.079 C 
ATOM     30  C   UNL     1      -3.083  -1.698  25.080  0.00  0.00    +0.009 C 
ATOM     31  C   UNL     1      -3.263  -2.493  24.953  0.00  0.00    +0.000 C 
ATOM     32  C   UNL     1      -3.799  -2.705  24.363  0.00  0.00    +0.000 C 
ATOM     33  C   UNL     1      -4.155  -2.121  23.900  0.00  0.00    +0.000 C 
ATOM     34  C   UNL     1      -3.974  -1.327  24.028  0.00  0.00    +0.009 C 
ENDBRANCH  27  29
BRANCH  14  16
ATOM     16  C   UNL     1      -0.267   4.426  24.458  0.00  0.00    +0.184 C 
ATOM     17  O   UNL     1       0.195   4.171  23.823  0.00  0.00    -0.220 OA
ENDBRANCH  14  16
BRANCH   9   8
ATOM      8  C   UNL     1      -3.361   2.892  25.709  0.00  0.00    +0.093 C 
BRANCH   8   6
ATOM      5  N   UNL     1      -4.779   2.731  25.635  0.00  0.00    -0.203 NA
ATOM      6  C   UNL     1      -4.070   2.980  25.295  0.00  0.00    +0.242 C 
ATOM      7  O   UNL     1      -4.069   3.317  24.543  0.00  0.00    -0.273 OA
BRANCH   5   4
ATOM      4  C   UNL     1      -5.488   2.819  25.221  0.00  0.00    +0.147 C 
BRANCH   4   3
ATOM      3  C   UNL     1      -6.185   2.501  25.527  0.00  0.00    +0.166 C 
BRANCH   3   2
ATOM      1  C   UNL     1      -6.967   1.718  24.623  0.00  0.00    +0.174 C 
ATOM      2  O   UNL     1      -6.452   1.765  25.266  0.00  0.00    -0.349 OA
ENDBRANCH   3   2
ENDBRANCH   4   3
ENDBRANCH   5   4
ENDBRANCH   8   6
ENDBRANCH   9   8
TORSDOF 7
ENDMDL
MODEL 5
REMARK VINA RESULT:     -12.2      1.665      5.535
REMARK  Name = 
REMARK  7 active torsions:
REMARK  status: ('A' for Active; 'I' for Inactive)
REMARK    1  A    between atoms: O_2  and  C_3
REMARK    2  A    between atoms: C_3  and  C_4
REMARK    3  A    between atoms: C_4  and  N_5
REMARK    4  A    between atoms: C_6  and  C_8
REMARK    5  A    between atoms: C_8  and  C_9
REMARK    6  A    between atoms: C_14  and  C_16
REMARK    7  A    between atoms: C_27  and  C_29
REMARK                            x       y       z     vdW  Elec       q    Type
REMARK                         _______ _______ _______ _____ _____    ______ ____
ROOT
ATOM      9  C   UNL     1      -3.569   2.067  24.281  0.00  0.00    +0.050 C 
ATOM     10  C   UNL     1      -3.913   1.352  24.508  0.00  0.00    +0.063 A 
ATOM     11  C   UNL     1      -4.592   1.352  24.977  0.00  0.00    +0.023 A 
ATOM     12  C   UNL     1      -4.926   2.065  25.218  0.00  0.00    +0.034 C 
ATOM     13  C   UNL     1      -4.583   2.780  24.992  0.00  0.00    +0.010 C 
ATOM     14  C   UNL     1      -4.918   3.494  25.233  0.00  0.00    +0.059 C 
ATOM     15  C   UNL     1      -5.441   2.964  25.587  0.00  0.00    +0.005 C 
ATOM     18  C   UNL     1      -4.573   4.209  25.006  0.00  0.00    +0.154 C 
ATOM     19  O   UNL     1      -4.908   4.924  25.248  0.00  0.00    -0.223 OA
ATOM     20  C   UNL     1      -3.895   4.209  24.537  0.00  0.00    +0.033 C 
ATOM     21  C   UNL     1      -3.560   3.495  24.296  0.00  0.00    +0.003 C 
ATOM     22  C   UNL     1      -3.903   2.780  24.522  0.00  0.00    +0.006 C 
ATOM     23  C   UNL     1      -3.225   2.781  24.054  0.00  0.00    +0.000 C 
ATOM     24  S   UNL     1      -4.806   0.566  25.113  0.00  0.00    -0.054 S 
ATOM     25  C   UNL     1      -4.260   0.082  24.730  0.00  0.00    +0.185 A 
ATOM     26  N   UNL     1      -4.265  -0.743  24.721  0.00  0.00    -0.154 NA
ATOM     27  C   UNL     1      -3.680  -1.155  24.311  0.00  0.00    +0.247 C 
ATOM     28  O   UNL     1      -3.090  -0.742  23.909  0.00  0.00    -0.273 OA
ATOM     35  N   UNL     1      -3.708   0.567  24.355  0.00  0.00    -0.227 NA
ENDROOT
BRANCH  27  29
ATOM     29  C   UNL     1      -3.685  -1.980  24.302  0.00  0.00    +0.079 C 
ATOM     30  C   UNL     1      -4.156  -2.385  23.760  0.00  0.00    +0.009 C 
ATOM     31  C   UNL     1      -4.160  -3.210  23.751  0.00  0.00    +0.000 C 
ATOM     32  C   UNL     1      -3.693  -3.630  24.286  0.00  0.00    +0.000 C 
ATOM     33  C   UNL     1      -3.221  -3.225  24.829  0.00  0.00    +0.000 C 
ATOM     34  C   UNL     1      -3.217  -2.400  24.837  0.00  0.00    +0.009 C 
ENDBRANCH  27  29
BRANCH  14  16
ATOM     16  C   UNL     1      -5.434   4.024  25.598  0.00  0.00    +0.184 C 
ATOM     17  O   UNL     1      -6.131   3.748  25.944  0.00  0.00    -0.220 OA
ENDBRANCH  14  16
BRANCH   9   8
ATOM      8  C   UNL     1      -2.890   2.067  23.812  0.00  0.00    +0.093 C 
BRANCH   8   6
ATOM      5  N   UNL     1      -1.547   1.596  23.682  0.00  0.00    -0.203 NA
ATOM      6  C   UNL     1      -2.156   1.897  24.150  0.00  0.00    +0.242 C 
ATOM      7  O   UNL     1      -2.032   2.029  24.954  0.00  0.00    -0.273 OA
BRANCH   5   4
ATOM      4  C   UNL     1      -0.813   1.426  24.020  0.00  0.00    +0.147 C 
BRANCH   4   3
ATOM      3  C   UNL     1      -0.214   1.097  23.559  0.00  0.00    +0.166 C 
BRANCH   3   2
ATOM      1  C   UNL     1       0.711   0.035  23.315  0.00  0.00    +0.174 C 
ATOM      2  O   UNL     1       0.173   0.413  23.813  0.00  0.00    -0.349 OA
ENDBRANCH   3   2
ENDBRANCH   4   3
ENDBRANCH   5   4
ENDBRANCH   8   6
ENDBRANCH   9   8
TORSDOF 7
ENDMDL
MODEL 6
REMARK VINA RESULT:     -11.7      1.139      3.193
REMARK  Name = 
REMARK  7 active torsions:
REMARK  status: ('A' for Active; 'I' for Inactive)
REMARK    1  A    between atoms: O_2  and  C_3
REMARK    2  A    between atoms: C_3  and  C_4
REMARK    3  A    between atoms: C_4  and  N_5
REMARK    4  A    between atoms: C_6  and  C_8
REMARK    5  A    between atoms: C_8  and  C_9
REMARK    6  A    between atoms: C_14  and  C_16
REMARK    7  A    between atoms: C_27  and  C_29
REMARK                            x       y       z     vdW  Elec       q    Type
REMARK                         _______ _______ _______ _____ _____    ______ ____
ROOT
ATOM      9  C   UNL     1      -2.439  -0.245  25.013  0.00  0.00    +0.050 C 
ATOM     10  C   UNL     1      -3.170   0.135  24.961  0.00  0.00    +0.063 A 
ATOM     11  C   UNL     1      -3.838  -0.289  24.729  0.00  0.00    +0.023 A 
ATOM     12  C   UNL     1      -3.777  -1.091  24.551  0.00  0.00    +0.034 C 
ATOM     13  C   UNL     1      -3.047  -1.471  24.603  0.00  0.00    +0.010 C 
ATOM     14  C   UNL     1      -2.985  -2.274  24.424  0.00  0.00    +0.059 C 
ATOM     15  C   UNL     1      -3.791  -2.160  24.294  0.00  0.00    +0.005 C 
ATOM     18  C   UNL     1      -2.254  -2.653  24.477  0.00  0.00    +0.154 C 
ATOM     19  O   UNL     1      -2.192  -3.457  24.298  0.00  0.00    -0.223 OA
ATOM     20  C   UNL     1      -1.585  -2.230  24.708  0.00  0.00    +0.033 C 
ATOM     21  C   UNL     1      -1.647  -1.427  24.887  0.00  0.00    +0.003 C 
ATOM     22  C   UNL     1      -2.377  -1.047  24.834  0.00  0.00    +0.006 C 
ATOM     23  C   UNL     1      -1.708  -0.624  25.065  0.00  0.00    +0.000 C 
ATOM     24  S   UNL     1      -4.480   0.230  24.727  0.00  0.00    -0.054 S 
ATOM     25  C   UNL     1      -4.208   0.973  24.957  0.00  0.00    +0.185 A 
ATOM     26  N   UNL     1      -4.665   1.657  25.030  0.00  0.00    -0.154 NA
ATOM     27  C   UNL     1      -4.315   2.364  25.267  0.00  0.00    +0.247 C 
ATOM     28  O   UNL     1      -3.507   2.390  25.430  0.00  0.00    -0.273 OA
ATOM     35  N   UNL     1      -3.398   0.915  25.101  0.00  0.00    -0.227 NA
ENDROOT
BRANCH  27  29
ATOM     29  C   UNL     1      -4.772   3.048  25.340  0.00  0.00    +0.079 C 
ATOM     30  C   UNL     1      -5.529   3.005  25.664  0.00  0.00    +0.009 C 
ATOM     31  C   UNL     1      -5.986   3.689  25.737  0.00  0.00    +0.000 C 
ATOM     32  C   UNL     1      -5.685   4.414  25.485  0.00  0.00    +0.000 C 
ATOM     33  C   UNL     1      -4.927   4.457  25.160  0.00  0.00    +0.000 C 
ATOM     34  C   UNL     1      -4.471   3.773  25.088  0.00  0.00    +0.009 C 
ENDBRANCH  27  29
BRANCH  14  16
ATOM     16  C   UNL     1      -3.203  -3.037  24.200  0.00  0.00    +0.184 C 
ATOM     17  O   UNL     1      -3.991  -3.205  24.020  0.00  0.00    -0.220 OA
ENDBRANCH  14  16
BRANCH   9   8
ATOM      8  C   UNL     1      -1.770   0.179  25.244  0.00  0.00    +0.093 C 
BRANCH   8   6
ATOM      5  N   UNL     1      -0.934   1.307  24.977  0.00  0.00    -0.203 NA
ATOM      6  C   UNL     1      -1.390   0.675  24.705  0.00  0.00    +0.242 C 
ATOM      7  O   UNL     1      -1.466   0.540  23.896  0.00  0.00    -0.273 OA
BRANCH   5   4
ATOM      4  C   UNL     1      -0.554   1.803  24.437  0.00  0.00    +0.147 C 
BRANCH   4   3
ATOM      3  C   UNL     1      -0.224   2.514  24.694  0.00  0.00    +0.166 C 
BRANCH   3   2
ATOM      1  C   UNL     1      -0.410   3.926  24.574  0.00  0.00    +0.174 C 
ATOM      2  O   UNL     1      -0.285   3.190  24.223  0.00  0.00    -0.349 OA
ENDBRANCH   3   2
ENDBRANCH   4   3
ENDBRANCH   5   4
ENDBRANCH   8   6
ENDBRANCH   9   8
TORSDOF 7
ENDMDL
MODEL 7
REMARK VINA RESULT:     -11.4      1.714      4.310
REMARK  Name = 
REMARK  7 active torsions:
REMARK  status: ('A' for Active; 'I' for Inactive)
REMARK    1  A    between atoms: O_2  and  C_3
REMARK    2  A    between atoms: C_3  and  C_4
REMARK    3  A    between atoms: C_4  and  N_5
REMARK    4  A    between atoms: C_6  and  C_8
REMARK    5  A    between atoms: C_8  and  C_9
REMARK    6  A    between atoms: C_14  and  C_16
REMARK    7  A    between atoms: C_27  and  C_29
REMARK                            x       y       z     vdW  Elec       q    Type
REMARK                         _______ _______ _______ _____ _____    ______ ____
ROOT
ATOM      9  C   UNL     1      -3.905   1.353  24.526  0.00  0.00    +0.050 C 
ATOM     10  C   UNL     1      -3.113   1.586  24.518  0.00  0.00    +0.063 A 
ATOM     11  C   UNL     1      -2.896   2.319  24.829  0.00  0.00    +0.023 A 
ATOM     12  C   UNL     1      -3.469   2.817  25.148  0.00  0.00    +0.034 C 
ATOM     13  C   UNL     1      -4.260   2.585  25.157  0.00  0.00    +0.010 C 
ATOM     14  C   UNL     1      -4.834   3.084  25.477  0.00  0.00    +0.059 C 
ATOM     15  C   UNL     1      -4.161   3.546  25.593  0.00  0.00    +0.005 C 
ATOM     18  C   UNL     1      -5.625   2.850  25.485  0.00  0.00    +0.154 C 
ATOM     19  O   UNL     1      -6.200   3.350  25.806  0.00  0.00    -0.223 OA
ATOM     20  C   UNL     1      -5.843   2.119  25.175  0.00  0.00    +0.033 C 
ATOM     21  C   UNL     1      -5.269   1.619  24.855  0.00  0.00    +0.003 C 
ATOM     22  C   UNL     1      -4.478   1.852  24.846  0.00  0.00    +0.006 C 
ATOM     23  C   UNL     1      -4.696   1.120  24.535  0.00  0.00    +0.000 C 
ATOM     24  S   UNL     1      -2.079   2.398  24.744  0.00  0.00    -0.054 S 
ATOM     25  C   UNL     1      -1.792   1.716  24.381  0.00  0.00    +0.185 A 
ATOM     26  N   UNL     1      -1.004   1.562  24.191  0.00  0.00    -0.154 NA
ATOM     27  C   UNL     1      -0.798   0.851  23.827  0.00  0.00    +0.247 C 
ATOM     28  O   UNL     1      -1.381   0.294  23.653  0.00  0.00    -0.273 OA
ATOM     35  N   UNL     1      -2.431   1.213  24.241  0.00  0.00    -0.227 NA
ENDROOT
BRANCH  27  29
ATOM     29  C   UNL     1      -0.010   0.697  23.637  0.00  0.00    +0.079 C 
ATOM     30  C   UNL     1       0.573   1.254  23.808  0.00  0.00    +0.009 C 
ATOM     31  C   UNL     1       1.361   1.100  23.618  0.00  0.00    +0.000 C 
ATOM     32  C   UNL     1       1.565   0.387  23.257  0.00  0.00    +0.000 C 
ATOM     33  C   UNL     1       0.982  -0.172  23.086  0.00  0.00    +0.000 C 
ATOM     34  C   UNL     1       0.195  -0.016  23.276  0.00  0.00    +0.009 C 
ENDBRANCH  27  29
BRANCH  14  16
ATOM     16  C   UNL     1      -5.174   3.744  25.837  0.00  0.00    +0.184 C 
ATOM     17  O   UNL     1      -4.692   4.326  26.169  0.00  0.00    -0.220 OA
ENDBRANCH  14  16
BRANCH   9   8
ATOM      8  C   UNL     1      -4.122   0.621  24.215  0.00  0.00    +0.093 C 
BRANCH   8   6
ATOM      5  N   UNL     1      -3.998  -0.801  24.286  0.00  0.00    -0.203 NA
ATOM      6  C   UNL     1      -4.009  -0.066  24.660  0.00  0.00    +0.242 C 
ATOM      7  O   UNL     1      -3.906  -0.016  25.476  0.00  0.00    -0.273 OA
BRANCH   5   4
ATOM      4  C   UNL     1      -3.885  -1.488  24.731  0.00  0.00    +0.147 C 
BRANCH   4   3
ATOM      3  C   UNL     1      -3.807  -2.216  24.351  0.00  0.00    +0.166 C 
BRANCH   3   2
ATOM      1  C   UNL     1      -2.940  -3.331  24.565  0.00  0.00    +0.174 C 
ATOM      2  O   UNL     1      -3.600  -2.887  24.785  0.00  0.00    -0.349 OA
ENDBRANCH   3   2
ENDBRANCH   4   3
ENDBRANCH   5   4
ENDBRANCH   8   6
ENDBRANCH   9   8
TORSDOF 7
ENDMDL
