MODEL 1
REMARK VINA RESULT:     -10.5      0.000      0.000
REMARK  Name = 
REMARK  2 active torsions:
REMARK  status: ('A' for Active; 'I' for Inactive)
REMARK    1  A    between atoms: C_5  and  C_7
REMARK    2  A    between atoms: C_12  and  C_14
REMARK                            x       y       z     vdW  Elec       q    Type
REMARK                         _______ _______ _______ _____ _____    ______ ____
ROOT
ATOM      7  C   UNL     1      -4.647   1.274  24.983  0.00  0.00    +0.100 C 
ATOM      8  C   UNL     1      -5.456   1.434  25.011  0.00  0.00    +0.033 C 
ATOM      9  C   UNL     1      -5.552   2.244  25.137  0.00  0.00    +0.094 C 
ATOM     10  N   UNL     1      -4.802   2.585  25.186  0.00  0.00    -0.276 N 
ATOM     11  C   UNL     1      -4.243   1.985  25.091  0.00  0.00    +0.103 C 
ATOM     12  C   UNL     1      -4.640   3.385  25.309  0.00  0.00    +0.249 C 
ATOM     13  O   UNL     1      -5.260   3.922  25.395  0.00  0.00    -0.270 OA
ENDROOT
BRANCH   7   5
ATOM      1  C   UNL     1      -3.570  -1.378  25.473  0.00  0.00    +0.097 C 
ATOM      2  C   UNL     1      -3.808  -0.685  25.093  0.00  0.00    +0.227 A 
ATOM      3  N   UNL     1      -3.740  -0.527  24.286  0.00  0.00    -0.112 NA
ATOM      4  N   UNL     1      -4.045   0.226  24.146  0.00  0.00    -0.112 NA
ATOM      5  C   UNL     1      -4.303   0.534  24.867  0.00  0.00    +0.227 A 
ATOM      6  O   UNL     1      -4.156  -0.030  25.452  0.00  0.00    -0.423 OA
ENDBRANCH   7   5
BRANCH  12  14
ATOM     14  C   UNL     1      -3.859   3.646  25.346  0.00  0.00    +0.054 A 
ATOM     15  C   UNL     1      -3.488   3.737  26.078  0.00  0.00    +0.005 A 
ATOM     16  C   UNL     1      -2.707   3.999  26.114  0.00  0.00    +0.000 A 
ATOM     17  C   UNL     1      -2.296   4.169  25.420  0.00  0.00    +0.000 A 
ATOM     18  C   UNL     1      -2.666   4.078  24.688  0.00  0.00    +0.000 A 
ATOM     19  C   UNL     1      -3.448   3.816  24.651  0.00  0.00    +0.005 A 
ENDBRANCH  12  14
TORSDOF 2
ENDMDL
MODEL 2
REMARK VINA RESULT:     -10.3      3.641      4.995
REMARK  Name = 
REMARK  2 active torsions:
REMARK  status: ('A' for Active; 'I' for Inactive)
REMARK    1  A    between atoms: C_5  and  C_7
REMARK    2  A    between atoms: C_12  and  C_14
REMARK                            x       y       z     vdW  Elec       q    Type
REMARK                         _______ _______ _______ _____ _____    ______ ____
ROOT
ATOM      7  C   UNL     1      -1.248  -0.278  24.939  0.00  0.00    +0.100 C 
ATOM      8  C   UNL     1      -1.196  -0.126  25.749  0.00  0.00    +0.033 C 
ATOM      9  C   UNL     1      -1.850  -0.471  26.116  0.00  0.00    +0.094 C 
ATOM     10  N   UNL     1      -2.307  -0.834  25.533  0.00  0.00    -0.276 N 
ATOM     11  C   UNL     1      -1.934  -0.716  24.806  0.00  0.00    +0.103 C 
ATOM     12  C   UNL     1      -3.012  -1.246  25.655  0.00  0.00    +0.249 C 
ATOM     13  O   UNL     1      -3.319  -1.319  26.417  0.00  0.00    -0.270 OA
ENDROOT
BRANCH   7   5
ATOM      1  C   UNL     1       0.909  -0.291  22.995  0.00  0.00    +0.097 C 
ATOM      2  C   UNL     1       0.283  -0.041  23.471  0.00  0.00    +0.227 A 
ATOM      3  N   UNL     1      -0.038   0.718  23.491  0.00  0.00    -0.112 NA
ATOM      4  N   UNL     1      -0.651   0.723  24.044  0.00  0.00    -0.112 NA
ATOM      5  C   UNL     1      -0.708  -0.035  24.365  0.00  0.00    +0.227 A 
ATOM      6  O   UNL     1      -0.131  -0.507  24.011  0.00  0.00    -0.423 OA
ENDBRANCH   7   5
BRANCH  12  14
ATOM     14  C   UNL     1      -3.409  -1.582  25.016  0.00  0.00    +0.054 A 
ATOM     15  C   UNL     1      -3.287  -2.376  24.825  0.00  0.00    +0.005 A 
ATOM     16  C   UNL     1      -3.685  -2.713  24.186  0.00  0.00    +0.000 A 
ATOM     17  C   UNL     1      -4.204  -2.256  23.736  0.00  0.00    +0.000 A 
ATOM     18  C   UNL     1      -4.326  -1.463  23.926  0.00  0.00    +0.000 A 
ATOM     19  C   UNL     1      -3.929  -1.125  24.566  0.00  0.00    +0.005 A 
ENDBRANCH  12  14
TORSDOF 2
ENDMDL
MODEL 3
REMARK VINA RESULT:     -10.2      1.970      3.937
REMARK  Name = 
REMARK  2 active torsions:
REMARK  status: ('A' for Active; 'I' for Inactive)
REMARK    1  A    between atoms: C_5  and  C_7
REMARK    2  A    between atoms: C_12  and  C_14
REMARK                            x       y       z     vdW  Elec       q    Type
REMARK                         _______ _______ _______ _____ _____    ______ ____
ROOT
ATOM      7  C   UNL     1      -2.629   1.689  24.718  0.00  0.00    +0.100 C 
ATOM      8  C   UNL     1      -3.240   2.242  24.685  0.00  0.00    +0.033 C 
ATOM      9  C   UNL     1      -3.957   1.832  24.701  0.00  0.00    +0.094 C 
ATOM     10  N   UNL     1      -3.787   1.026  24.743  0.00  0.00    -0.276 N 
ATOM     11  C   UNL     1      -2.967   0.937  24.754  0.00  0.00    +0.103 C 
ATOM     12  C   UNL     1      -4.341   0.415  24.770  0.00  0.00    +0.249 C 
ATOM     13  O   UNL     1      -5.148   0.589  24.755  0.00  0.00    -0.270 OA
ENDROOT
BRANCH   7   5
ATOM      1  C   UNL     1       0.094   2.173  25.605  0.00  0.00    +0.097 C 
ATOM      2  C   UNL     1      -0.570   2.081  25.124  0.00  0.00    +0.227 A 
ATOM      3  N   UNL     1      -0.589   2.157  24.303  0.00  0.00    -0.112 NA
ATOM      4  N   UNL     1      -1.362   2.020  24.050  0.00  0.00    -0.112 NA
ATOM      5  C   UNL     1      -1.822   1.859  24.716  0.00  0.00    +0.227 A 
ATOM      6  O   UNL     1      -1.332   1.896  25.379  0.00  0.00    -0.423 OA
ENDBRANCH   7   5
BRANCH  12  14
ATOM     14  C   UNL     1      -4.089  -0.369  24.812  0.00  0.00    +0.054 A 
ATOM     15  C   UNL     1      -3.858  -0.690  25.537  0.00  0.00    +0.005 A 
ATOM     16  C   UNL     1      -3.606  -1.475  25.579  0.00  0.00    +0.000 A 
ATOM     17  C   UNL     1      -3.584  -1.938  24.897  0.00  0.00    +0.000 A 
ATOM     18  C   UNL     1      -3.814  -1.618  24.173  0.00  0.00    +0.000 A 
ATOM     19  C   UNL     1      -4.067  -0.833  24.130  0.00  0.00    +0.005 A 
ENDBRANCH  12  14
TORSDOF 2
ENDMDL
MODEL 4
REMARK VINA RESULT:     -10.0      1.658      4.224
REMARK  Name = 
REMARK  2 active torsions:
REMARK  status: ('A' for Active; 'I' for Inactive)
REMARK    1  A    between atoms: C_5  and  C_7
REMARK    2  A    between atoms: C_12  and  C_14
REMARK                            x       y       z     vdW  Elec       q    Type
REMARK                         _______ _______ _______ _____ _____    ______ ____
ROOT
ATOM      7  C   UNL     1      -3.749   1.384  24.735  0.00  0.00    +0.100 C 
ATOM      8  C   UNL     1      -3.049   1.753  24.499  0.00  0.00    +0.033 C 
ATOM      9  C   UNL     1      -2.476   1.169  24.392  0.00  0.00    +0.094 C 
ATOM     10  N   UNL     1      -2.821   0.439  24.562  0.00  0.00    -0.276 N 
ATOM     11  C   UNL     1      -3.608   0.572  24.774  0.00  0.00    +0.103 C 
ATOM     12  C   UNL     1      -2.446  -0.295  24.527  0.00  0.00    +0.249 C 
ATOM     13  O   UNL     1      -1.653  -0.342  24.305  0.00  0.00    -0.270 OA
ENDROOT
BRANCH   7   5
ATOM      1  C   UNL     1      -5.693   3.311  25.704  0.00  0.00    +0.097 C 
ATOM      2  C   UNL     1      -5.356   2.648  25.348  0.00  0.00    +0.227 A 
ATOM      3  N   UNL     1      -5.766   2.038  24.972  0.00  0.00    -0.112 NA
ATOM      4  N   UNL     1      -5.214   1.490  24.697  0.00  0.00    -0.112 NA
ATOM      5  C   UNL     1      -4.463   1.761  24.902  0.00  0.00    +0.227 A 
ATOM      6  O   UNL     1      -4.551   2.477  25.304  0.00  0.00    -0.423 OA
ENDBRANCH   7   5
BRANCH  12  14
ATOM     14  C   UNL     1      -2.864  -0.981  24.714  0.00  0.00    +0.054 A 
ATOM     15  C   UNL     1      -2.886  -1.252  25.493  0.00  0.00    +0.005 A 
ATOM     16  C   UNL     1      -3.304  -1.938  25.680  0.00  0.00    +0.000 A 
ATOM     17  C   UNL     1      -3.700  -2.354  25.088  0.00  0.00    +0.000 A 
ATOM     18  C   UNL     1      -3.678  -2.084  24.309  0.00  0.00    +0.000 A 
ATOM     19  C   UNL     1      -3.260  -1.397  24.121  0.00  0.00    +0.005 A 
ENDBRANCH  12  14
TORSDOF 2
ENDMDL
MODEL 5
REMARK VINA RESULT:     -10.0      1.485      2.296
REMARK  Name = 
REMARK  2 active torsions:
REMARK  status: ('A' for Active; 'I' for Inactive)
REMARK    1  A    between atoms: C_5  and  C_7
REMARK    2  A    between atoms: C_12  and  C_14
REMARK                            x       y       z     vdW  Elec       q    Type
REMARK                         _______ _______ _______ _____ _____    ______ ____
ROOT
ATOM      7  C   UNL     1      -3.360   0.299  24.311  0.00  0.00    +0.100 C 
ATOM      8  C   UNL     1      -2.930   0.560  23.656  0.00  0.00    +0.033 C 
ATOM      9  C   UNL     1      -3.152   1.340  23.500  0.00  0.00    +0.094 C 
ATOM     10  N   UNL     1      -3.718   1.560  24.057  0.00  0.00    -0.276 N 
ATOM     11  C   UNL     1      -3.847   0.917  24.558  0.00  0.00    +0.103 C 
ATOM     12  C   UNL     1      -4.091   2.295  24.105  0.00  0.00    +0.249 C 
ATOM     13  O   UNL     1      -3.905   2.887  23.562  0.00  0.00    -0.270 OA
ENDROOT
BRANCH   7   5
ATOM      1  C   UNL     1      -3.582  -2.564  24.740  0.00  0.00    +0.097 C 
ATOM      2  C   UNL     1      -3.413  -1.765  24.853  0.00  0.00    +0.227 A 
ATOM      3  N   UNL     1      -3.059  -1.433  25.520  0.00  0.00    -0.112 NA
ATOM      4  N   UNL     1      -2.996  -0.619  25.399  0.00  0.00    -0.112 NA
ATOM      5  C   UNL     1      -3.311  -0.448  24.656  0.00  0.00    +0.227 A 
ATOM      6  O   UNL     1      -3.569  -1.156  24.319  0.00  0.00    -0.423 OA
ENDBRANCH   7   5
BRANCH  12  14
ATOM     14  C   UNL     1      -4.650   2.436  24.696  0.00  0.00    +0.054 A 
ATOM     15  C   UNL     1      -5.406   2.112  24.634  0.00  0.00    +0.005 A 
ATOM     16  C   UNL     1      -5.965   2.254  25.225  0.00  0.00    +0.000 A 
ATOM     17  C   UNL     1      -5.766   2.719  25.876  0.00  0.00    +0.000 A 
ATOM     18  C   UNL     1      -5.011   3.043  25.938  0.00  0.00    +0.000 A 
ATOM     19  C   UNL     1      -4.451   2.902  25.347  0.00  0.00    +0.005 A 
ENDBRANCH  12  14
TORSDOF 2
ENDMDL
