MODEL 1
REMARK VINA RESULT:      -8.8      0.000      0.000
REMARK  Name = 
REMARK  6 active torsions:
REMARK  status: ('A' for Active; 'I' for Inactive)
REMARK    1  A    between atoms: O_2  and  C_3
REMARK    2  A    between atoms: C_6  and  C_9
REMARK    3  A    between atoms: N_14  and  C_15
REMARK    4  A    between atoms: C_19  and  N_23
REMARK    5  A    between atoms: N_26  and  C_27
REMARK    6  A    between atoms: C_30  and  C_33
REMARK                            x       y       z     vdW  Elec       q    Type
REMARK                         _______ _______ _______ _____ _____    ______ ____
ROOT
ATOM     15  C   UNL     1      -1.175   0.742  24.409  0.00  0.00    +0.154 C 
ATOM     16  C   UNL     1      -1.209  -0.079  24.332  0.00  0.00    +0.166 C 
ATOM     17  O   UNL     1      -0.539  -0.323  23.919  0.00  0.00    -0.350 OA
ATOM     18  C   UNL     1      -0.090   0.345  23.741  0.00  0.00    +0.166 C 
ATOM     19  C   UNL     1       0.601   0.608  23.376  0.00  0.00    +0.156 C 
ATOM     20  C   UNL     1       0.635   1.429  23.453  0.00  0.00    +0.166 C 
ATOM     21  O   UNL     1      -0.036   1.673  23.866  0.00  0.00    -0.350 OA
ATOM     22  C   UNL     1      -0.484   1.004  24.044  0.00  0.00    +0.166 C 
ENDROOT
BRANCH  15  14
ATOM      9  C   UNL     1      -3.826   1.803  24.556  0.00  0.00    +0.086 A 
ATOM     10  C   UNL     1      -4.031   1.383  23.876  0.00  0.00    +0.040 A 
ATOM     11  C   UNL     1      -3.471   0.908  23.499  0.00  0.00    +0.103 A 
ATOM     12  N   UNL     1      -2.706   0.853  23.802  0.00  0.00    -0.211 NA
ATOM     13  C   UNL     1      -2.501   1.273  24.483  0.00  0.00    +0.237 A 
ATOM     14  N   UNL     1      -1.735   1.217  24.786  0.00  0.00    -0.200 NA
ATOM     36  N   UNL     1      -3.060   1.747  24.859  0.00  0.00    -0.212 NA
BRANCH   9   6
ATOM      3  C   UNL     1      -5.505   3.228  25.685  0.00  0.00    +0.139 A 
ATOM      4  C   UNL     1      -5.625   2.414  25.628  0.00  0.00    +0.037 A 
ATOM      5  C   UNL     1      -5.066   1.939  25.252  0.00  0.00    +0.005 A 
ATOM      6  C   UNL     1      -4.385   2.278  24.932  0.00  0.00    +0.018 A 
ATOM      7  C   UNL     1      -4.264   3.092  24.989  0.00  0.00    +0.005 A 
ATOM      8  C   UNL     1      -4.824   3.567  25.365  0.00  0.00    +0.037 A 
BRANCH   3   2
ATOM      1  C   UNL     1      -6.250   4.445  25.752  0.00  0.00    +0.252 C 
ATOM      2  O   UNL     1      -6.064   3.703  26.061  0.00  0.00    -0.471 OA
ENDBRANCH   3   2
ENDBRANCH   9   6
ENDBRANCH  15  14
BRANCH  19  23
ATOM     23  N   UNL     1       1.161   0.133  22.999  0.00  0.00    -0.184 NA
ATOM     24  C   UNL     1       1.963   0.229  23.165  0.00  0.00    +0.344 C 
ATOM     25  O   UNL     1       2.206   0.801  23.709  0.00  0.00    -0.249 OA
ATOM     26  N   UNL     1       2.523  -0.245  22.789  0.00  0.00    -0.161 NA
BRANCH  26  27
ATOM     27  C   UNL     1       3.325  -0.149  22.956  0.00  0.00    +0.075 A 
ATOM     28  C   UNL     1       3.734   0.501  22.655  0.00  0.00    +0.017 A 
ATOM     29  C   UNL     1       4.536   0.597  22.822  0.00  0.00    +0.004 A 
ATOM     30  C   UNL     1       4.930   0.042  23.289  0.00  0.00    +0.035 A 
ATOM     31  C   UNL     1       4.521  -0.608  23.590  0.00  0.00    +0.004 A 
ATOM     32  C   UNL     1       3.718  -0.704  23.423  0.00  0.00    +0.017 A 
BRANCH  30  33
ATOM     33  C   UNL     1       5.731   0.138  23.456  0.00  0.00    +0.173 C 
ATOM     34  C   UNL     1       5.966   0.560  24.125  0.00  0.00    +0.077 C 
ATOM     35  O   UNL     1       6.300  -0.189  22.954  0.00  0.00    -0.291 OA
ENDBRANCH  30  33
ENDBRANCH  26  27
ENDBRANCH  19  23
TORSDOF 6
ENDMDL
MODEL 2
REMARK VINA RESULT:      -8.0      0.971      8.069
REMARK  Name = 
REMARK  6 active torsions:
REMARK  status: ('A' for Active; 'I' for Inactive)
REMARK    1  A    between atoms: O_2  and  C_3
REMARK    2  A    between atoms: C_6  and  C_9
REMARK    3  A    between atoms: N_14  and  C_15
REMARK    4  A    between atoms: C_19  and  N_23
REMARK    5  A    between atoms: N_26  and  C_27
REMARK    6  A    between atoms: C_30  and  C_33
REMARK                            x       y       z     vdW  Elec       q    Type
REMARK                         _______ _______ _______ _____ _____    ______ ____
ROOT
ATOM     15  C   UNL     1       0.183   0.660  23.641  0.00  0.00    +0.154 C 
ATOM     16  C   UNL     1      -0.251   0.036  23.320  0.00  0.00    +0.166 C 
ATOM     17  O   UNL     1      -1.028   0.292  23.221  0.00  0.00    -0.350 OA
ATOM     18  C   UNL     1      -1.076   1.073  23.480  0.00  0.00    +0.166 C 
ATOM     19  C   UNL     1      -1.585   1.714  23.579  0.00  0.00    +0.156 C 
ATOM     20  C   UNL     1      -1.151   2.338  23.900  0.00  0.00    +0.166 C 
ATOM     21  O   UNL     1      -0.373   2.082  23.999  0.00  0.00    -0.350 OA
ATOM     22  C   UNL     1      -0.327   1.300  23.739  0.00  0.00    +0.166 C 
ENDROOT
BRANCH  15  14
ATOM      9  C   UNL     1       2.890   0.112  22.903  0.00  0.00    +0.086 A 
ATOM     10  C   UNL     1       2.637  -0.132  22.157  0.00  0.00    +0.040 A 
ATOM     11  C   UNL     1       1.834  -0.117  21.968  0.00  0.00    +0.103 A 
ATOM     12  N   UNL     1       1.283   0.142  22.526  0.00  0.00    -0.211 NA
ATOM     13  C   UNL     1       1.537   0.386  23.272  0.00  0.00    +0.237 A 
ATOM     14  N   UNL     1       0.986   0.645  23.830  0.00  0.00    -0.200 NA
ATOM     36  N   UNL     1       2.339   0.371  23.461  0.00  0.00    -0.212 NA
BRANCH   9   6
ATOM      3  C   UNL     1       5.299   0.069  23.469  0.00  0.00    +0.139 A 
ATOM      4  C   UNL     1       4.828  -0.592  23.618  0.00  0.00    +0.037 A 
ATOM      5  C   UNL     1       4.025  -0.577  23.430  0.00  0.00    +0.005 A 
ATOM      6  C   UNL     1       3.692   0.098  23.092  0.00  0.00    +0.018 A 
ATOM      7  C   UNL     1       4.163   0.758  22.942  0.00  0.00    +0.005 A 
ATOM      8  C   UNL     1       4.967   0.744  23.131  0.00  0.00    +0.037 A 
BRANCH   3   2
ATOM      1  C   UNL     1       6.635  -0.332  23.160  0.00  0.00    +0.252 C 
ATOM      2  O   UNL     1       6.102   0.054  23.657  0.00  0.00    -0.471 OA
ENDBRANCH   3   2
ENDBRANCH   9   6
ENDBRANCH  15  14
BRANCH  19  23
ATOM     23  N   UNL     1      -2.388   1.729  23.390  0.00  0.00    -0.184 NA
ATOM     24  C   UNL     1      -2.949   1.856  23.982  0.00  0.00    +0.344 C 
ATOM     25  O   UNL     1      -2.707   1.969  24.762  0.00  0.00    -0.249 OA
ATOM     26  N   UNL     1      -3.752   1.871  23.793  0.00  0.00    -0.161 NA
BRANCH  26  27
ATOM     27  C   UNL     1      -4.313   1.999  24.385  0.00  0.00    +0.075 A 
ATOM     28  C   UNL     1      -4.541   2.767  24.578  0.00  0.00    +0.017 A 
ATOM     29  C   UNL     1      -5.101   2.894  25.169  0.00  0.00    +0.004 A 
ATOM     30  C   UNL     1      -5.435   2.253  25.567  0.00  0.00    +0.035 A 
ATOM     31  C   UNL     1      -5.207   1.484  25.374  0.00  0.00    +0.004 A 
ATOM     32  C   UNL     1      -4.646   1.357  24.782  0.00  0.00    +0.017 A 
BRANCH  30  33
ATOM     33  C   UNL     1      -5.995   2.379  26.158  0.00  0.00    +0.173 C 
ATOM     34  C   UNL     1      -6.585   1.818  26.294  0.00  0.00    +0.077 C 
ATOM     35  O   UNL     1      -5.967   3.067  26.614  0.00  0.00    -0.291 OA
ENDBRANCH  30  33
ENDBRANCH  26  27
ENDBRANCH  19  23
TORSDOF 6
ENDMDL
MODEL 3
REMARK VINA RESULT:      -5.9     15.132     16.441
REMARK  Name = 
REMARK  6 active torsions:
REMARK  status: ('A' for Active; 'I' for Inactive)
REMARK    1  A    between atoms: O_2  and  C_3
REMARK    2  A    between atoms: C_6  and  C_9
REMARK    3  A    between atoms: N_14  and  C_15
REMARK    4  A    between atoms: C_19  and  N_23
REMARK    5  A    between atoms: N_26  and  C_27
REMARK    6  A    between atoms: C_30  and  C_33
REMARK                            x       y       z     vdW  Elec       q    Type
REMARK                         _______ _______ _______ _____ _____    ______ ____
ROOT
ATOM     15  C   UNL     1      -6.159 -10.511  15.698  0.00  0.00    +0.154 C 
ATOM     16  C   UNL     1      -5.426 -10.196  15.906  0.00  0.00    +0.166 C 
ATOM     17  O   UNL     1      -5.007 -10.046  15.212  0.00  0.00    -0.350 OA
ATOM     18  C   UNL     1      -5.481 -10.267  14.575  0.00  0.00    +0.166 C 
ATOM     19  C   UNL     1      -5.517 -10.311  13.751  0.00  0.00    +0.156 C 
ATOM     20  C   UNL     1      -6.250 -10.626  13.543  0.00  0.00    +0.166 C 
ATOM     21  O   UNL     1      -6.668 -10.777  14.238  0.00  0.00    -0.350 OA
ATOM     22  C   UNL     1      -6.193 -10.555  14.875  0.00  0.00    +0.166 C 
ENDROOT
BRANCH  15  14
ATOM      9  C   UNL     1      -8.307  -9.835  17.458  0.00  0.00    +0.086 A 
ATOM     10  C   UNL     1      -8.192  -9.035  17.291  0.00  0.00    +0.040 A 
ATOM     11  C   UNL     1      -7.597  -8.804  16.767  0.00  0.00    +0.103 A 
ATOM     12  N   UNL     1      -7.118  -9.373  16.411  0.00  0.00    -0.211 NA
ATOM     13  C   UNL     1      -7.233 -10.173  16.578  0.00  0.00    +0.237 A 
ATOM     14  N   UNL     1      -6.754 -10.742  16.221  0.00  0.00    -0.200 NA
ATOM     36  N   UNL     1      -7.828 -10.403  17.101  0.00  0.00    -0.212 NA
BRANCH   9   6
ATOM      3  C   UNL     1     -10.092 -10.526  19.027  0.00  0.00    +0.139 A 
ATOM      4  C   UNL     1      -9.315 -10.776  19.149  0.00  0.00    +0.037 A 
ATOM      5  C   UNL     1      -8.721 -10.546  18.626  0.00  0.00    +0.005 A 
ATOM      6  C   UNL     1      -8.902 -10.065  17.981  0.00  0.00    +0.018 A 
ATOM      7  C   UNL     1      -9.678  -9.814  17.859  0.00  0.00    +0.005 A 
ATOM      8  C   UNL     1     -10.273 -10.045  18.382  0.00  0.00    +0.037 A 
BRANCH   3   2
ATOM      1  C   UNL     1     -10.651 -10.526  20.342  0.00  0.00    +0.252 C 
ATOM      2  O   UNL     1     -10.686 -10.756  19.550  0.00  0.00    -0.471 OA
ENDBRANCH   3   2
ENDBRANCH   9   6
ENDBRANCH  15  14
BRANCH  19  23
ATOM     23  N   UNL     1      -4.922 -10.080  13.228  0.00  0.00    -0.184 NA
ATOM     24  C   UNL     1      -5.092  -9.984  12.426  0.00  0.00    +0.344 C 
ATOM     25  O   UNL     1      -5.856 -10.118  12.148  0.00  0.00    -0.249 OA
ATOM     26  N   UNL     1      -4.498  -9.753  11.903  0.00  0.00    -0.161 NA
BRANCH  26  27
ATOM     27  C   UNL     1      -4.668  -9.657  11.101  0.00  0.00    +0.075 A 
ATOM     28  C   UNL     1      -4.873 -10.310  10.642  0.00  0.00    +0.017 A 
ATOM     29  C   UNL     1      -5.043 -10.214   9.841  0.00  0.00    +0.004 A 
ATOM     30  C   UNL     1      -5.007  -9.463   9.498  0.00  0.00    +0.035 A 
ATOM     31  C   UNL     1      -4.802  -8.810   9.958  0.00  0.00    +0.004 A 
ATOM     32  C   UNL     1      -4.632  -8.907  10.760  0.00  0.00    +0.017 A 
BRANCH  30  33
ATOM     33  C   UNL     1      -5.177  -9.366   8.698  0.00  0.00    +0.173 C 
ATOM     34  C   UNL     1      -4.694  -9.719   8.129  0.00  0.00    +0.077 C 
ATOM     35  O   UNL     1      -5.829  -8.917   8.465  0.00  0.00    -0.291 OA
ENDBRANCH  30  33
ENDBRANCH  26  27
ENDBRANCH  19  23
TORSDOF 6
ENDMDL
MODEL 4
REMARK VINA RESULT:      -5.9     14.256     14.997
REMARK  Name = 
REMARK  6 active torsions:
REMARK  status: ('A' for Active; 'I' for Inactive)
REMARK    1  A    between atoms: O_2  and  C_3
REMARK    2  A    between atoms: C_6  and  C_9
REMARK    3  A    between atoms: N_14  and  C_15
REMARK    4  A    between atoms: C_19  and  N_23
REMARK    5  A    between atoms: N_26  and  C_27
REMARK    6  A    between atoms: C_30  and  C_33
REMARK                            x       y       z     vdW  Elec       q    Type
REMARK                         _______ _______ _______ _____ _____    ______ ____
ROOT
ATOM     15  C   UNL     1      -5.014 -10.611  16.530  0.00  0.00    +0.154 C 
ATOM     16  C   UNL     1      -4.392 -10.519  17.063  0.00  0.00    +0.166 C 
ATOM     17  O   UNL     1      -3.687 -10.527  16.635  0.00  0.00    -0.350 OA
ATOM     18  C   UNL     1      -3.873 -10.624  15.838  0.00  0.00    +0.166 C 
ATOM     19  C   UNL     1      -3.554 -10.689  15.080  0.00  0.00    +0.156 C 
ATOM     20  C   UNL     1      -4.176 -10.781  14.547  0.00  0.00    +0.166 C 
ATOM     21  O   UNL     1      -4.881 -10.773  14.975  0.00  0.00    -0.350 OA
ATOM     22  C   UNL     1      -4.694 -10.676  15.773  0.00  0.00    +0.166 C 
ENDROOT
BRANCH  15  14
ATOM      9  C   UNL     1      -7.099 -10.501  18.483  0.00  0.00    +0.086 A 
ATOM     10  C   UNL     1      -6.536 -10.401  19.078  0.00  0.00    +0.040 A 
ATOM     11  C   UNL     1      -5.733 -10.378  18.887  0.00  0.00    +0.103 A 
ATOM     12  N   UNL     1      -5.493 -10.455  18.102  0.00  0.00    -0.211 NA
ATOM     13  C   UNL     1      -6.057 -10.556  17.507  0.00  0.00    +0.237 A 
ATOM     14  N   UNL     1      -5.817 -10.634  16.721  0.00  0.00    -0.200 NA
ATOM     36  N   UNL     1      -6.859 -10.579  17.698  0.00  0.00    -0.212 NA
BRANCH   9   6
ATOM      3  C   UNL     1      -9.506 -10.570  19.056  0.00  0.00    +0.139 A 
ATOM      4  C   UNL     1      -8.940 -10.777  19.621  0.00  0.00    +0.037 A 
ATOM      5  C   UNL     1      -8.139 -10.754  19.430  0.00  0.00    +0.005 A 
ATOM      6  C   UNL     1      -7.900 -10.524  18.674  0.00  0.00    +0.018 A 
ATOM      7  C   UNL     1      -8.465 -10.317  18.109  0.00  0.00    +0.005 A 
ATOM      8  C   UNL     1      -9.268 -10.340  18.300  0.00  0.00    +0.037 A 
BRANCH   3   2
ATOM      1  C   UNL     1     -10.719  -9.891  19.384  0.00  0.00    +0.252 C 
ATOM      2  O   UNL     1     -10.308 -10.593  19.247  0.00  0.00    -0.471 OA
ENDBRANCH   3   2
ENDBRANCH   9   6
ENDBRANCH  15  14
BRANCH  19  23
ATOM     23  N   UNL     1      -2.751 -10.666  14.890  0.00  0.00    -0.184 NA
ATOM     24  C   UNL     1      -2.509 -10.365  14.161  0.00  0.00    +0.344 C 
ATOM     25  O   UNL     1      -3.068 -10.086  13.623  0.00  0.00    -0.249 OA
ATOM     26  N   UNL     1      -1.707 -10.342  13.970  0.00  0.00    -0.161 NA
BRANCH  26  27
ATOM     27  C   UNL     1      -1.464 -10.040  13.241  0.00  0.00    +0.075 A 
ATOM     28  C   UNL     1      -1.130  -9.288  13.197  0.00  0.00    +0.017 A 
ATOM     29  C   UNL     1      -0.888  -8.986  12.469  0.00  0.00    +0.004 A 
ATOM     30  C   UNL     1      -0.979  -9.438  11.784  0.00  0.00    +0.035 A 
ATOM     31  C   UNL     1      -1.313 -10.191  11.828  0.00  0.00    +0.004 A 
ATOM     32  C   UNL     1      -1.556 -10.492  12.557  0.00  0.00    +0.017 A 
BRANCH  30  33
ATOM     33  C   UNL     1      -0.737  -9.137  11.056  0.00  0.00    +0.173 C 
ATOM     34  C   UNL     1      -1.298  -8.861  10.516  0.00  0.00    +0.077 C 
ATOM     35  O   UNL     1       0.066  -9.111  10.865  0.00  0.00    -0.291 OA
ENDBRANCH  30  33
ENDBRANCH  26  27
ENDBRANCH  19  23
TORSDOF 6
ENDMDL
MODEL 5
REMARK VINA RESULT:      -5.2     15.386     17.181
REMARK  Name = 
REMARK  6 active torsions:
REMARK  status: ('A' for Active; 'I' for Inactive)
REMARK    1  A    between atoms: O_2  and  C_3
REMARK    2  A    between atoms: C_6  and  C_9
REMARK    3  A    between atoms: N_14  and  C_15
REMARK    4  A    between atoms: C_19  and  N_23
REMARK    5  A    between atoms: N_26  and  C_27
REMARK    6  A    between atoms: C_30  and  C_33
REMARK                            x       y       z     vdW  Elec       q    Type
REMARK                         _______ _______ _______ _____ _____    ______ ____
ROOT
ATOM     15  C   UNL     1      -6.037 -10.609  14.082  0.00  0.00    +0.154 C 
ATOM     16  C   UNL     1      -5.271 -10.459  13.815  0.00  0.00    +0.166 C 
ATOM     17  O   UNL     1      -5.309 -10.315  13.004  0.00  0.00    -0.350 OA
ATOM     18  C   UNL     1      -6.096 -10.376  12.769  0.00  0.00    +0.166 C 
ATOM     19  C   UNL     1      -6.608 -10.325  12.124  0.00  0.00    +0.156 C 
ATOM     20  C   UNL     1      -7.373 -10.475  12.391  0.00  0.00    +0.166 C 
ATOM     21  O   UNL     1      -7.336 -10.620  13.202  0.00  0.00    -0.350 OA
ATOM     22  C   UNL     1      -6.547 -10.558  13.436  0.00  0.00    +0.166 C 
ENDROOT
BRANCH  15  14
ATOM      9  C   UNL     1      -5.880 -10.042  16.879  0.00  0.00    +0.086 A 
ATOM     10  C   UNL     1      -5.367  -9.415  16.723  0.00  0.00    +0.040 A 
ATOM     11  C   UNL     1      -5.150  -9.243  15.946  0.00  0.00    +0.103 A 
ATOM     12  N   UNL     1      -5.445  -9.698  15.324  0.00  0.00    -0.211 NA
ATOM     13  C   UNL     1      -5.959 -10.326  15.481  0.00  0.00    +0.237 A 
ATOM     14  N   UNL     1      -6.254 -10.781  14.859  0.00  0.00    -0.200 NA
ATOM     36  N   UNL     1      -6.175 -10.497  16.258  0.00  0.00    -0.212 NA
BRANCH   9   6
ATOM      3  C   UNL     1      -6.531 -10.556  19.211  0.00  0.00    +0.139 A 
ATOM      4  C   UNL     1      -7.112 -10.435  18.637  0.00  0.00    +0.037 A 
ATOM      5  C   UNL     1      -6.895 -10.264  17.861  0.00  0.00    +0.005 A 
ATOM      6  C   UNL     1      -6.097 -10.213  17.656  0.00  0.00    +0.018 A 
ATOM      7  C   UNL     1      -5.516 -10.334  18.229  0.00  0.00    +0.005 A 
ATOM      8  C   UNL     1      -5.733 -10.506  19.007  0.00  0.00    +0.037 A 
BRANCH   3   2
ATOM      1  C   UNL     1      -6.170 -10.781  20.575  0.00  0.00    +0.252 C 
ATOM      2  O   UNL     1      -6.747 -10.728  19.988  0.00  0.00    -0.471 OA
ENDBRANCH   3   2
ENDBRANCH   9   6
ENDBRANCH  15  14
BRANCH  19  23
ATOM     23  N   UNL     1      -6.390 -10.153  11.346  0.00  0.00    -0.184 NA
ATOM     24  C   UNL     1      -6.793  -9.570  10.924  0.00  0.00    +0.344 C 
ATOM     25  O   UNL     1      -7.414  -9.158  11.280  0.00  0.00    -0.249 OA
ATOM     26  N   UNL     1      -6.576  -9.398  10.148  0.00  0.00    -0.161 NA
BRANCH  26  27
ATOM     27  C   UNL     1      -6.979  -8.815   9.726  0.00  0.00    +0.075 A 
ATOM     28  C   UNL     1      -6.571  -8.161   9.432  0.00  0.00    +0.017 A 
ATOM     29  C   UNL     1      -6.974  -7.578   9.010  0.00  0.00    +0.004 A 
ATOM     30  C   UNL     1      -7.786  -7.648   8.882  0.00  0.00    +0.035 A 
ATOM     31  C   UNL     1      -8.195  -8.302   9.176  0.00  0.00    +0.004 A 
ATOM     32  C   UNL     1      -7.791  -8.885   9.597  0.00  0.00    +0.017 A 
BRANCH  30  33
ATOM     33  C   UNL     1      -8.189  -7.066   8.460  0.00  0.00    +0.173 C 
ATOM     34  C   UNL     1      -7.858  -6.315   8.375  0.00  0.00    +0.077 C 
ATOM     35  O   UNL     1      -8.924  -7.233   8.124  0.00  0.00    -0.291 OA
ENDBRANCH  30  33
ENDBRANCH  26  27
ENDBRANCH  19  23
TORSDOF 6
ENDMDL
