MODEL 1
REMARK VINA RESULT:      -7.1      0.000      0.000
REMARK  Name = 
REMARK  5 active torsions:
REMARK  status: ('A' for Active; 'I' for Inactive)
REMARK    1  A    between atoms: C_6  and  C_7
REMARK    2  A    between atoms: C_7  and  N_8
REMARK    3  A    between atoms: N_8  and  C_9
REMARK    4  A    between atoms: C_12  and  C_13
REMARK    5  A    between atoms: C_13  and  N_14
REMARK                            x       y       z     vdW  Elec       q    Type
REMARK                         _______ _______ _______ _____ _____    ______ ____
ROOT
ATOM      9  C   UNL     1      -2.840   1.084  24.453  0.00  0.00    +0.136 C 
ATOM     10  C   UNL     1      -2.061   1.214  24.218  0.00  0.00    +0.162 C 
ATOM     11  O   UNL     1      -1.854   1.983  24.434  0.00  0.00    -0.350 OA
ATOM     12  C   UNL     1      -2.506   2.328  24.804  0.00  0.00    +0.169 C 
ATOM     18  C   UNL     1      -3.116   1.772  24.816  0.00  0.00    +0.199 C 
ATOM     19  O   UNL     1      -3.868   1.885  25.134  0.00  0.00    -0.219 OA
ENDROOT
BRANCH   9   8
ATOM      8  N   UNL     1      -3.270   0.387  24.346  0.00  0.00    -0.206 NA
BRANCH   8   7
ATOM      7  C   UNL     1      -2.890  -0.343  24.401  0.00  0.00    +0.152 C 
BRANCH   7   6
ATOM      1  C   UNL     1      -2.343  -2.002  24.814  0.00  0.00    +0.132 C 
ATOM      2  N   UNL     1      -3.065  -1.801  24.469  0.00  0.00    -0.311 N 
ATOM      3  C   UNL     1      -3.662  -2.329  24.254  0.00  0.00    +0.098 A 
ATOM      4  C   UNL     1      -4.283  -1.892  23.931  0.00  0.00    +0.119 A 
ATOM      5  N   UNL     1      -4.069  -1.095  23.947  0.00  0.00    -0.228 NA
ATOM      6  C   UNL     1      -3.317  -1.039  24.280  0.00  0.00    +0.138 A 
ENDBRANCH   7   6
ENDBRANCH   8   7
ENDBRANCH   9   8
BRANCH  12  13
ATOM     13  C   UNL     1      -2.542   3.094  25.108  0.00  0.00    +0.147 C 
BRANCH  13  14
ATOM     14  N   UNL     1      -1.951   3.639  24.924  0.00  0.00    -0.203 NA
ATOM     15  C   UNL     1      -1.934   4.372  25.301  0.00  0.00    +0.242 C 
ATOM     16  C   UNL     1      -1.343   4.918  25.117  0.00  0.00    +0.096 C 
ATOM     17  O   UNL     1      -2.508   4.561  25.863  0.00  0.00    -0.273 OA
ENDBRANCH  13  14
ENDBRANCH  12  13
TORSDOF 5
ENDMDL
MODEL 2
REMARK VINA RESULT:      -7.0      1.358      4.943
REMARK  Name = 
REMARK  5 active torsions:
REMARK  status: ('A' for Active; 'I' for Inactive)
REMARK    1  A    between atoms: C_6  and  C_7
REMARK    2  A    between atoms: C_7  and  N_8
REMARK    3  A    between atoms: N_8  and  C_9
REMARK    4  A    between atoms: C_12  and  C_13
REMARK    5  A    between atoms: C_13  and  N_14
REMARK                            x       y       z     vdW  Elec       q    Type
REMARK                         _______ _______ _______ _____ _____    ______ ____
ROOT
ATOM      9  C   UNL     1      -2.588   1.287  24.616  0.00  0.00    +0.136 C 
ATOM     10  C   UNL     1      -3.268   1.275  24.148  0.00  0.00    +0.162 C 
ATOM     11  O   UNL     1      -3.542   0.497  24.117  0.00  0.00    -0.350 OA
ATOM     12  C   UNL     1      -3.032   0.028  24.565  0.00  0.00    +0.169 C 
ATOM     18  C   UNL     1      -2.442   0.516  24.873  0.00  0.00    +0.199 C 
ATOM     19  O   UNL     1      -1.817   0.277  25.354  0.00  0.00    -0.219 OA
ENDROOT
BRANCH   9   8
ATOM      8  N   UNL     1      -2.134   1.952  24.794  0.00  0.00    -0.206 NA
BRANCH   8   7
ATOM      7  C   UNL     1      -2.501   2.681  24.915  0.00  0.00    +0.152 C 
BRANCH   7   6
ATOM      1  C   UNL     1      -2.956   4.109  25.903  0.00  0.00    +0.132 C 
ATOM      2  N   UNL     1      -2.253   4.015  25.481  0.00  0.00    -0.311 N 
ATOM      3  C   UNL     1      -1.636   4.562  25.438  0.00  0.00    +0.098 A 
ATOM      4  C   UNL     1      -1.046   4.243  24.959  0.00  0.00    +0.119 A 
ATOM      5  N   UNL     1      -1.298   3.500  24.704  0.00  0.00    -0.228 NA
ATOM      6  C   UNL     1      -2.044   3.359  25.027  0.00  0.00    +0.138 A 
ENDBRANCH   7   6
ENDBRANCH   8   7
ENDBRANCH   9   8
BRANCH  12  13
ATOM     13  C   UNL     1      -3.099  -0.785  24.684  0.00  0.00    +0.147 C 
BRANCH  13  14
ATOM     14  N   UNL     1      -3.627  -1.226  24.229  0.00  0.00    -0.203 NA
ATOM     15  C   UNL     1      -3.709  -2.036  24.362  0.00  0.00    +0.242 C 
ATOM     16  C   UNL     1      -4.238  -2.478  23.907  0.00  0.00    +0.096 C 
ATOM     17  O   UNL     1      -3.263  -2.406  24.949  0.00  0.00    -0.273 OA
ENDBRANCH  13  14
ENDBRANCH  12  13
TORSDOF 5
ENDMDL
MODEL 3
REMARK VINA RESULT:      -6.7      2.069      4.778
REMARK  Name = 
REMARK  5 active torsions:
REMARK  status: ('A' for Active; 'I' for Inactive)
REMARK    1  A    between atoms: C_6  and  C_7
REMARK    2  A    between atoms: C_7  and  N_8
REMARK    3  A    between atoms: N_8  and  C_9
REMARK    4  A    between atoms: C_12  and  C_13
REMARK    5  A    between atoms: C_13  and  N_14
REMARK                            x       y       z     vdW  Elec       q    Type
REMARK                         _______ _______ _______ _____ _____    ______ ____
ROOT
ATOM      9  C   UNL     1      -4.109   0.743  24.603  0.00  0.00    +0.136 C 
ATOM     10  C   UNL     1      -3.670   0.700  23.906  0.00  0.00    +0.162 C 
ATOM     11  O   UNL     1      -3.387  -0.071  23.829  0.00  0.00    -0.350 OA
ATOM     12  C   UNL     1      -3.652  -0.506  24.479  0.00  0.00    +0.169 C 
ATOM     18  C   UNL     1      -4.098  -0.003  24.957  0.00  0.00    +0.199 C 
ATOM     19  O   UNL     1      -4.467  -0.208  25.665  0.00  0.00    -0.219 OA
ENDROOT
BRANCH   9   8
ATOM      8  N   UNL     1      -4.492   1.413  24.895  0.00  0.00    -0.206 NA
BRANCH   8   7
ATOM      7  C   UNL     1      -4.182   2.163  24.745  0.00  0.00    +0.152 C 
BRANCH   7   6
ATOM      1  C   UNL     1      -3.400   3.746  25.064  0.00  0.00    +0.132 C 
ATOM      2  N   UNL     1      -4.191   3.559  25.205  0.00  0.00    -0.311 N 
ATOM      3  C   UNL     1      -4.762   4.067  25.518  0.00  0.00    +0.098 A 
ATOM      4  C   UNL     1      -5.473   3.653  25.564  0.00  0.00    +0.119 A 
ATOM      5  N   UNL     1      -5.343   2.889  25.280  0.00  0.00    -0.228 NA
ATOM      6  C   UNL     1      -4.551   2.831  25.058  0.00  0.00    +0.138 A 
ENDBRANCH   7   6
ENDBRANCH   8   7
ENDBRANCH   9   8
BRANCH  12  13
ATOM     13  C   UNL     1      -3.497  -1.303  24.625  0.00  0.00    +0.147 C 
BRANCH  13  14
ATOM     14  N   UNL     1      -2.754  -1.617  24.455  0.00  0.00    -0.203 NA
ATOM     15  C   UNL     1      -2.612  -2.422  24.562  0.00  0.00    +0.242 C 
ATOM     16  C   UNL     1      -1.868  -2.736  24.391  0.00  0.00    +0.096 C 
ATOM     17  O   UNL     1      -3.213  -2.914  24.840  0.00  0.00    -0.273 OA
ENDBRANCH  13  14
ENDBRANCH  12  13
TORSDOF 5
ENDMDL
MODEL 4
REMARK VINA RESULT:      -6.6      2.367      3.920
REMARK  Name = 
REMARK  5 active torsions:
REMARK  status: ('A' for Active; 'I' for Inactive)
REMARK    1  A    between atoms: C_6  and  C_7
REMARK    2  A    between atoms: C_7  and  N_8
REMARK    3  A    between atoms: N_8  and  C_9
REMARK    4  A    between atoms: C_12  and  C_13
REMARK    5  A    between atoms: C_13  and  N_14
REMARK                            x       y       z     vdW  Elec       q    Type
REMARK                         _______ _______ _______ _____ _____    ______ ____
ROOT
ATOM      9  C   UNL     1      -2.777   1.318  24.286  0.00  0.00    +0.136 C 
ATOM     10  C   UNL     1      -2.405   1.781  23.714  0.00  0.00    +0.162 C 
ATOM     11  O   UNL     1      -1.660   1.455  23.568  0.00  0.00    -0.350 OA
ATOM     12  C   UNL     1      -1.573   0.792  24.051  0.00  0.00    +0.169 C 
ATOM     18  C   UNL     1      -2.264   0.707  24.495  0.00  0.00    +0.199 C 
ATOM     19  O   UNL     1      -2.414   0.115  25.049  0.00  0.00    -0.219 OA
ENDROOT
BRANCH   9   8
ATOM      8  N   UNL     1      -3.532   1.445  24.596  0.00  0.00    -0.206 NA
BRANCH   8   7
ATOM      7  C   UNL     1      -3.813   2.214  24.695  0.00  0.00    +0.152 C 
BRANCH   7   6
ATOM      1  C   UNL     1      -4.347   3.644  25.640  0.00  0.00    +0.132 C 
ATOM      2  N   UNL     1      -4.816   2.998  25.431  0.00  0.00    -0.311 N 
ATOM      3  C   UNL     1      -5.613   2.895  25.620  0.00  0.00    +0.098 A 
ATOM      4  C   UNL     1      -5.859   2.175  25.303  0.00  0.00    +0.119 A 
ATOM      5  N   UNL     1      -5.215   1.832  24.918  0.00  0.00    -0.228 NA
ATOM      6  C   UNL     1      -4.570   2.341  24.997  0.00  0.00    +0.138 A 
ENDBRANCH   7   6
ENDBRANCH   8   7
ENDBRANCH   9   8
BRANCH  12  13
ATOM     13  C   UNL     1      -0.912   0.299  24.084  0.00  0.00    +0.147 C 
BRANCH  13  14
ATOM     14  N   UNL     1      -0.267   0.443  23.591  0.00  0.00    -0.203 NA
ATOM     15  C   UNL     1       0.344  -0.109  23.541  0.00  0.00    +0.242 C 
ATOM     16  C   UNL     1       0.991   0.034  23.048  0.00  0.00    +0.096 C 
ATOM     17  O   UNL     1       0.310  -0.805  23.983  0.00  0.00    -0.273 OA
ENDBRANCH  13  14
ENDBRANCH  12  13
TORSDOF 5
ENDMDL
MODEL 5
REMARK VINA RESULT:      -6.5      1.972      2.250
REMARK  Name = 
REMARK  5 active torsions:
REMARK  status: ('A' for Active; 'I' for Inactive)
REMARK    1  A    between atoms: C_6  and  C_7
REMARK    2  A    between atoms: C_7  and  N_8
REMARK    3  A    between atoms: N_8  and  C_9
REMARK    4  A    between atoms: C_12  and  C_13
REMARK    5  A    between atoms: C_13  and  N_14
REMARK                            x       y       z     vdW  Elec       q    Type
REMARK                         _______ _______ _______ _____ _____    ______ ____
ROOT
ATOM      9  C   UNL     1      -3.469   0.411  24.514  0.00  0.00    +0.136 C 
ATOM     10  C   UNL     1      -3.152   1.050  24.099  0.00  0.00    +0.162 C 
ATOM     11  O   UNL     1      -3.616   1.714  24.259  0.00  0.00    -0.350 OA
ATOM     12  C   UNL     1      -4.220   1.484  24.772  0.00  0.00    +0.169 C 
ATOM     18  C   UNL     1      -4.129   0.680  24.930  0.00  0.00    +0.199 C 
ATOM     19  O   UNL     1      -4.613   0.223  25.417  0.00  0.00    -0.219 OA
ENDROOT
BRANCH   9   8
ATOM      8  N   UNL     1      -3.176  -0.360  24.513  0.00  0.00    -0.206 NA
BRANCH   8   7
ATOM      7  C   UNL     1      -2.366  -0.494  24.592  0.00  0.00    +0.152 C 
BRANCH   7   6
ATOM      1  C   UNL     1      -0.686  -0.987  24.987  0.00  0.00    +0.132 C 
ATOM      2  N   UNL     1      -1.302  -1.492  24.773  0.00  0.00    -0.311 N 
ATOM      3  C   UNL     1      -1.254  -2.313  24.704  0.00  0.00    +0.098 A 
ATOM      4  C   UNL     1      -1.996  -2.594  24.479  0.00  0.00    +0.119 A 
ATOM      5  N   UNL     1      -2.503  -1.947  24.410  0.00  0.00    -0.228 NA
ATOM      6  C   UNL     1      -2.074  -1.266  24.592  0.00  0.00    +0.138 A 
ENDBRANCH   7   6
ENDBRANCH   8   7
ENDBRANCH   9   8
BRANCH  12  13
ATOM     13  C   UNL     1      -4.811   1.974  25.075  0.00  0.00    +0.147 C 
BRANCH  13  14
ATOM     14  N   UNL     1      -4.700   2.790  25.097  0.00  0.00    -0.203 NA
ATOM     15  C   UNL     1      -5.251   3.272  25.476  0.00  0.00    +0.242 C 
ATOM     16  C   UNL     1      -5.139   4.090  25.498  0.00  0.00    +0.096 C 
ATOM     17  O   UNL     1      -5.915   2.937  25.834  0.00  0.00    -0.273 OA
ENDBRANCH  13  14
ENDBRANCH  12  13
TORSDOF 5
ENDMDL
