REMARK  Name = 
REMARK  9 active torsions:
REMARK  status: ('A' for Active; 'I' for Inactive)
REMARK    1  A    between atoms: N_2  and  C_4
REMARK    2  A    between atoms: C_4  and  C_5
REMARK    3  A    between atoms: C_5  and  N_6
REMARK    4  A    between atoms: N_6  and  C_8
REMARK    5  A    between atoms: C_8  and  C_9
REMARK    6  A    between atoms: C_16  and  C_17
REMARK    7  A    between atoms: C_17  and  N_18
REMARK    8  A    between atoms: C_19  and  C_21
REMARK    9  A    between atoms: C_24  and  N_27
REMARK                            x       y       z     vdW  Elec       q    Type
REMARK                         _______ _______ _______ _____ _____    ______ ____
ROOT
ATOM      9  C   UNL     1       1.661  -1.343   0.000  0.00  0.00    +0.032 C 
ATOM     10  C   UNL     1       1.814  -2.106   0.000  0.00  0.00    +0.073 C 
ATOM     11  N   UNL     1       1.065  -1.759   0.000  0.00  0.00    -0.272 NA
ATOM     12  C   UNL     1       1.205  -0.720   0.000  0.00  0.00    +0.072 C 
ATOM     13  C   UNL     1       0.961  -0.114   0.000  0.00  0.00    +0.017 C 
ATOM     14  C   UNL     1       0.923  -1.010   0.000  0.00  0.00    +0.005 C 
ATOM     15  C   UNL     1       0.119  -1.362   0.000  0.00  0.00    +0.018 C 
ATOM     16  C   UNL     1       0.226  -2.118   0.000  0.00  0.00    +0.079 C 
ENDROOT
BRANCH   9   8
ATOM      8  C   UNL     1       2.307  -0.828   0.000  0.00  0.00    +0.074 C 
BRANCH   8   6
ATOM      6  N   UNL     1       3.075  -1.130   0.000  0.00  0.00    -0.270 NA
ATOM      7  C   UNL     1       3.720  -0.616   0.000  0.00  0.00    +0.090 C 
BRANCH   6   5
ATOM      5  C   UNL     1       3.197  -1.946   0.000  0.00  0.00    +0.090 C 
BRANCH   5   4
ATOM      4  C   UNL     1       3.965  -2.248   0.000  0.00  0.00    +0.090 C 
BRANCH   4   2
ATOM      1  C   UNL     1       4.855  -3.365   0.000  0.00  0.00    +0.090 C 
ATOM      2  N   UNL     1       4.087  -3.064   0.000  0.00  0.00    -0.269 NA
ATOM      3  C   UNL     1       3.442  -3.578   0.000  0.00  0.00    +0.090 C 
ENDBRANCH   4   2
ENDBRANCH   5   4
ENDBRANCH   6   5
ENDBRANCH   8   6
ENDBRANCH   9   8
BRANCH  16  17
ATOM     17  C   UNL     1      -0.179  -2.836   0.000  0.00  0.00    +0.131 C 
BRANCH  17  18
ATOM     18  N   UNL     1      -1.004  -2.845   0.000  0.00  0.00    -0.200 NA
ATOM     19  C   UNL     1      -1.408  -3.564   0.000  0.00  0.00    +0.265 C 
ATOM     20  O   UNL     1      -0.988  -4.274   0.000  0.00  0.00    -0.268 OA
BRANCH  19  21
ATOM     21  C   UNL     1      -2.233  -3.573   0.000  0.00  0.00    +0.055 A 
ATOM     22  C   UNL     1      -2.638  -4.292   0.000  0.00  0.00    +0.006 A 
ATOM     23  C   UNL     1      -3.463  -4.301   0.000  0.00  0.00    +0.015 A 
ATOM     24  C   UNL     1      -3.883  -3.591   0.000  0.00  0.00    +0.048 A 
ATOM     25  C   UNL     1      -3.478  -2.872   0.000  0.00  0.00    +0.015 A 
ATOM     26  C   UNL     1      -2.654  -2.863   0.000  0.00  0.00    +0.006 A 
BRANCH  24  27
ATOM     27  N   UNL     1      -4.708  -3.599   0.000  0.00  0.00    -0.304 N 
ATOM     28  C   UNL     1      -5.113  -4.318   0.000  0.00  0.00    +0.112 C 
ATOM     29  C   UNL     1      -5.128  -2.889   0.000  0.00  0.00    +0.112 C 
ENDBRANCH  24  27
ENDBRANCH  19  21
ENDBRANCH  17  18
ENDBRANCH  16  17
TORSDOF 9
