MODEL 1
REMARK VINA RESULT:     -13.6      0.000      0.000
REMARK  Name = 
REMARK  6 active torsions:
REMARK  status: ('A' for Active; 'I' for Inactive)
REMARK    1  A    between atoms: C_4  and  C_20
REMARK    2  A    between atoms: C_5  and  N_6
REMARK    3  A    between atoms: N_6  and  S_7
REMARK    4  A    between atoms: S_7  and  C_10
REMARK    5  A    between atoms: C_14  and  C_16
REMARK    6  A    between atoms: C_23  and  C_26
REMARK                            x       y       z     vdW  Elec       q    Type
REMARK                         _______ _______ _______ _____ _____    ______ ____
ROOT
ATOM      1  O   UNL     1      -5.637   2.491  25.232  0.00  0.00    -0.220 OA
ATOM      2  C   UNL     1      -5.038   1.972  24.999  0.00  0.00    +0.184 C 
ATOM      3  C   UNL     1      -5.077   1.149  25.017  0.00  0.00    +0.041 C 
ATOM      4  C   UNL     1      -4.359   0.854  24.736  0.00  0.00    +0.045 C 
ATOM      5  C   UNL     1      -3.877   1.495  24.545  0.00  0.00    +0.135 C 
ATOM     18  C   UNL     1      -4.297   2.187  24.707  0.00  0.00    +0.200 C 
ATOM     19  O   UNL     1      -4.023   2.957  24.596  0.00  0.00    -0.219 OA
ENDROOT
BRANCH   4  20
ATOM     20  C   UNL     1      -4.158   0.057  24.660  0.00  0.00    -0.021 A 
ATOM     21  C   UNL     1      -3.994  -0.392  25.333  0.00  0.00    -0.004 A 
ATOM     22  C   UNL     1      -3.793  -1.189  25.257  0.00  0.00    +0.004 A 
ATOM     23  C   UNL     1      -3.756  -1.536  24.510  0.00  0.00    +0.071 A 
ATOM     24  C   UNL     1      -3.919  -1.086  23.837  0.00  0.00    +0.004 A 
ATOM     25  C   UNL     1      -4.120  -0.289  23.913  0.00  0.00    -0.004 A 
BRANCH  23  26
ATOM     26  C   UNL     1      -3.555  -2.333  24.434  0.00  0.00    +0.419 C 
ATOM     27  F   UNL     1      -3.353  -3.129  24.358  0.00  0.00    -0.166 F 
ATOM     28  F   UNL     1      -4.319  -2.501  24.172  0.00  0.00    -0.166 F 
ATOM     29  F   UNL     1      -2.791  -2.165  24.696  0.00  0.00    -0.166 F 
ENDBRANCH  23  26
ENDBRANCH   4  20
BRANCH   5   6
ATOM      6  N   UNL     1      -3.109   1.453  24.244  0.00  0.00    -0.076 NA
BRANCH   6   7
ATOM      7  S   UNL     1      -2.503   1.884  24.600  0.00  0.00    +0.077 S 
ATOM      8  O   UNL     1      -2.333   2.243  23.876  0.00  0.00    -0.152 OA
ATOM      9  O   UNL     1      -2.673   1.526  25.323  0.00  0.00    -0.152 OA
BRANCH   7  10
ATOM     10  C   UNL     1      -1.896   2.316  24.956  0.00  0.00    +0.124 A 
ATOM     11  C   UNL     1      -1.320   1.928  25.401  0.00  0.00    +0.020 A 
ATOM     12  C   UNL     1      -0.714   2.360  25.756  0.00  0.00    +0.002 A 
ATOM     13  C   UNL     1      -0.684   3.180  25.666  0.00  0.00    +0.010 A 
ATOM     14  C   UNL     1      -1.260   3.567  25.222  0.00  0.00    +0.070 A 
ATOM     15  C   UNL     1      -1.867   3.135  24.866  0.00  0.00    +0.030 A 
BRANCH  14  16
ATOM     16  C   UNL     1      -1.230   4.387  25.133  0.00  0.00    +0.100 C 
ATOM     17  N   UNL     1      -1.200   5.206  25.044  0.00  0.00    -0.191 NA
ENDBRANCH  14  16
ENDBRANCH   7  10
ENDBRANCH   6   7
ENDBRANCH   5   6
TORSDOF 6
ENDMDL
MODEL 2
REMARK VINA RESULT:     -13.4      2.680      4.697
REMARK  Name = 
REMARK  6 active torsions:
REMARK  status: ('A' for Active; 'I' for Inactive)
REMARK    1  A    between atoms: C_4  and  C_20
REMARK    2  A    between atoms: C_5  and  N_6
REMARK    3  A    between atoms: N_6  and  S_7
REMARK    4  A    between atoms: S_7  and  C_10
REMARK    5  A    between atoms: C_14  and  C_16
REMARK    6  A    between atoms: C_23  and  C_26
REMARK                            x       y       z     vdW  Elec       q    Type
REMARK                         _______ _______ _______ _____ _____    ______ ____
ROOT
ATOM      1  O   UNL     1      -6.235   2.597  25.555  0.00  0.00    -0.220 OA
ATOM      2  C   UNL     1      -5.438   2.578  25.337  0.00  0.00    +0.184 C 
ATOM      3  C   UNL     1      -4.889   3.180  25.457  0.00  0.00    +0.041 C 
ATOM      4  C   UNL     1      -4.164   2.928  25.155  0.00  0.00    +0.045 C 
ATOM      5  C   UNL     1      -4.266   2.168  24.849  0.00  0.00    +0.135 C 
ATOM     18  C   UNL     1      -5.054   1.952  24.961  0.00  0.00    +0.200 C 
ATOM     19  O   UNL     1      -5.396   1.235  24.737  0.00  0.00    -0.219 OA
ENDROOT
BRANCH   4  20
ATOM     20  C   UNL     1      -3.460   3.359  25.159  0.00  0.00    -0.021 A 
ATOM     21  C   UNL     1      -3.167   3.675  24.456  0.00  0.00    -0.004 A 
ATOM     22  C   UNL     1      -2.463   4.106  24.460  0.00  0.00    +0.004 A 
ATOM     23  C   UNL     1      -2.053   4.220  25.166  0.00  0.00    +0.071 A 
ATOM     24  C   UNL     1      -2.346   3.903  25.869  0.00  0.00    +0.004 A 
ATOM     25  C   UNL     1      -3.050   3.472  25.866  0.00  0.00    -0.004 A 
BRANCH  23  26
ATOM     26  C   UNL     1      -1.349   4.651  25.169  0.00  0.00    +0.419 C 
ATOM     27  F   UNL     1      -0.645   5.081  25.173  0.00  0.00    -0.166 F 
ATOM     28  F   UNL     1      -1.761   5.322  25.415  0.00  0.00    -0.166 F 
ATOM     29  F   UNL     1      -0.937   3.979  24.924  0.00  0.00    -0.166 F 
ENDBRANCH  23  26
ENDBRANCH   4  20
BRANCH   5   6
ATOM      6  N   UNL     1      -3.682   1.707  24.493  0.00  0.00    -0.076 NA
BRANCH   6   7
ATOM      7  S   UNL     1      -3.622   0.905  24.676  0.00  0.00    +0.077 S 
ATOM      8  O   UNL     1      -3.867   0.712  23.912  0.00  0.00    -0.152 OA
ATOM      9  O   UNL     1      -3.377   1.097  25.440  0.00  0.00    -0.152 OA
BRANCH   7  10
ATOM     10  C   UNL     1      -3.563   0.102  24.859  0.00  0.00    +0.124 A 
ATOM     11  C   UNL     1      -3.198  -0.136  25.561  0.00  0.00    +0.020 A 
ATOM     12  C   UNL     1      -3.139  -0.938  25.742  0.00  0.00    +0.002 A 
ATOM     13  C   UNL     1      -3.444  -1.503  25.224  0.00  0.00    +0.010 A 
ATOM     14  C   UNL     1      -3.808  -1.265  24.523  0.00  0.00    +0.070 A 
ATOM     15  C   UNL     1      -3.868  -0.462  24.340  0.00  0.00    +0.030 A 
BRANCH  14  16
ATOM     16  C   UNL     1      -4.113  -1.830  24.004  0.00  0.00    +0.100 C 
ATOM     17  N   UNL     1      -4.418  -2.394  23.486  0.00  0.00    -0.191 NA
ENDBRANCH  14  16
ENDBRANCH   7  10
ENDBRANCH   6   7
ENDBRANCH   5   6
TORSDOF 6
ENDMDL
MODEL 3
REMARK VINA RESULT:     -12.7      1.701      2.769
REMARK  Name = 
REMARK  6 active torsions:
REMARK  status: ('A' for Active; 'I' for Inactive)
REMARK    1  A    between atoms: C_4  and  C_20
REMARK    2  A    between atoms: C_5  and  N_6
REMARK    3  A    between atoms: N_6  and  S_7
REMARK    4  A    between atoms: S_7  and  C_10
REMARK    5  A    between atoms: C_14  and  C_16
REMARK    6  A    between atoms: C_23  and  C_26
REMARK                            x       y       z     vdW  Elec       q    Type
REMARK                         _______ _______ _______ _____ _____    ______ ____
ROOT
ATOM      1  O   UNL     1      -0.396   1.188  25.940  0.00  0.00    -0.220 OA
ATOM      2  C   UNL     1      -1.033   0.847  25.539  0.00  0.00    +0.184 C 
ATOM      3  C   UNL     1      -1.288   0.067  25.610  0.00  0.00    +0.041 C 
ATOM      4  C   UNL     1      -1.939  -0.035  25.113  0.00  0.00    +0.045 C 
ATOM      5  C   UNL     1      -2.085   0.683  24.735  0.00  0.00    +0.135 C 
ATOM     18  C   UNL     1      -1.525   1.229  24.999  0.00  0.00    +0.200 C 
ATOM     19  O   UNL     1      -1.469   2.018  24.762  0.00  0.00    -0.219 OA
ENDROOT
BRANCH   4  20
ATOM     20  C   UNL     1      -2.367  -0.733  25.011  0.00  0.00    -0.021 A 
ATOM     21  C   UNL     1      -2.213  -1.220  24.364  0.00  0.00    -0.004 A 
ATOM     22  C   UNL     1      -2.642  -1.918  24.262  0.00  0.00    +0.004 A 
ATOM     23  C   UNL     1      -3.223  -2.128  24.807  0.00  0.00    +0.071 A 
ATOM     24  C   UNL     1      -3.378  -1.641  25.455  0.00  0.00    +0.004 A 
ATOM     25  C   UNL     1      -2.949  -0.943  25.557  0.00  0.00    -0.004 A 
BRANCH  23  26
ATOM     26  C   UNL     1      -3.652  -2.826  24.705  0.00  0.00    +0.419 C 
ATOM     27  F   UNL     1      -4.080  -3.524  24.604  0.00  0.00    -0.166 F 
ATOM     28  F   UNL     1      -3.992  -2.518  24.019  0.00  0.00    -0.166 F 
ATOM     29  F   UNL     1      -3.313  -3.134  25.391  0.00  0.00    -0.166 F 
ENDBRANCH  23  26
ENDBRANCH   4  20
BRANCH   5   6
ATOM      6  N   UNL     1      -2.687   0.830  24.189  0.00  0.00    -0.076 NA
BRANCH   6   7
ATOM      7  S   UNL     1      -3.150   1.509  24.259  0.00  0.00    +0.077 S 
ATOM      8  O   UNL     1      -2.872   1.774  23.528  0.00  0.00    -0.152 OA
ATOM      9  O   UNL     1      -3.428   1.245  24.989  0.00  0.00    -0.152 OA
BRANCH   7  10
ATOM     10  C   UNL     1      -3.613   2.189  24.328  0.00  0.00    +0.124 A 
ATOM     11  C   UNL     1      -3.500   2.820  23.808  0.00  0.00    +0.020 A 
ATOM     12  C   UNL     1      -3.963   3.498  23.878  0.00  0.00    +0.002 A 
ATOM     13  C   UNL     1      -4.539   3.547  24.468  0.00  0.00    +0.010 A 
ATOM     14  C   UNL     1      -4.651   2.916  24.987  0.00  0.00    +0.070 A 
ATOM     15  C   UNL     1      -4.188   2.237  24.918  0.00  0.00    +0.030 A 
BRANCH  14  16
ATOM     16  C   UNL     1      -5.227   2.965  25.576  0.00  0.00    +0.100 C 
ATOM     17  N   UNL     1      -5.802   3.015  26.165  0.00  0.00    -0.191 NA
ENDBRANCH  14  16
ENDBRANCH   7  10
ENDBRANCH   6   7
ENDBRANCH   5   6
TORSDOF 6
ENDMDL
MODEL 4
REMARK VINA RESULT:     -12.6      2.867      5.336
REMARK  Name = 
REMARK  6 active torsions:
REMARK  status: ('A' for Active; 'I' for Inactive)
REMARK    1  A    between atoms: C_4  and  C_20
REMARK    2  A    between atoms: C_5  and  N_6
REMARK    3  A    between atoms: N_6  and  S_7
REMARK    4  A    between atoms: S_7  and  C_10
REMARK    5  A    between atoms: C_14  and  C_16
REMARK    6  A    between atoms: C_23  and  C_26
REMARK                            x       y       z     vdW  Elec       q    Type
REMARK                         _______ _______ _______ _____ _____    ______ ____
ROOT
ATOM      1  O   UNL     1       0.642   0.070  23.411  0.00  0.00    -0.220 OA
ATOM      2  C   UNL     1       0.104   0.512  23.855  0.00  0.00    +0.184 C 
ATOM      3  C   UNL     1       0.100   1.332  23.935  0.00  0.00    +0.041 C 
ATOM      4  C   UNL     1      -0.530   1.537  24.427  0.00  0.00    +0.045 C 
ATOM      5  C   UNL     1      -0.915   0.843  24.651  0.00  0.00    +0.135 C 
ATOM     18  C   UNL     1      -0.523   0.208  24.298  0.00  0.00    +0.200 C 
ATOM     19  O   UNL     1      -0.724  -0.588  24.374  0.00  0.00    -0.219 OA
ENDROOT
BRANCH   4  20
ATOM     20  C   UNL     1      -0.739   2.303  24.655  0.00  0.00    -0.021 A 
ATOM     21  C   UNL     1      -1.105   2.807  24.115  0.00  0.00    -0.004 A 
ATOM     22  C   UNL     1      -1.314   3.573  24.343  0.00  0.00    +0.004 A 
ATOM     23  C   UNL     1      -1.156   3.832  25.109  0.00  0.00    +0.071 A 
ATOM     24  C   UNL     1      -0.789   3.327  25.650  0.00  0.00    +0.004 A 
ATOM     25  C   UNL     1      -0.580   2.562  25.422  0.00  0.00    -0.004 A 
BRANCH  23  26
ATOM     26  C   UNL     1      -1.365   4.598  25.337  0.00  0.00    +0.419 C 
ATOM     27  F   UNL     1      -1.573   5.363  25.565  0.00  0.00    -0.166 F 
ATOM     28  F   UNL     1      -2.044   4.304  25.702  0.00  0.00    -0.166 F 
ATOM     29  F   UNL     1      -0.686   4.891  24.973  0.00  0.00    -0.166 F 
ENDBRANCH  23  26
ENDBRANCH   4  20
BRANCH   5   6
ATOM      6  N   UNL     1      -1.576   0.792  25.143  0.00  0.00    -0.076 NA
BRANCH   6   7
ATOM      7  S   UNL     1      -2.218   0.323  24.922  0.00  0.00    +0.077 S 
ATOM      8  O   UNL     1      -2.121  -0.131  25.604  0.00  0.00    -0.152 OA
ATOM      9  O   UNL     1      -2.315   0.776  24.240  0.00  0.00    -0.152 OA
BRANCH   7  10
ATOM     10  C   UNL     1      -2.860  -0.146  24.701  0.00  0.00    +0.124 A 
ATOM     11  C   UNL     1      -3.498   0.189  24.300  0.00  0.00    +0.020 A 
ATOM     12  C   UNL     1      -4.139  -0.281  24.080  0.00  0.00    +0.002 A 
ATOM     13  C   UNL     1      -4.143  -1.086  24.261  0.00  0.00    +0.010 A 
ATOM     14  C   UNL     1      -3.505  -1.421  24.663  0.00  0.00    +0.070 A 
ATOM     15  C   UNL     1      -2.863  -0.951  24.883  0.00  0.00    +0.030 A 
BRANCH  14  16
ATOM     16  C   UNL     1      -3.509  -2.226  24.844  0.00  0.00    +0.100 C 
ATOM     17  N   UNL     1      -3.513  -3.030  25.026  0.00  0.00    -0.191 NA
ENDBRANCH  14  16
ENDBRANCH   7  10
ENDBRANCH   6   7
ENDBRANCH   5   6
TORSDOF 6
ENDMDL
