MODEL 1
REMARK VINA RESULT:      -8.9      0.000      0.000
REMARK  Name = 
REMARK  6 active torsions:
REMARK  status: ('A' for Active; 'I' for Inactive)
REMARK    1  A    between atoms: C_2  and  C_4
REMARK    2  A    between atoms: C_6  and  C_7
REMARK    3  A    between atoms: C_7  and  C_8
REMARK    4  A    between atoms: C_22  and  C_23
REMARK    5  A    between atoms: C_23  and  N_24
REMARK    6  A    between atoms: C_25  and  C_27
REMARK                            x       y       z     vdW  Elec       q    Type
REMARK                         _______ _______ _______ _____ _____    ______ ____
ROOT
ATOM      4  C   UNL     1      -1.871  -0.076  24.753  0.00  0.00    +0.006 C 
ATOM      5  C   UNL     1      -1.087   0.049  24.525  0.00  0.00    +0.005 C 
ATOM      6  C   UNL     1      -0.878   0.742  24.130  0.00  0.00    +0.027 C 
ATOM     19  C   UNL     1      -1.453   1.310  23.962  0.00  0.00    -0.048 C 
ATOM     20  C   UNL     1      -1.244   2.003  23.566  0.00  0.00    +0.026 C 
ATOM     21  C   UNL     1      -2.235   1.185  24.189  0.00  0.00    -0.033 C 
ATOM     22  C   UNL     1      -2.444   0.492  24.585  0.00  0.00    +0.043 C 
ENDROOT
BRANCH   4   2
ATOM      1  C   UNL     1      -2.387  -1.408  24.727  0.00  0.00    +0.000 C 
ATOM      2  C   UNL     1      -2.080  -0.769  25.149  0.00  0.00    +0.000 C 
ATOM      3  C   UNL     1      -1.983  -0.823  25.966  0.00  0.00    +0.000 C 
ENDBRANCH   4   2
BRANCH   6   7
ATOM      7  C   UNL     1      -0.096   0.866  23.902  0.00  0.00    +0.089 C 
BRANCH   7   8
ATOM      8  C   UNL     1       0.275   0.335  23.391  0.00  0.00    +0.226 C 
ATOM      9  O   UNL     1      -0.155  -0.284  23.056  0.00  0.00    -0.275 OA
ATOM     10  N   UNL     1       1.076   0.424  23.213  0.00  0.00    -0.276 N 
ATOM     11  C   UNL     1       1.506   1.043  23.548  0.00  0.00    +0.115 C 
ATOM     12  C   UNL     1       2.308   1.131  23.371  0.00  0.00    +0.115 C 
ATOM     13  N   UNL     1       2.678   0.600  22.859  0.00  0.00    -0.276 N 
ATOM     14  C   UNL     1       2.247  -0.019  22.525  0.00  0.00    +0.115 C 
ATOM     15  C   UNL     1       1.446  -0.107  22.702  0.00  0.00    +0.115 C 
ATOM     16  C   UNL     1       3.478   0.688  22.682  0.00  0.00    +0.226 C 
ATOM     17  C   UNL     1       3.849   0.157  22.171  0.00  0.00    +0.095 C 
ATOM     18  O   UNL     1       3.909   1.307  23.016  0.00  0.00    -0.275 OA
ENDBRANCH   7   8
ENDBRANCH   6   7
BRANCH  22  23
ATOM     23  C   UNL     1      -3.228   0.367  24.813  0.00  0.00    +0.120 C 
BRANCH  23  24
ATOM     24  N   UNL     1      -3.711   1.010  24.999  0.00  0.00    -0.199 NA
ATOM     25  C   UNL     1      -4.531   0.923  24.997  0.00  0.00    +0.299 C 
ATOM     26  O   UNL     1      -4.869   0.193  24.810  0.00  0.00    -0.265 OA
BRANCH  25  27
ATOM     27  C   UNL     1      -5.014   1.565  25.183  0.00  0.00    +0.200 A 
ATOM     28  C   UNL     1      -5.797   1.668  24.943  0.00  0.00    +0.046 A 
ATOM     29  C   UNL     1      -6.067   2.384  25.253  0.00  0.00    +0.044 A 
ATOM     30  C   UNL     1      -5.450   2.723  25.685  0.00  0.00    +0.180 A 
ATOM     31  O   UNL     1      -4.800   2.217  25.641  0.00  0.00    -0.446 OA
ENDBRANCH  25  27
ENDBRANCH  23  24
ENDBRANCH  22  23
TORSDOF 6
ENDMDL
MODEL 2
REMARK VINA RESULT:      -8.5      0.987      6.184
REMARK  Name = 
REMARK  6 active torsions:
REMARK  status: ('A' for Active; 'I' for Inactive)
REMARK    1  A    between atoms: C_2  and  C_4
REMARK    2  A    between atoms: C_6  and  C_7
REMARK    3  A    between atoms: C_7  and  C_8
REMARK    4  A    between atoms: C_22  and  C_23
REMARK    5  A    between atoms: C_23  and  N_24
REMARK    6  A    between atoms: C_25  and  C_27
REMARK                            x       y       z     vdW  Elec       q    Type
REMARK                         _______ _______ _______ _____ _____    ______ ____
ROOT
ATOM      4  C   UNL     1      -0.943  -0.019  24.276  0.00  0.00    +0.006 C 
ATOM      5  C   UNL     1      -1.619   0.414  24.471  0.00  0.00    +0.005 C 
ATOM      6  C   UNL     1      -1.722   1.176  24.172  0.00  0.00    +0.027 C 
ATOM     19  C   UNL     1      -1.148   1.506  23.679  0.00  0.00    -0.048 C 
ATOM     20  C   UNL     1      -1.251   2.268  23.380  0.00  0.00    +0.026 C 
ATOM     21  C   UNL     1      -0.473   1.074  23.484  0.00  0.00    -0.033 C 
ATOM     22  C   UNL     1      -0.370   0.312  23.783  0.00  0.00    +0.043 C 
ENDROOT
BRANCH   4   2
ATOM      1  C   UNL     1      -1.045  -1.434  24.116  0.00  0.00    +0.000 C 
ATOM      2  C   UNL     1      -0.840  -0.781  24.575  0.00  0.00    +0.000 C 
ATOM      3  C   UNL     1      -0.532  -0.888  25.333  0.00  0.00    +0.000 C 
ENDBRANCH   4   2
BRANCH   6   7
ATOM      7  C   UNL     1      -2.397   1.607  24.367  0.00  0.00    +0.089 C 
BRANCH   7   8
ATOM      8  C   UNL     1      -3.144   1.283  24.236  0.00  0.00    +0.226 C 
ATOM      9  O   UNL     1      -3.237   0.658  23.706  0.00  0.00    -0.275 OA
ATOM     10  N   UNL     1      -3.800   1.585  24.636  0.00  0.00    -0.276 N 
ATOM     11  C   UNL     1      -3.708   2.210  25.166  0.00  0.00    +0.115 C 
ATOM     12  C   UNL     1      -4.364   2.512  25.567  0.00  0.00    +0.115 C 
ATOM     13  N   UNL     1      -5.112   2.189  25.436  0.00  0.00    -0.276 N 
ATOM     14  C   UNL     1      -5.203   1.564  24.905  0.00  0.00    +0.115 C 
ATOM     15  C   UNL     1      -4.548   1.262  24.506  0.00  0.00    +0.115 C 
ATOM     16  C   UNL     1      -5.766   2.491  25.836  0.00  0.00    +0.226 C 
ATOM     17  C   UNL     1      -6.514   2.167  25.705  0.00  0.00    +0.095 C 
ATOM     18  O   UNL     1      -5.675   3.115  26.366  0.00  0.00    -0.275 OA
ENDBRANCH   7   8
ENDBRANCH   6   7
BRANCH  22  23
ATOM     23  C   UNL     1       0.306  -0.120  23.589  0.00  0.00    +0.120 C 
BRANCH  23  24
ATOM     24  N   UNL     1       1.025   0.268  23.475  0.00  0.00    -0.199 NA
ATOM     25  C   UNL     1       1.592  -0.055  22.971  0.00  0.00    +0.299 C 
ATOM     26  O   UNL     1       1.441  -0.766  22.581  0.00  0.00    -0.265 OA
BRANCH  25  27
ATOM     27  C   UNL     1       2.311   0.333  22.857  0.00  0.00    +0.200 A 
ATOM     28  C   UNL     1       2.908   0.104  22.335  0.00  0.00    +0.046 A 
ATOM     29  C   UNL     1       3.526   0.648  22.400  0.00  0.00    +0.044 A 
ATOM     30  C   UNL     1       3.311   1.212  22.963  0.00  0.00    +0.180 A 
ATOM     31  O   UNL     1       2.560   1.017  23.245  0.00  0.00    -0.446 OA
ENDBRANCH  25  27
ENDBRANCH  23  24
ENDBRANCH  22  23
TORSDOF 6
ENDMDL
MODEL 3
REMARK VINA RESULT:      -8.3      1.329      1.784
REMARK  Name = 
REMARK  6 active torsions:
REMARK  status: ('A' for Active; 'I' for Inactive)
REMARK    1  A    between atoms: C_2  and  C_4
REMARK    2  A    between atoms: C_6  and  C_7
REMARK    3  A    between atoms: C_7  and  C_8
REMARK    4  A    between atoms: C_22  and  C_23
REMARK    5  A    between atoms: C_23  and  N_24
REMARK    6  A    between atoms: C_25  and  C_27
REMARK                            x       y       z     vdW  Elec       q    Type
REMARK                         _______ _______ _______ _____ _____    ______ ____
ROOT
ATOM      4  C   UNL     1      -2.225   1.837  23.436  0.00  0.00    +0.006 C 
ATOM      5  C   UNL     1      -1.449   1.565  23.515  0.00  0.00    +0.005 C 
ATOM      6  C   UNL     1      -1.103   1.517  24.263  0.00  0.00    +0.027 C 
ATOM     19  C   UNL     1      -1.532   1.741  24.931  0.00  0.00    -0.048 C 
ATOM     20  C   UNL     1      -1.186   1.694  25.678  0.00  0.00    +0.026 C 
ATOM     21  C   UNL     1      -2.306   2.013  24.852  0.00  0.00    -0.033 C 
ATOM     22  C   UNL     1      -2.653   2.061  24.105  0.00  0.00    +0.043 C 
ENDROOT
BRANCH   4   2
ATOM      1  C   UNL     1      -2.490   2.571  22.240  0.00  0.00    +0.000 C 
ATOM      2  C   UNL     1      -2.571   1.884  22.689  0.00  0.00    +0.000 C 
ATOM      3  C   UNL     1      -2.998   1.244  22.391  0.00  0.00    +0.000 C 
ENDBRANCH   4   2
BRANCH   6   7
ATOM      7  C   UNL     1      -0.329   1.245  24.341  0.00  0.00    +0.089 C 
BRANCH   7   8
ATOM      8  C   UNL     1      -0.070   0.601  23.896  0.00  0.00    +0.226 C 
ATOM      9  O   UNL     1      -0.581  -0.030  23.748  0.00  0.00    -0.275 OA
ATOM     10  N   UNL     1       0.699   0.586  23.598  0.00  0.00    -0.276 N 
ATOM     11  C   UNL     1       1.210   1.217  23.745  0.00  0.00    +0.115 C 
ATOM     12  C   UNL     1       1.980   1.203  23.447  0.00  0.00    +0.115 C 
ATOM     13  N   UNL     1       2.238   0.558  23.002  0.00  0.00    -0.276 N 
ATOM     14  C   UNL     1       1.726  -0.072  22.854  0.00  0.00    +0.115 C 
ATOM     15  C   UNL     1       0.957  -0.058  23.152  0.00  0.00    +0.115 C 
ATOM     16  C   UNL     1       3.006   0.544  22.704  0.00  0.00    +0.226 C 
ATOM     17  C   UNL     1       3.264  -0.100  22.258  0.00  0.00    +0.095 C 
ATOM     18  O   UNL     1       3.517   1.174  22.851  0.00  0.00    -0.275 OA
ENDBRANCH   7   8
ENDBRANCH   6   7
BRANCH  22  23
ATOM     23  C   UNL     1      -3.428   2.333  24.025  0.00  0.00    +0.120 C 
BRANCH  23  24
ATOM     24  N   UNL     1      -3.993   2.141  24.596  0.00  0.00    -0.199 NA
ATOM     25  C   UNL     1      -4.674   2.600  24.672  0.00  0.00    +0.299 C 
ATOM     26  O   UNL     1      -4.791   3.251  24.178  0.00  0.00    -0.265 OA
BRANCH  25  27
ATOM     27  C   UNL     1      -5.238   2.409  25.242  0.00  0.00    +0.200 A 
ATOM     28  C   UNL     1      -5.777   1.785  25.201  0.00  0.00    +0.046 A 
ATOM     29  C   UNL     1      -6.235   1.798  25.887  0.00  0.00    +0.044 A 
ATOM     30  C   UNL     1      -5.980   2.430  26.352  0.00  0.00    +0.180 A 
ATOM     31  O   UNL     1      -5.364   2.807  25.953  0.00  0.00    -0.446 OA
ENDBRANCH  25  27
ENDBRANCH  23  24
ENDBRANCH  22  23
TORSDOF 6
ENDMDL
