MODEL 1
REMARK VINA RESULT:      -9.6      0.000      0.000
REMARK  Name = 
REMARK  4 active torsions:
REMARK  status: ('A' for Active; 'I' for Inactive)
REMARK    1  A    between atoms: N_3  and  C_4
REMARK    2  A    between atoms: C_4  and  C_5
REMARK    3  A    between atoms: N_14  and  C_15
REMARK    4  A    between atoms: C_15  and  C_16
REMARK                            x       y       z     vdW  Elec       q    Type
REMARK                         _______ _______ _______ _____ _____    ______ ____
ROOT
ATOM      1  O   UNL     1      -5.072   1.187  25.066  0.00  0.00    -0.252 OA
ATOM      2  C   UNL     1      -4.316   1.028  24.774  0.00  0.00    +0.308 C 
ATOM      3  N   UNL     1      -4.055   0.305  24.474  0.00  0.00    -0.257 N 
ATOM     11  C   UNL     1      -3.266   0.394  24.246  0.00  0.00    +0.117 C 
ATOM     12  C   UNL     1      -3.041   1.171  24.405  0.00  0.00    +0.113 C 
ATOM     13  C   UNL     1      -2.330   1.574  24.296  0.00  0.00    +0.094 C 
ATOM     14  N   UNL     1      -2.266   2.367  24.512  0.00  0.00    -0.264 NA
ATOM     21  C   UNL     1      -2.915   2.758  24.838  0.00  0.00    +0.094 C 
ATOM     22  C   UNL     1      -3.627   2.357  24.949  0.00  0.00    +0.112 C 
ATOM     23  N   UNL     1      -3.690   1.563  24.732  0.00  0.00    -0.261 N 
ENDROOT
BRANCH   3   4
ATOM      4  C   UNL     1      -4.502  -0.385  24.412  0.00  0.00    +0.141 C 
BRANCH   4   5
ATOM      5  C   UNL     1      -4.145  -1.120  24.526  0.00  0.00    +0.079 A 
ATOM      6  N   UNL     1      -3.837  -1.319  25.265  0.00  0.00    -0.246 NA
ATOM      7  C   UNL     1      -3.480  -2.054  25.378  0.00  0.00    +0.099 A 
ATOM      8  C   UNL     1      -3.431  -2.590  24.753  0.00  0.00    +0.021 A 
ATOM      9  C   UNL     1      -3.738  -2.391  24.015  0.00  0.00    +0.003 A 
ATOM     10  C   UNL     1      -4.096  -1.656  23.900  0.00  0.00    +0.016 A 
ENDBRANCH   4   5
ENDBRANCH   3   4
BRANCH  14  15
ATOM     15  C   UNL     1      -1.555   2.770  24.402  0.00  0.00    +0.126 C 
BRANCH  15  16
ATOM     16  C   UNL     1      -0.935   2.666  24.936  0.00  0.00    +0.104 A 
ATOM     17  N   UNL     1      -0.916   2.935  25.716  0.00  0.00    -0.240 NA
ATOM     18  C   UNL     1      -0.194   2.710  26.046  0.00  0.00    +0.106 A 
ATOM     19  C   UNL     1       0.234   2.302  25.469  0.00  0.00    +0.057 A 
ATOM     20  S   UNL     1      -0.224   2.275  24.783  0.00  0.00    -0.069 S 
ENDBRANCH  15  16
ENDBRANCH  14  15
TORSDOF 4
ENDMDL
MODEL 2
REMARK VINA RESULT:      -9.3      1.523      1.979
REMARK  Name = 
REMARK  4 active torsions:
REMARK  status: ('A' for Active; 'I' for Inactive)
REMARK    1  A    between atoms: N_3  and  C_4
REMARK    2  A    between atoms: C_4  and  C_5
REMARK    3  A    between atoms: N_14  and  C_15
REMARK    4  A    between atoms: C_15  and  C_16
REMARK                            x       y       z     vdW  Elec       q    Type
REMARK                         _______ _______ _______ _____ _____    ______ ____
ROOT
ATOM      1  O   UNL     1      -1.311  -0.784  26.116  0.00  0.00    -0.252 OA
ATOM      2  C   UNL     1      -1.770  -0.279  25.651  0.00  0.00    +0.308 C 
ATOM      3  N   UNL     1      -2.552  -0.408  25.424  0.00  0.00    -0.257 N 
ATOM     11  C   UNL     1      -2.793   0.234  24.964  0.00  0.00    +0.117 C 
ATOM     12  C   UNL     1      -2.159   0.759  24.908  0.00  0.00    +0.113 C 
ATOM     13  C   UNL     1      -2.075   1.485  24.525  0.00  0.00    +0.094 C 
ATOM     14  N   UNL     1      -1.360   1.893  24.566  0.00  0.00    -0.264 NA
ATOM     21  C   UNL     1      -0.728   1.575  24.990  0.00  0.00    +0.094 C 
ATOM     22  C   UNL     1      -0.811   0.850  25.374  0.00  0.00    +0.112 C 
ATOM     23  N   UNL     1      -1.527   0.441  25.332  0.00  0.00    -0.261 N 
ENDROOT
BRANCH   3   4
ATOM      4  C   UNL     1      -3.014  -1.062  25.621  0.00  0.00    +0.141 C 
BRANCH   4   5
ATOM      5  C   UNL     1      -3.379  -1.504  25.028  0.00  0.00    +0.079 A 
ATOM      6  N   UNL     1      -4.041  -1.201  24.637  0.00  0.00    -0.246 NA
ATOM      7  C   UNL     1      -4.406  -1.643  24.044  0.00  0.00    +0.099 A 
ATOM      8  C   UNL     1      -4.111  -2.386  23.841  0.00  0.00    +0.021 A 
ATOM      9  C   UNL     1      -3.451  -2.688  24.232  0.00  0.00    +0.003 A 
ATOM     10  C   UNL     1      -3.085  -2.247  24.825  0.00  0.00    +0.016 A 
ENDBRANCH   4   5
ENDBRANCH   3   4
BRANCH  14  15
ATOM     15  C   UNL     1      -1.276   2.619  24.183  0.00  0.00    +0.126 C 
BRANCH  15  16
ATOM     16  C   UNL     1      -1.413   3.321  24.593  0.00  0.00    +0.104 A 
ATOM     17  N   UNL     1      -2.151   3.627  24.798  0.00  0.00    -0.240 NA
ATOM     18  C   UNL     1      -2.031   4.336  25.203  0.00  0.00    +0.106 A 
ATOM     19  C   UNL     1      -1.217   4.468  25.248  0.00  0.00    +0.057 A 
ATOM     20  S   UNL     1      -0.836   3.840  24.872  0.00  0.00    -0.069 S 
ENDBRANCH  15  16
ENDBRANCH  14  15
TORSDOF 4
ENDMDL
MODEL 3
REMARK VINA RESULT:      -9.3      1.456      4.463
REMARK  Name = 
REMARK  4 active torsions:
REMARK  status: ('A' for Active; 'I' for Inactive)
REMARK    1  A    between atoms: N_3  and  C_4
REMARK    2  A    between atoms: C_4  and  C_5
REMARK    3  A    between atoms: N_14  and  C_15
REMARK    4  A    between atoms: C_15  and  C_16
REMARK                            x       y       z     vdW  Elec       q    Type
REMARK                         _______ _______ _______ _____ _____    ______ ____
ROOT
ATOM      1  O   UNL     1      -4.728   2.350  24.354  0.00  0.00    -0.252 OA
ATOM      2  C   UNL     1      -4.033   1.941  24.530  0.00  0.00    +0.308 C 
ATOM      3  N   UNL     1      -3.267   2.237  24.462  0.00  0.00    -0.257 N 
ATOM     11  C   UNL     1      -2.743   1.644  24.696  0.00  0.00    +0.117 C 
ATOM     12  C   UNL     1      -3.186   0.982  24.908  0.00  0.00    +0.113 C 
ATOM     13  C   UNL     1      -2.968   0.235  25.181  0.00  0.00    +0.094 C 
ATOM     14  N   UNL     1      -3.545  -0.328  25.353  0.00  0.00    -0.264 NA
ATOM     21  C   UNL     1      -4.343  -0.144  25.250  0.00  0.00    +0.094 C 
ATOM     22  C   UNL     1      -4.563   0.603  24.977  0.00  0.00    +0.112 C 
ATOM     23  N   UNL     1      -3.984   1.166  24.806  0.00  0.00    -0.261 N 
ENDROOT
BRANCH   3   4
ATOM      4  C   UNL     1      -3.059   2.993  24.206  0.00  0.00    +0.141 C 
BRANCH   4   5
ATOM      5  C   UNL     1      -2.466   3.413  24.595  0.00  0.00    +0.079 A 
ATOM      6  N   UNL     1      -1.677   3.316  24.371  0.00  0.00    -0.246 NA
ATOM      7  C   UNL     1      -1.083   3.736  24.761  0.00  0.00    +0.099 A 
ATOM      8  C   UNL     1      -1.278   4.253  25.373  0.00  0.00    +0.021 A 
ATOM      9  C   UNL     1      -2.065   4.350  25.597  0.00  0.00    +0.003 A 
ATOM     10  C   UNL     1      -2.660   3.930  25.208  0.00  0.00    +0.016 A 
ENDBRANCH   4   5
ENDBRANCH   3   4
BRANCH  14  15
ATOM     15  C   UNL     1      -3.327  -1.075  25.626  0.00  0.00    +0.126 C 
BRANCH  15  16
ATOM     16  C   UNL     1      -3.233  -1.698  25.094  0.00  0.00    +0.104 A 
ATOM     17  N   UNL     1      -3.841  -2.117  24.725  0.00  0.00    -0.240 NA
ATOM     18  C   UNL     1      -3.499  -2.690  24.241  0.00  0.00    +0.106 A 
ATOM     19  C   UNL     1      -2.678  -2.626  24.311  0.00  0.00    +0.057 A 
ATOM     20  S   UNL     1      -2.515  -2.013  24.838  0.00  0.00    -0.069 S 
ENDBRANCH  15  16
ENDBRANCH  14  15
TORSDOF 4
ENDMDL
MODEL 4
REMARK VINA RESULT:      -9.2      2.252      3.395
REMARK  Name = 
REMARK  4 active torsions:
REMARK  status: ('A' for Active; 'I' for Inactive)
REMARK    1  A    between atoms: N_3  and  C_4
REMARK    2  A    between atoms: C_4  and  C_5
REMARK    3  A    between atoms: N_14  and  C_15
REMARK    4  A    between atoms: C_15  and  C_16
REMARK                            x       y       z     vdW  Elec       q    Type
REMARK                         _______ _______ _______ _____ _____    ______ ____
ROOT
ATOM      1  O   UNL     1      -3.340   2.655  22.792  0.00  0.00    -0.252 OA
ATOM      2  C   UNL     1      -3.115   2.428  23.553  0.00  0.00    +0.308 C 
ATOM      3  N   UNL     1      -3.520   2.599  24.250  0.00  0.00    -0.257 N 
ATOM     11  C   UNL     1      -3.100   2.266  24.878  0.00  0.00    +0.117 C 
ATOM     12  C   UNL     1      -2.436   1.890  24.568  0.00  0.00    +0.113 C 
ATOM     13  C   UNL     1      -1.822   1.469  24.925  0.00  0.00    +0.094 C 
ATOM     14  N   UNL     1      -1.219   1.148  24.464  0.00  0.00    -0.264 NA
ATOM     21  C   UNL     1      -1.228   1.248  23.645  0.00  0.00    +0.094 C 
ATOM     22  C   UNL     1      -1.840   1.668  23.287  0.00  0.00    +0.112 C 
ATOM     23  N   UNL     1      -2.444   1.990  23.749  0.00  0.00    -0.261 N 
ENDROOT
BRANCH   3   4
ATOM      4  C   UNL     1      -4.223   3.028  24.310  0.00  0.00    +0.141 C 
BRANCH   4   5
ATOM      5  C   UNL     1      -4.830   2.759  24.800  0.00  0.00    +0.079 A 
ATOM      6  N   UNL     1      -5.304   2.127  24.560  0.00  0.00    -0.246 NA
ATOM      7  C   UNL     1      -5.911   1.858  25.050  0.00  0.00    +0.099 A 
ATOM      8  C   UNL     1      -6.045   2.221  25.779  0.00  0.00    +0.021 A 
ATOM      9  C   UNL     1      -5.572   2.853  26.018  0.00  0.00    +0.003 A 
ATOM     10  C   UNL     1      -4.964   3.122  25.528  0.00  0.00    +0.016 A 
ENDBRANCH   4   5
ENDBRANCH   3   4
BRANCH  14  15
ATOM     15  C   UNL     1      -0.606   0.727  24.821  0.00  0.00    +0.126 C 
BRANCH  15  16
ATOM     16  C   UNL     1      -0.670  -0.089  24.924  0.00  0.00    +0.104 A 
ATOM     17  N   UNL     1      -1.041  -0.471  25.554  0.00  0.00    -0.240 NA
ATOM     18  C   UNL     1      -0.975  -1.285  25.434  0.00  0.00    +0.106 A 
ATOM     19  C   UNL     1      -0.562  -1.406  24.729  0.00  0.00    +0.057 A 
ATOM     20  S   UNL     1      -0.373  -0.666  24.414  0.00  0.00    -0.069 S 
ENDBRANCH  15  16
ENDBRANCH  14  15
TORSDOF 4
ENDMDL
MODEL 5
REMARK VINA RESULT:      -9.1      1.995      4.832
REMARK  Name = 
REMARK  4 active torsions:
REMARK  status: ('A' for Active; 'I' for Inactive)
REMARK    1  A    between atoms: N_3  and  C_4
REMARK    2  A    between atoms: C_4  and  C_5
REMARK    3  A    between atoms: N_14  and  C_15
REMARK    4  A    between atoms: C_15  and  C_16
REMARK                            x       y       z     vdW  Elec       q    Type
REMARK                         _______ _______ _______ _____ _____    ______ ____
ROOT
ATOM      1  O   UNL     1      -0.187   1.106  24.714  0.00  0.00    -0.252 OA
ATOM      2  C   UNL     1      -1.011   1.078  24.752  0.00  0.00    +0.308 C 
ATOM      3  N   UNL     1      -1.525   1.700  24.580  0.00  0.00    -0.257 N 
ATOM     11  C   UNL     1      -2.297   1.431  24.690  0.00  0.00    +0.117 C 
ATOM     12  C   UNL     1      -2.260   0.643  24.930  0.00  0.00    +0.113 C 
ATOM     13  C   UNL     1      -2.847   0.094  25.119  0.00  0.00    +0.094 C 
ATOM     14  N   UNL     1      -2.639  -0.671  25.345  0.00  0.00    -0.264 NA
ATOM     21  C   UNL     1      -1.845  -0.889  25.383  0.00  0.00    +0.094 C 
ATOM     22  C   UNL     1      -1.257  -0.341  25.195  0.00  0.00    +0.112 C 
ATOM     23  N   UNL     1      -1.465   0.425  24.968  0.00  0.00    -0.261 N 
ENDROOT
BRANCH   3   4
ATOM      4  C   UNL     1      -1.306   2.459  24.340  0.00  0.00    +0.141 C 
BRANCH   4   5
ATOM      5  C   UNL     1      -1.625   3.119  24.717  0.00  0.00    +0.079 A 
ATOM      6  N   UNL     1      -2.371   3.397  24.498  0.00  0.00    -0.246 NA
ATOM      7  C   UNL     1      -2.691   4.058  24.875  0.00  0.00    +0.099 A 
ATOM      8  C   UNL     1      -2.266   4.441  25.469  0.00  0.00    +0.021 A 
ATOM      9  C   UNL     1      -1.521   4.163  25.687  0.00  0.00    +0.003 A 
ATOM     10  C   UNL     1      -1.200   3.502  25.311  0.00  0.00    +0.016 A 
ENDBRANCH   4   5
ENDBRANCH   3   4
BRANCH  14  15
ATOM     15  C   UNL     1      -3.226  -1.219  25.534  0.00  0.00    +0.126 C 
BRANCH  15  16
ATOM     16  C   UNL     1      -3.534  -1.713  24.950  0.00  0.00    +0.104 A 
ATOM     17  N   UNL     1      -4.085  -1.500  24.374  0.00  0.00    -0.240 NA
ATOM     18  C   UNL     1      -4.235  -2.162  23.907  0.00  0.00    +0.106 A 
ATOM     19  C   UNL     1      -3.777  -2.786  24.194  0.00  0.00    +0.057 A 
ATOM     20  S   UNL     1      -3.344  -2.509  24.838  0.00  0.00    -0.069 S 
ENDBRANCH  15  16
ENDBRANCH  14  15
TORSDOF 4
ENDMDL
MODEL 6
REMARK VINA RESULT:      -9.1      1.834      2.751
REMARK  Name = 
REMARK  4 active torsions:
REMARK  status: ('A' for Active; 'I' for Inactive)
REMARK    1  A    between atoms: N_3  and  C_4
REMARK    2  A    between atoms: C_4  and  C_5
REMARK    3  A    between atoms: N_14  and  C_15
REMARK    4  A    between atoms: C_15  and  C_16
REMARK                            x       y       z     vdW  Elec       q    Type
REMARK                         _______ _______ _______ _____ _____    ______ ____
ROOT
ATOM      1  O   UNL     1      -0.924   0.412  25.458  0.00  0.00    -0.252 OA
ATOM      2  C   UNL     1      -1.722   0.420  25.246  0.00  0.00    +0.308 C 
ATOM      3  N   UNL     1      -2.231  -0.229  25.252  0.00  0.00    -0.257 N 
ATOM     11  C   UNL     1      -2.974   0.029  25.001  0.00  0.00    +0.117 C 
ATOM     12  C   UNL     1      -2.923   0.835  24.840  0.00  0.00    +0.113 C 
ATOM     13  C   UNL     1      -3.482   1.382  24.576  0.00  0.00    +0.094 C 
ATOM     14  N   UNL     1      -3.266   2.170  24.462  0.00  0.00    -0.264 NA
ATOM     21  C   UNL     1      -2.492   2.412  24.613  0.00  0.00    +0.094 C 
ATOM     22  C   UNL     1      -1.933   1.866  24.878  0.00  0.00    +0.112 C 
ATOM     23  N   UNL     1      -2.149   1.077  24.992  0.00  0.00    -0.261 N 
ENDROOT
BRANCH   3   4
ATOM      4  C   UNL     1      -2.033  -0.999  25.471  0.00  0.00    +0.141 C 
BRANCH   4   5
ATOM      5  C   UNL     1      -2.427  -1.639  25.130  0.00  0.00    +0.079 A 
ATOM      6  N   UNL     1      -2.122  -1.995  24.450  0.00  0.00    -0.246 NA
ATOM      7  C   UNL     1      -2.516  -2.635  24.110  0.00  0.00    +0.099 A 
ATOM      8  C   UNL     1      -3.213  -2.919  24.448  0.00  0.00    +0.021 A 
ATOM      9  C   UNL     1      -3.516  -2.563  25.127  0.00  0.00    +0.003 A 
ATOM     10  C   UNL     1      -3.124  -1.923  25.468  0.00  0.00    +0.016 A 
ENDBRANCH   4   5
ENDBRANCH   3   4
BRANCH  14  15
ATOM     15  C   UNL     1      -3.825   2.717  24.197  0.00  0.00    +0.126 C 
BRANCH  15  16
ATOM     16  C   UNL     1      -4.368   3.041  24.725  0.00  0.00    +0.104 A 
ATOM     17  N   UNL     1      -5.098   2.715  24.931  0.00  0.00    -0.240 NA
ATOM     18  C   UNL     1      -5.459   3.221  25.474  0.00  0.00    +0.106 A 
ATOM     19  C   UNL     1      -4.952   3.859  25.604  0.00  0.00    +0.057 A 
ATOM     20  S   UNL     1      -4.278   3.748  25.141  0.00  0.00    -0.069 S 
ENDBRANCH  15  16
ENDBRANCH  14  15
TORSDOF 4
ENDMDL
MODEL 7
REMARK VINA RESULT:      -8.8      2.446      3.492
REMARK  Name = 
REMARK  4 active torsions:
REMARK  status: ('A' for Active; 'I' for Inactive)
REMARK    1  A    between atoms: N_3  and  C_4
REMARK    2  A    between atoms: C_4  and  C_5
REMARK    3  A    between atoms: N_14  and  C_15
REMARK    4  A    between atoms: C_15  and  C_16
REMARK                            x       y       z     vdW  Elec       q    Type
REMARK                         _______ _______ _______ _____ _____    ______ ____
ROOT
ATOM      1  O   UNL     1      -0.475   2.512  25.923  0.00  0.00    -0.252 OA
ATOM      2  C   UNL     1      -1.081   2.231  25.438  0.00  0.00    +0.308 C 
ATOM      3  N   UNL     1      -1.077   1.521  25.019  0.00  0.00    -0.257 N 
ATOM     11  C   UNL     1      -1.791   1.462  24.609  0.00  0.00    +0.117 C 
ATOM     12  C   UNL     1      -2.235   2.137  24.775  0.00  0.00    +0.113 C 
ATOM     13  C   UNL     1      -2.983   2.380  24.526  0.00  0.00    +0.094 C 
ATOM     14  N   UNL     1      -3.293   3.098  24.789  0.00  0.00    -0.264 NA
ATOM     21  C   UNL     1      -2.854   3.573  25.301  0.00  0.00    +0.094 C 
ATOM     22  C   UNL     1      -2.106   3.330  25.551  0.00  0.00    +0.112 C 
ATOM     23  N   UNL     1      -1.797   2.612  25.287  0.00  0.00    -0.261 N 
ENDROOT
BRANCH   3   4
ATOM      4  C   UNL     1      -0.466   0.966  25.011  0.00  0.00    +0.141 C 
BRANCH   4   5
ATOM      5  C   UNL     1      -0.640   0.160  25.018  0.00  0.00    +0.079 A 
ATOM      6  N   UNL     1      -0.933  -0.192  25.705  0.00  0.00    -0.246 NA
ATOM      7  C   UNL     1      -1.108  -0.998  25.712  0.00  0.00    +0.099 A 
ATOM      8  C   UNL     1      -0.990  -1.453  25.034  0.00  0.00    +0.021 A 
ATOM      9  C   UNL     1      -0.697  -1.101  24.348  0.00  0.00    +0.003 A 
ATOM     10  C   UNL     1      -0.523  -0.294  24.340  0.00  0.00    +0.016 A 
ENDBRANCH   4   5
ENDBRANCH   3   4
BRANCH  14  15
ATOM     15  C   UNL     1      -4.041   3.341  24.540  0.00  0.00    +0.126 C 
BRANCH  15  16
ATOM     16  C   UNL     1      -4.715   3.048  24.912  0.00  0.00    +0.104 A 
ATOM     17  N   UNL     1      -5.114   2.352  24.717  0.00  0.00    -0.240 NA
ATOM     18  C   UNL     1      -5.755   2.273  25.229  0.00  0.00    +0.106 A 
ATOM     19  C   UNL     1      -5.754   2.920  25.741  0.00  0.00    +0.057 A 
ATOM     20  S   UNL     1      -5.111   3.399  25.545  0.00  0.00    -0.069 S 
ENDBRANCH  15  16
ENDBRANCH  14  15
TORSDOF 4
ENDMDL
