REMARK  Name = 
REMARK  3 active torsions:
REMARK  status: ('A' for Active; 'I' for Inactive)
REMARK    1  A    between atoms: C_7  and  N_10
REMARK    2  A    between atoms: N_16  and  C_17
REMARK    3  A    between atoms: C_17  and  C_18
REMARK                            x       y       z     vdW  Elec       q    Type
REMARK                         _______ _______ _______ _____ _____    ______ ____
ROOT
ATOM     10  N   UNL     1       3.352   1.935   0.000  0.00  0.00    -0.271 NA
ATOM     11  C   UNL     1       3.352   1.110   0.000  0.00  0.00    +0.094 C 
ATOM     12  C   UNL     1       2.638   0.698   0.000  0.00  0.00    +0.112 C 
ATOM     13  N   UNL     1       1.923   1.110   0.000  0.00  0.00    -0.261 N 
ATOM     14  C   UNL     1       1.923   1.935   0.000  0.00  0.00    +0.113 C 
ATOM     15  C   UNL     1       1.139   2.190   0.000  0.00  0.00    +0.117 C 
ATOM     16  N   UNL     1       0.654   1.523   0.000  0.00  0.00    -0.257 N 
ATOM     24  C   UNL     1       1.139   0.856   0.000  0.00  0.00    +0.308 C 
ATOM     25  O   UNL     1       0.884   0.071   0.000  0.00  0.00    -0.252 OA
ATOM     26  C   UNL     1       2.638   2.348   0.000  0.00  0.00    +0.094 C 
ENDROOT
BRANCH  10   7
ATOM      1  C   UNL     1       6.210   4.410   0.000  0.00  0.00    +0.095 C 
ATOM      2  C   UNL     1       6.210   3.585   0.000  0.00  0.00    +0.226 C 
ATOM      3  O   UNL     1       6.925   3.173   0.000  0.00  0.00    -0.275 OA
ATOM      4  N   UNL     1       5.496   3.173   0.000  0.00  0.00    -0.279 N 
ATOM      5  C   UNL     1       5.496   2.348   0.000  0.00  0.00    +0.095 C 
ATOM      6  C   UNL     1       4.781   1.935   0.000  0.00  0.00    +0.038 C 
ATOM      7  C   UNL     1       4.067   2.348   0.000  0.00  0.00    +0.061 C 
ATOM      8  C   UNL     1       4.067   3.173   0.000  0.00  0.00    +0.038 C 
ATOM      9  C   UNL     1       4.781   3.585   0.000  0.00  0.00    +0.095 C 
ENDBRANCH  10   7
BRANCH  16  17
ATOM     17  C   UNL     1      -0.171   1.523   0.000  0.00  0.00    +0.141 C 
BRANCH  17  18
ATOM     18  C   UNL     1      -0.584   2.237   0.000  0.00  0.00    +0.079 A 
ATOM     19  N   UNL     1      -1.409   2.237   0.000  0.00  0.00    -0.246 NA
ATOM     20  C   UNL     1      -1.821   2.952   0.000  0.00  0.00    +0.099 A 
ATOM     21  C   UNL     1      -1.409   3.666   0.000  0.00  0.00    +0.021 A 
ATOM     22  C   UNL     1      -0.584   3.666   0.000  0.00  0.00    +0.003 A 
ATOM     23  C   UNL     1      -0.171   2.952   0.000  0.00  0.00    +0.016 A 
ENDBRANCH  17  18
ENDBRANCH  16  17
TORSDOF 3
