MODEL 1
REMARK VINA RESULT:     -11.7      0.000      0.000
REMARK  Name = 
REMARK  8 active torsions:
REMARK  status: ('A' for Active; 'I' for Inactive)
REMARK    1  A    between atoms: O_2  and  C_3
REMARK    2  A    between atoms: C_3  and  C_4
REMARK    3  A    between atoms: C_4  and  N_5
REMARK    4  A    between atoms: N_5  and  C_6
REMARK    5  A    between atoms: C_7  and  C_12
REMARK    6  A    between atoms: C_15  and  C_17
REMARK    7  A    between atoms: N_21  and  C_22
REMARK    8  A    between atoms: C_22  and  C_23
REMARK                            x       y       z     vdW  Elec       q    Type
REMARK                         _______ _______ _______ _____ _____    ______ ____
ROOT
ATOM     12  C   UNL     1      -2.825   3.141  24.526  0.00  0.00    +0.206 A 
ATOM     13  N   UNL     1      -3.154   3.095  23.770  0.00  0.00    -0.056 NA
ATOM     14  O   UNL     1      -3.793   2.573  23.802  0.00  0.00    -0.336 OA
ATOM     15  C   UNL     1      -3.858   2.297  24.577  0.00  0.00    +0.251 A 
ATOM     16  N   UNL     1      -3.260   2.648  25.024  0.00  0.00    -0.190 NA
ENDROOT
BRANCH  12   7
ATOM      6  C   UNL     1      -1.411   3.303  24.651  0.00  0.00    +0.151 A 
ATOM      7  C   UNL     1      -2.175   3.600  24.745  0.00  0.00    +0.072 A 
ATOM      8  C   UNL     1      -2.289   4.355  25.056  0.00  0.00    +0.008 A 
ATOM      9  C   UNL     1      -1.640   4.813  25.275  0.00  0.00    +0.021 A 
ATOM     10  C   UNL     1      -0.875   4.517  25.182  0.00  0.00    +0.100 A 
ATOM     11  N   UNL     1      -0.761   3.762  24.870  0.00  0.00    -0.228 NA
BRANCH   6   5
ATOM      5  N   UNL     1      -1.296   2.548  24.340  0.00  0.00    -0.218 NA
BRANCH   5   4
ATOM      4  C   UNL     1      -0.554   2.191  24.384  0.00  0.00    +0.146 C 
BRANCH   4   3
ATOM      3  C   UNL     1      -0.394   1.515  23.940  0.00  0.00    +0.166 C 
BRANCH   3   2
ATOM      1  C   UNL     1      -0.004   0.141  23.875  0.00  0.00    +0.174 C 
ATOM      2  O   UNL     1      -0.191   0.810  24.319  0.00  0.00    -0.349 OA
ENDBRANCH   3   2
ENDBRANCH   4   3
ENDBRANCH   5   4
ENDBRANCH   6   5
ENDBRANCH  12   7
BRANCH  15  17
ATOM     17  C   UNL     1      -4.422   1.764  24.855  0.00  0.00    +0.138 C 
ATOM     18  C   UNL     1      -5.109   1.957  25.270  0.00  0.00    +0.027 C 
ATOM     19  C   UNL     1      -5.511   1.256  25.439  0.00  0.00    +0.019 C 
ATOM     20  C   UNL     1      -5.072   0.630  25.130  0.00  0.00    +0.073 C 
ATOM     21  N   UNL     1      -4.399   0.944  24.769  0.00  0.00    -0.263 NA
BRANCH  21  22
ATOM     22  C   UNL     1      -3.807   0.513  24.390  0.00  0.00    +0.099 C 
BRANCH  22  23
ATOM     23  C   UNL     1      -3.769  -0.306  24.482  0.00  0.00    -0.006 A 
ATOM     24  C   UNL     1      -4.115  -0.801  23.920  0.00  0.00    -0.003 A 
ATOM     25  C   UNL     1      -4.076  -1.620  24.012  0.00  0.00    -0.005 A 
ATOM     26  C   UNL     1      -3.693  -1.944  24.666  0.00  0.00    -0.022 A 
ATOM     27  C   UNL     1      -3.654  -2.763  24.759  0.00  0.00    +0.031 C 
ATOM     28  C   UNL     1      -3.347  -1.449  25.229  0.00  0.00    -0.005 A 
ATOM     29  C   UNL     1      -3.385  -0.630  25.136  0.00  0.00    -0.003 A 
ENDBRANCH  22  23
ENDBRANCH  21  22
ENDBRANCH  15  17
TORSDOF 8
ENDMDL
MODEL 2
REMARK VINA RESULT:     -11.1      1.186      2.989
REMARK  Name = 
REMARK  8 active torsions:
REMARK  status: ('A' for Active; 'I' for Inactive)
REMARK    1  A    between atoms: O_2  and  C_3
REMARK    2  A    between atoms: C_3  and  C_4
REMARK    3  A    between atoms: C_4  and  N_5
REMARK    4  A    between atoms: N_5  and  C_6
REMARK    5  A    between atoms: C_7  and  C_12
REMARK    6  A    between atoms: C_15  and  C_17
REMARK    7  A    between atoms: N_21  and  C_22
REMARK    8  A    between atoms: C_22  and  C_23
REMARK                            x       y       z     vdW  Elec       q    Type
REMARK                         _______ _______ _______ _____ _____    ______ ____
ROOT
ATOM     12  C   UNL     1      -1.215   2.747  25.362  0.00  0.00    +0.206 A 
ATOM     13  N   UNL     1      -1.106   2.371  26.089  0.00  0.00    -0.056 NA
ATOM     14  O   UNL     1      -0.964   1.571  25.943  0.00  0.00    -0.336 OA
ATOM     15  C   UNL     1      -0.984   1.453  25.127  0.00  0.00    +0.251 A 
ATOM     16  N   UNL     1      -1.139   2.180  24.768  0.00  0.00    -0.190 NA
ENDROOT
BRANCH  12   7
ATOM      6  C   UNL     1      -2.149   3.823  25.266  0.00  0.00    +0.151 A 
ATOM      7  C   UNL     1      -1.371   3.549  25.250  0.00  0.00    +0.072 A 
ATOM      8  C   UNL     1      -0.750   4.076  25.122  0.00  0.00    +0.008 A 
ATOM      9  C   UNL     1      -0.907   4.878  25.010  0.00  0.00    +0.021 A 
ATOM     10  C   UNL     1      -1.684   5.154  25.026  0.00  0.00    +0.100 A 
ATOM     11  N   UNL     1      -2.306   4.625  25.154  0.00  0.00    -0.228 NA
BRANCH   6   5
ATOM      5  N   UNL     1      -2.770   3.296  25.394  0.00  0.00    -0.218 NA
BRANCH   5   4
ATOM      4  C   UNL     1      -3.550   3.541  25.282  0.00  0.00    +0.146 C 
BRANCH   4   3
ATOM      3  C   UNL     1      -4.172   3.092  25.585  0.00  0.00    +0.166 C 
BRANCH   3   2
ATOM      1  C   UNL     1      -5.477   2.531  25.431  0.00  0.00    +0.174 C 
ATOM      2  O   UNL     1      -4.818   2.905  25.107  0.00  0.00    -0.349 OA
ENDBRANCH   3   2
ENDBRANCH   4   3
ENDBRANCH   5   4
ENDBRANCH   6   5
ENDBRANCH  12   7
BRANCH  15  17
ATOM     17  C   UNL     1      -0.869   0.735  24.738  0.00  0.00    +0.138 C 
ATOM     18  C   UNL     1      -0.191   0.511  24.324  0.00  0.00    +0.027 C 
ATOM     19  C   UNL     1      -0.315  -0.248  24.024  0.00  0.00    +0.019 C 
ATOM     20  C   UNL     1      -1.069  -0.493  24.253  0.00  0.00    +0.073 C 
ATOM     21  N   UNL     1      -1.411   0.115  24.694  0.00  0.00    -0.263 NA
BRANCH  21  22
ATOM     22  C   UNL     1      -2.164   0.104  25.031  0.00  0.00    +0.099 C 
BRANCH  22  23
ATOM     23  C   UNL     1      -2.721  -0.448  24.778  0.00  0.00    -0.006 A 
ATOM     24  C   UNL     1      -3.260  -0.249  24.184  0.00  0.00    -0.003 A 
ATOM     25  C   UNL     1      -3.817  -0.800  23.931  0.00  0.00    -0.005 A 
ATOM     26  C   UNL     1      -3.838  -1.552  24.270  0.00  0.00    -0.022 A 
ATOM     27  C   UNL     1      -4.396  -2.105  24.016  0.00  0.00    +0.031 C 
ATOM     28  C   UNL     1      -3.300  -1.752  24.863  0.00  0.00    -0.005 A 
ATOM     29  C   UNL     1      -2.742  -1.199  25.117  0.00  0.00    -0.003 A 
ENDBRANCH  22  23
ENDBRANCH  21  22
ENDBRANCH  15  17
TORSDOF 8
ENDMDL
MODEL 3
REMARK VINA RESULT:     -10.7      1.232      4.357
REMARK  Name = 
REMARK  8 active torsions:
REMARK  status: ('A' for Active; 'I' for Inactive)
REMARK    1  A    between atoms: O_2  and  C_3
REMARK    2  A    between atoms: C_3  and  C_4
REMARK    3  A    between atoms: C_4  and  N_5
REMARK    4  A    between atoms: N_5  and  C_6
REMARK    5  A    between atoms: C_7  and  C_12
REMARK    6  A    between atoms: C_15  and  C_17
REMARK    7  A    between atoms: N_21  and  C_22
REMARK    8  A    between atoms: C_22  and  C_23
REMARK                            x       y       z     vdW  Elec       q    Type
REMARK                         _______ _______ _______ _____ _____    ______ ____
ROOT
ATOM     12  C   UNL     1      -3.650  -0.511  24.361  0.00  0.00    +0.206 A 
ATOM     13  N   UNL     1      -3.766  -0.175  23.616  0.00  0.00    -0.056 NA
ATOM     14  O   UNL     1      -4.062   0.588  23.724  0.00  0.00    -0.336 OA
ATOM     15  C   UNL     1      -4.129   0.723  24.535  0.00  0.00    +0.251 A 
ATOM     16  N   UNL     1      -3.875   0.044  24.928  0.00  0.00    -0.190 NA
ENDROOT
BRANCH  12   7
ATOM      6  C   UNL     1      -2.549  -1.392  24.590  0.00  0.00    +0.151 A 
ATOM      7  C   UNL     1      -3.361  -1.269  24.512  0.00  0.00    +0.072 A 
ATOM      8  C   UNL     1      -3.883  -1.903  24.583  0.00  0.00    +0.008 A 
ATOM      9  C   UNL     1      -3.594  -2.660  24.734  0.00  0.00    +0.021 A 
ATOM     10  C   UNL     1      -2.782  -2.784  24.812  0.00  0.00    +0.100 A 
ATOM     11  N   UNL     1      -2.259  -2.149  24.740  0.00  0.00    -0.228 NA
BRANCH   6   5
ATOM      5  N   UNL     1      -2.026  -0.758  24.518  0.00  0.00    -0.218 NA
BRANCH   5   4
ATOM      4  C   UNL     1      -1.212  -0.893  24.498  0.00  0.00    +0.146 C 
BRANCH   4   3
ATOM      3  C   UNL     1      -0.687  -0.260  24.549  0.00  0.00    +0.166 C 
BRANCH   3   2
ATOM      1  C   UNL     1       0.231   0.609  23.882  0.00  0.00    +0.174 C 
ATOM      2  O   UNL     1      -0.147  -0.121  23.941  0.00  0.00    -0.349 OA
ENDBRANCH   3   2
ENDBRANCH   4   3
ENDBRANCH   5   4
ENDBRANCH   6   5
ENDBRANCH  12   7
BRANCH  15  17
ATOM     17  C   UNL     1      -4.403   1.415  24.890  0.00  0.00    +0.138 C 
ATOM     18  C   UNL     1      -5.125   1.508  25.279  0.00  0.00    +0.027 C 
ATOM     19  C   UNL     1      -5.171   2.287  25.548  0.00  0.00    +0.019 C 
ATOM     20  C   UNL     1      -4.478   2.675  25.326  0.00  0.00    +0.073 C 
ATOM     21  N   UNL     1      -4.003   2.136  24.919  0.00  0.00    -0.263 NA
BRANCH  21  22
ATOM     22  C   UNL     1      -3.260   2.292  24.598  0.00  0.00    +0.099 C 
BRANCH  22  23
ATOM     23  C   UNL     1      -2.859   2.984  24.801  0.00  0.00    -0.006 A 
ATOM     24  C   UNL     1      -2.298   2.974  25.406  0.00  0.00    -0.003 A 
ATOM     25  C   UNL     1      -1.897   3.665  25.609  0.00  0.00    -0.005 A 
ATOM     26  C   UNL     1      -2.057   4.368  25.207  0.00  0.00    -0.022 A 
ATOM     27  C   UNL     1      -1.657   5.060  25.410  0.00  0.00    +0.031 C 
ATOM     28  C   UNL     1      -2.618   4.379  24.602  0.00  0.00    -0.005 A 
ATOM     29  C   UNL     1      -3.019   3.686  24.399  0.00  0.00    -0.003 A 
ENDBRANCH  22  23
ENDBRANCH  21  22
ENDBRANCH  15  17
TORSDOF 8
ENDMDL
MODEL 4
REMARK VINA RESULT:     -10.6      1.319      5.290
REMARK  Name = 
REMARK  8 active torsions:
REMARK  status: ('A' for Active; 'I' for Inactive)
REMARK    1  A    between atoms: O_2  and  C_3
REMARK    2  A    between atoms: C_3  and  C_4
REMARK    3  A    between atoms: C_4  and  N_5
REMARK    4  A    between atoms: N_5  and  C_6
REMARK    5  A    between atoms: C_7  and  C_12
REMARK    6  A    between atoms: C_15  and  C_17
REMARK    7  A    between atoms: N_21  and  C_22
REMARK    8  A    between atoms: C_22  and  C_23
REMARK                            x       y       z     vdW  Elec       q    Type
REMARK                         _______ _______ _______ _____ _____    ______ ____
ROOT
ATOM     12  C   UNL     1      -2.287  -0.800  24.892  0.00  0.00    +0.206 A 
ATOM     13  N   UNL     1      -1.992  -0.749  25.661  0.00  0.00    -0.056 NA
ATOM     14  O   UNL     1      -1.360  -0.217  25.655  0.00  0.00    -0.336 OA
ATOM     15  C   UNL     1      -1.265   0.059  24.884  0.00  0.00    +0.251 A 
ATOM     16  N   UNL     1      -1.839  -0.302  24.412  0.00  0.00    -0.190 NA
ENDROOT
BRANCH  12   7
ATOM      6  C   UNL     1      -3.680  -0.948  24.608  0.00  0.00    +0.151 A 
ATOM      7  C   UNL     1      -2.921  -1.269  24.647  0.00  0.00    +0.072 A 
ATOM      8  C   UNL     1      -2.795  -2.057  24.441  0.00  0.00    +0.008 A 
ATOM      9  C   UNL     1      -3.428  -2.526  24.196  0.00  0.00    +0.021 A 
ATOM     10  C   UNL     1      -4.187  -2.206  24.157  0.00  0.00    +0.100 A 
ATOM     11  N   UNL     1      -4.313  -1.416  24.363  0.00  0.00    -0.228 NA
BRANCH   6   5
ATOM      5  N   UNL     1      -3.806  -0.160  24.813  0.00  0.00    -0.218 NA
BRANCH   5   4
ATOM      4  C   UNL     1      -4.544   0.187  24.690  0.00  0.00    +0.146 C 
BRANCH   4   3
ATOM      3  C   UNL     1      -4.749   0.877  25.091  0.00  0.00    +0.166 C 
BRANCH   3   2
ATOM      1  C   UNL     1      -5.492   2.098  25.103  0.00  0.00    +0.174 C 
ATOM      2  O   UNL     1      -5.109   1.500  24.685  0.00  0.00    -0.349 OA
ENDBRANCH   3   2
ENDBRANCH   4   3
ENDBRANCH   5   4
ENDBRANCH   6   5
ENDBRANCH  12   7
BRANCH  15  17
ATOM     17  C   UNL     1      -0.698   0.600  24.628  0.00  0.00    +0.138 C 
ATOM     18  C   UNL     1      -0.066   0.437  24.123  0.00  0.00    +0.027 C 
ATOM     19  C   UNL     1       0.361   1.136  24.015  0.00  0.00    +0.019 C 
ATOM     20  C   UNL     1      -0.008   1.729  24.454  0.00  0.00    +0.073 C 
ATOM     21  N   UNL     1      -0.662   1.398  24.833  0.00  0.00    -0.263 NA
BRANCH  21  22
ATOM     22  C   UNL     1      -1.187   1.796  25.328  0.00  0.00    +0.099 C 
BRANCH  22  23
ATOM     23  C   UNL     1      -1.257   2.616  25.283  0.00  0.00    -0.006 A 
ATOM     24  C   UNL     1      -0.752   3.098  25.725  0.00  0.00    -0.003 A 
ATOM     25  C   UNL     1      -0.822   3.918  25.680  0.00  0.00    -0.005 A 
ATOM     26  C   UNL     1      -1.395   4.258  25.193  0.00  0.00    -0.022 A 
ATOM     27  C   UNL     1      -1.464   5.079  25.148  0.00  0.00    +0.031 C 
ATOM     28  C   UNL     1      -1.899   3.777  24.751  0.00  0.00    -0.005 A 
ATOM     29  C   UNL     1      -1.829   2.956  24.797  0.00  0.00    -0.003 A 
ENDBRANCH  22  23
ENDBRANCH  21  22
ENDBRANCH  15  17
TORSDOF 8
ENDMDL
MODEL 5
REMARK VINA RESULT:     -10.3      1.303      2.805
REMARK  Name = 
REMARK  8 active torsions:
REMARK  status: ('A' for Active; 'I' for Inactive)
REMARK    1  A    between atoms: O_2  and  C_3
REMARK    2  A    between atoms: C_3  and  C_4
REMARK    3  A    between atoms: C_4  and  N_5
REMARK    4  A    between atoms: N_5  and  C_6
REMARK    5  A    between atoms: C_7  and  C_12
REMARK    6  A    between atoms: C_15  and  C_17
REMARK    7  A    between atoms: N_21  and  C_22
REMARK    8  A    between atoms: C_22  and  C_23
REMARK                            x       y       z     vdW  Elec       q    Type
REMARK                         _______ _______ _______ _____ _____    ______ ____
ROOT
ATOM     12  C   UNL     1      -3.701   2.205  24.521  0.00  0.00    +0.206 A 
ATOM     13  N   UNL     1      -3.593   2.157  23.704  0.00  0.00    -0.056 NA
ATOM     14  O   UNL     1      -3.059   1.546  23.553  0.00  0.00    -0.336 OA
ATOM     15  C   UNL     1      -2.838   1.216  24.277  0.00  0.00    +0.251 A 
ATOM     16  N   UNL     1      -3.234   1.624  24.875  0.00  0.00    -0.190 NA
ENDROOT
BRANCH  12   7
ATOM      6  C   UNL     1      -3.873   3.438  25.223  0.00  0.00    +0.151 A 
ATOM      7  C   UNL     1      -4.189   2.741  24.915  0.00  0.00    +0.072 A 
ATOM      8  C   UNL     1      -4.993   2.579  25.000  0.00  0.00    +0.008 A 
ATOM      9  C   UNL     1      -5.482   3.115  25.394  0.00  0.00    +0.021 A 
ATOM     10  C   UNL     1      -5.167   3.812  25.702  0.00  0.00    +0.100 A 
ATOM     11  N   UNL     1      -4.362   3.974  25.616  0.00  0.00    -0.228 NA
BRANCH   6   5
ATOM      5  N   UNL     1      -3.069   3.600  25.137  0.00  0.00    -0.218 NA
BRANCH   5   4
ATOM      4  C   UNL     1      -2.763   4.322  25.394  0.00  0.00    +0.146 C 
BRANCH   4   3
ATOM      3  C   UNL     1      -1.950   4.453  25.382  0.00  0.00    +0.166 C 
BRANCH   3   2
ATOM      1  C   UNL     1      -0.885   5.295  24.935  0.00  0.00    +0.174 C 
ATOM      2  O   UNL     1      -1.654   5.206  25.218  0.00  0.00    -0.349 OA
ENDBRANCH   3   2
ENDBRANCH   4   3
ENDBRANCH   5   4
ENDBRANCH   6   5
ENDBRANCH  12   7
BRANCH  15  17
ATOM     17  C   UNL     1      -2.312   0.590  24.384  0.00  0.00    +0.138 C 
ATOM     18  C   UNL     1      -1.492   0.625  24.302  0.00  0.00    +0.027 C 
ATOM     19  C   UNL     1      -1.187  -0.126  24.459  0.00  0.00    +0.019 C 
ATOM     20  C   UNL     1      -1.819  -0.625  24.638  0.00  0.00    +0.073 C 
ATOM     21  N   UNL     1      -2.514  -0.183  24.592  0.00  0.00    -0.263 NA
BRANCH  21  22
ATOM     22  C   UNL     1      -3.277  -0.464  24.729  0.00  0.00    +0.099 C 
BRANCH  22  23
ATOM     23  C   UNL     1      -3.452  -1.260  24.605  0.00  0.00    -0.006 A 
ATOM     24  C   UNL     1      -3.848  -1.495  23.920  0.00  0.00    -0.003 A 
ATOM     25  C   UNL     1      -4.022  -2.291  23.796  0.00  0.00    -0.005 A 
ATOM     26  C   UNL     1      -3.802  -2.854  24.357  0.00  0.00    -0.022 A 
ATOM     27  C   UNL     1      -3.976  -3.651  24.233  0.00  0.00    +0.031 C 
ATOM     28  C   UNL     1      -3.406  -2.621  25.042  0.00  0.00    -0.005 A 
ATOM     29  C   UNL     1      -3.231  -1.824  25.166  0.00  0.00    -0.003 A 
ENDBRANCH  22  23
ENDBRANCH  21  22
ENDBRANCH  15  17
TORSDOF 8
ENDMDL
MODEL 6
REMARK VINA RESULT:      -9.6      1.480      2.985
REMARK  Name = 
REMARK  8 active torsions:
REMARK  status: ('A' for Active; 'I' for Inactive)
REMARK    1  A    between atoms: O_2  and  C_3
REMARK    2  A    between atoms: C_3  and  C_4
REMARK    3  A    between atoms: C_4  and  N_5
REMARK    4  A    between atoms: N_5  and  C_6
REMARK    5  A    between atoms: C_7  and  C_12
REMARK    6  A    between atoms: C_15  and  C_17
REMARK    7  A    between atoms: N_21  and  C_22
REMARK    8  A    between atoms: C_22  and  C_23
REMARK                            x       y       z     vdW  Elec       q    Type
REMARK                         _______ _______ _______ _____ _____    ______ ____
ROOT
ATOM     12  C   UNL     1      -4.348   1.848  24.568  0.00  0.00    +0.206 A 
ATOM     13  N   UNL     1      -4.000   1.869  23.820  0.00  0.00    -0.056 NA
ATOM     14  O   UNL     1      -3.781   1.099  23.619  0.00  0.00    -0.336 OA
ATOM     15  C   UNL     1      -3.993   0.603  24.243  0.00  0.00    +0.251 A 
ATOM     16  N   UNL     1      -4.343   1.066  24.830  0.00  0.00    -0.190 NA
ENDROOT
BRANCH  12   7
ATOM      6  C   UNL     1      -4.135   3.086  25.249  0.00  0.00    +0.151 A 
ATOM      7  C   UNL     1      -4.647   2.496  24.982  0.00  0.00    +0.072 A 
ATOM      8  C   UNL     1      -5.456   2.553  25.129  0.00  0.00    +0.008 A 
ATOM      9  C   UNL     1      -5.755   3.201  25.543  0.00  0.00    +0.021 A 
ATOM     10  C   UNL     1      -5.245   3.792  25.810  0.00  0.00    +0.100 A 
ATOM     11  N   UNL     1      -4.434   3.734  25.663  0.00  0.00    -0.228 NA
BRANCH   6   5
ATOM      5  N   UNL     1      -3.326   3.029  25.102  0.00  0.00    -0.218 NA
BRANCH   5   4
ATOM      4  C   UNL     1      -2.810   3.599  25.402  0.00  0.00    +0.146 C 
BRANCH   4   3
ATOM      3  C   UNL     1      -2.011   3.578  25.202  0.00  0.00    +0.166 C 
BRANCH   3   2
ATOM      1  C   UNL     1      -0.844   4.386  25.029  0.00  0.00    +0.174 C 
ATOM      2  O   UNL     1      -1.500   4.165  25.477  0.00  0.00    -0.349 OA
ENDBRANCH   3   2
ENDBRANCH   4   3
ENDBRANCH   5   4
ENDBRANCH   6   5
ENDBRANCH  12   7
BRANCH  15  17
ATOM     17  C   UNL     1      -3.876  -0.213  24.275  0.00  0.00    +0.138 C 
ATOM     18  C   UNL     1      -4.443  -0.791  24.118  0.00  0.00    +0.027 C 
ATOM     19  C   UNL     1      -4.088  -1.530  24.216  0.00  0.00    +0.019 C 
ATOM     20  C   UNL     1      -3.302  -1.409  24.434  0.00  0.00    +0.073 C 
ATOM     21  N   UNL     1      -3.171  -0.595  24.470  0.00  0.00    -0.263 NA
BRANCH  21  22
ATOM     22  C   UNL     1      -2.459  -0.227  24.668  0.00  0.00    +0.099 C 
BRANCH  22  23
ATOM     23  C   UNL     1      -1.800  -0.683  24.862  0.00  0.00    -0.006 A 
ATOM     24  C   UNL     1      -1.646  -0.870  25.651  0.00  0.00    -0.003 A 
ATOM     25  C   UNL     1      -0.986  -1.325  25.846  0.00  0.00    -0.005 A 
ATOM     26  C   UNL     1      -0.481  -1.594  25.252  0.00  0.00    -0.022 A 
ATOM     27  C   UNL     1       0.180  -2.050  25.447  0.00  0.00    +0.031 C 
ATOM     28  C   UNL     1      -0.634  -1.407  24.464  0.00  0.00    -0.005 A 
ATOM     29  C   UNL     1      -1.294  -0.952  24.269  0.00  0.00    -0.003 A 
ENDBRANCH  22  23
ENDBRANCH  21  22
ENDBRANCH  15  17
TORSDOF 8
ENDMDL
MODEL 7
REMARK VINA RESULT:      -9.6      1.444      3.545
REMARK  Name = 
REMARK  8 active torsions:
REMARK  status: ('A' for Active; 'I' for Inactive)
REMARK    1  A    between atoms: O_2  and  C_3
REMARK    2  A    between atoms: C_3  and  C_4
REMARK    3  A    between atoms: C_4  and  N_5
REMARK    4  A    between atoms: N_5  and  C_6
REMARK    5  A    between atoms: C_7  and  C_12
REMARK    6  A    between atoms: C_15  and  C_17
REMARK    7  A    between atoms: N_21  and  C_22
REMARK    8  A    between atoms: C_22  and  C_23
REMARK                            x       y       z     vdW  Elec       q    Type
REMARK                         _______ _______ _______ _____ _____    ______ ____
ROOT
ATOM     12  C   UNL     1      -3.371   2.886  24.928  0.00  0.00    +0.206 A 
ATOM     13  N   UNL     1      -3.056   3.087  24.192  0.00  0.00    -0.056 NA
ATOM     14  O   UNL     1      -2.241   2.955  24.219  0.00  0.00    -0.336 OA
ATOM     15  C   UNL     1      -2.054   2.673  24.972  0.00  0.00    +0.251 A 
ATOM     16  N   UNL     1      -2.752   2.631  25.410  0.00  0.00    -0.190 NA
ENDROOT
BRANCH  12   7
ATOM      6  C   UNL     1      -4.659   2.279  25.047  0.00  0.00    +0.151 A 
ATOM      7  C   UNL     1      -4.166   2.934  25.144  0.00  0.00    +0.072 A 
ATOM      8  C   UNL     1      -4.467   3.635  25.457  0.00  0.00    +0.008 A 
ATOM      9  C   UNL     1      -5.262   3.682  25.673  0.00  0.00    +0.021 A 
ATOM     10  C   UNL     1      -5.756   3.029  25.576  0.00  0.00    +0.100 A 
ATOM     11  N   UNL     1      -5.454   2.327  25.263  0.00  0.00    -0.228 NA
BRANCH   6   5
ATOM      5  N   UNL     1      -4.358   1.579  24.734  0.00  0.00    -0.218 NA
BRANCH   5   4
ATOM      4  C   UNL     1      -4.792   0.879  24.794  0.00  0.00    +0.146 C 
BRANCH   4   3
ATOM      3  C   UNL     1      -4.606   0.235  24.315  0.00  0.00    +0.166 C 
BRANCH   3   2
ATOM      1  C   UNL     1      -4.334  -1.161  24.172  0.00  0.00    +0.174 C 
ATOM      2  O   UNL     1      -4.456  -0.502  24.653  0.00  0.00    -0.349 OA
ENDBRANCH   3   2
ENDBRANCH   4   3
ENDBRANCH   5   4
ENDBRANCH   6   5
ENDBRANCH  12   7
BRANCH  15  17
ATOM     17  C   UNL     1      -1.301   2.469  25.239  0.00  0.00    +0.138 C 
ATOM     18  C   UNL     1      -0.814   2.933  25.717  0.00  0.00    +0.027 C 
ATOM     19  C   UNL     1      -0.114   2.515  25.850  0.00  0.00    +0.019 C 
ATOM     20  C   UNL     1      -0.169   1.794  25.454  0.00  0.00    +0.073 C 
ATOM     21  N   UNL     1      -0.903   1.765  25.077  0.00  0.00    -0.263 NA
BRANCH  21  22
ATOM     22  C   UNL     1      -1.187   1.141  24.618  0.00  0.00    +0.099 C 
BRANCH  22  23
ATOM     23  C   UNL     1      -0.951   0.368  24.780  0.00  0.00    -0.006 A 
ATOM     24  C   UNL     1      -0.472  -0.038  24.244  0.00  0.00    -0.003 A 
ATOM     25  C   UNL     1      -0.236  -0.811  24.407  0.00  0.00    -0.005 A 
ATOM     26  C   UNL     1      -0.478  -1.179  25.104  0.00  0.00    -0.022 A 
ATOM     27  C   UNL     1      -0.241  -1.953  25.267  0.00  0.00    +0.031 C 
ATOM     28  C   UNL     1      -0.956  -0.773  25.640  0.00  0.00    -0.005 A 
ATOM     29  C   UNL     1      -1.192   0.001  25.478  0.00  0.00    -0.003 A 
ENDBRANCH  22  23
ENDBRANCH  21  22
ENDBRANCH  15  17
TORSDOF 8
ENDMDL
MODEL 8
REMARK VINA RESULT:      -9.6      1.694      4.282
REMARK  Name = 
REMARK  8 active torsions:
REMARK  status: ('A' for Active; 'I' for Inactive)
REMARK    1  A    between atoms: O_2  and  C_3
REMARK    2  A    between atoms: C_3  and  C_4
REMARK    3  A    between atoms: C_4  and  N_5
REMARK    4  A    between atoms: N_5  and  C_6
REMARK    5  A    between atoms: C_7  and  C_12
REMARK    6  A    between atoms: C_15  and  C_17
REMARK    7  A    between atoms: N_21  and  C_22
REMARK    8  A    between atoms: C_22  and  C_23
REMARK                            x       y       z     vdW  Elec       q    Type
REMARK                         _______ _______ _______ _____ _____    ______ ____
ROOT
ATOM     12  C   UNL     1      -0.074   1.842  24.714  0.00  0.00    +0.206 A 
ATOM     13  N   UNL     1       0.120   1.948  25.509  0.00  0.00    -0.056 NA
ATOM     14  O   UNL     1      -0.199   2.668  25.756  0.00  0.00    -0.336 OA
ATOM     15  C   UNL     1      -0.591   3.007  25.114  0.00  0.00    +0.251 A 
ATOM     16  N   UNL     1      -0.514   2.496  24.470  0.00  0.00    -0.190 NA
ENDROOT
BRANCH  12   7
ATOM      6  C   UNL     1      -0.308   0.499  24.285  0.00  0.00    +0.151 A 
ATOM      7  C   UNL     1       0.134   1.196  24.246  0.00  0.00    +0.072 A 
ATOM      8  C   UNL     1       0.783   1.245  23.740  0.00  0.00    +0.008 A 
ATOM      9  C   UNL     1       0.991   0.599  23.272  0.00  0.00    +0.021 A 
ATOM     10  C   UNL     1       0.551  -0.098  23.310  0.00  0.00    +0.100 A 
ATOM     11  N   UNL     1      -0.099  -0.147  23.817  0.00  0.00    -0.228 NA
BRANCH   6   5
ATOM      5  N   UNL     1      -0.956   0.450  24.791  0.00  0.00    -0.218 NA
BRANCH   5   4
ATOM      4  C   UNL     1      -1.479  -0.186  24.731  0.00  0.00    +0.146 C 
BRANCH   4   3
ATOM      3  C   UNL     1      -2.017  -0.337  25.338  0.00  0.00    +0.166 C 
BRANCH   3   2
ATOM      1  C   UNL     1      -3.237  -1.005  25.665  0.00  0.00    +0.174 C 
ATOM      2  O   UNL     1      -2.801  -0.522  25.159  0.00  0.00    -0.349 OA
ENDBRANCH   3   2
ENDBRANCH   4   3
ENDBRANCH   5   4
ENDBRANCH   6   5
ENDBRANCH  12   7
BRANCH  15  17
ATOM     17  C   UNL     1      -0.990   3.728  25.115  0.00  0.00    +0.138 C 
ATOM     18  C   UNL     1      -0.673   4.458  24.894  0.00  0.00    +0.027 C 
ATOM     19  C   UNL     1      -1.263   5.029  24.979  0.00  0.00    +0.019 C 
ATOM     20  C   UNL     1      -1.944   4.652  25.252  0.00  0.00    +0.073 C 
ATOM     21  N   UNL     1      -1.775   3.848  25.336  0.00  0.00    -0.263 NA
BRANCH  21  22
ATOM     22  C   UNL     1      -2.300   3.268  25.596  0.00  0.00    +0.099 C 
BRANCH  22  23
ATOM     23  C   UNL     1      -3.113   3.393  25.542  0.00  0.00    -0.006 A 
ATOM     24  C   UNL     1      -3.528   3.130  24.878  0.00  0.00    -0.003 A 
ATOM     25  C   UNL     1      -4.342   3.255  24.825  0.00  0.00    -0.005 A 
ATOM     26  C   UNL     1      -4.741   3.642  25.434  0.00  0.00    -0.022 A 
ATOM     27  C   UNL     1      -5.555   3.767  25.380  0.00  0.00    +0.031 C 
ATOM     28  C   UNL     1      -4.327   3.904  26.097  0.00  0.00    -0.005 A 
ATOM     29  C   UNL     1      -3.513   3.779  26.151  0.00  0.00    -0.003 A 
ENDBRANCH  22  23
ENDBRANCH  21  22
ENDBRANCH  15  17
TORSDOF 8
ENDMDL
MODEL 9
REMARK VINA RESULT:      -9.3      1.473      3.548
REMARK  Name = 
REMARK  8 active torsions:
REMARK  status: ('A' for Active; 'I' for Inactive)
REMARK    1  A    between atoms: O_2  and  C_3
REMARK    2  A    between atoms: C_3  and  C_4
REMARK    3  A    between atoms: C_4  and  N_5
REMARK    4  A    between atoms: N_5  and  C_6
REMARK    5  A    between atoms: C_7  and  C_12
REMARK    6  A    between atoms: C_15  and  C_17
REMARK    7  A    between atoms: N_21  and  C_22
REMARK    8  A    between atoms: C_22  and  C_23
REMARK                            x       y       z     vdW  Elec       q    Type
REMARK                         _______ _______ _______ _____ _____    ______ ____
ROOT
ATOM     12  C   UNL     1      -0.916  -0.259  24.430  0.00  0.00    +0.206 A 
ATOM     13  N   UNL     1      -0.970  -0.500  25.217  0.00  0.00    -0.056 NA
ATOM     14  O   UNL     1      -1.745  -0.749  25.355  0.00  0.00    -0.336 OA
ATOM     15  C   UNL     1      -2.169  -0.662  24.653  0.00  0.00    +0.251 A 
ATOM     16  N   UNL     1      -1.657  -0.358  24.081  0.00  0.00    -0.190 NA
ENDROOT
BRANCH  12   7
ATOM      6  C   UNL     1      -0.023   0.822  24.153  0.00  0.00    +0.151 A 
ATOM      7  C   UNL     1      -0.240   0.031  24.057  0.00  0.00    +0.072 A 
ATOM      8  C   UNL     1       0.219  -0.468  23.588  0.00  0.00    +0.008 A 
ATOM      9  C   UNL     1       0.895  -0.178  23.215  0.00  0.00    +0.021 A 
ATOM     10  C   UNL     1       1.113   0.611  23.311  0.00  0.00    +0.100 A 
ATOM     11  N   UNL     1       0.654   1.112  23.781  0.00  0.00    -0.228 NA
BRANCH   6   5
ATOM      5  N   UNL     1      -0.481   1.321  24.622  0.00  0.00    -0.218 NA
BRANCH   5   4
ATOM      4  C   UNL     1      -0.321   2.131  24.643  0.00  0.00    +0.146 C 
BRANCH   4   3
ATOM      3  C   UNL     1      -0.729   2.619  25.167  0.00  0.00    +0.166 C 
BRANCH   3   2
ATOM      1  C   UNL     1      -1.403   3.848  25.444  0.00  0.00    +0.174 C 
ATOM      2  O   UNL     1      -0.977   3.368  24.927  0.00  0.00    -0.349 OA
ENDBRANCH   3   2
ENDBRANCH   4   3
ENDBRANCH   5   4
ENDBRANCH   6   5
ENDBRANCH  12   7
BRANCH  15  17
ATOM     17  C   UNL     1      -2.966  -0.844  24.542  0.00  0.00    +0.138 C 
ATOM     18  C   UNL     1      -3.263  -1.555  24.245  0.00  0.00    +0.027 C 
ATOM     19  C   UNL     1      -4.087  -1.499  24.227  0.00  0.00    +0.019 C 
ATOM     20  C   UNL     1      -4.297  -0.755  24.513  0.00  0.00    +0.073 C 
ATOM     21  N   UNL     1      -3.605  -0.350  24.708  0.00  0.00    -0.263 NA
BRANCH  21  22
ATOM     22  C   UNL     1      -3.560   0.414  25.014  0.00  0.00    +0.099 C 
BRANCH  22  23
ATOM     23  C   UNL     1      -4.221   0.907  24.994  0.00  0.00    -0.006 A 
ATOM     24  C   UNL     1      -4.268   1.513  24.435  0.00  0.00    -0.003 A 
ATOM     25  C   UNL     1      -4.929   2.005  24.415  0.00  0.00    -0.005 A 
ATOM     26  C   UNL     1      -5.544   1.892  24.953  0.00  0.00    -0.022 A 
ATOM     27  C   UNL     1      -6.206   2.384  24.933  0.00  0.00    +0.031 C 
ATOM     28  C   UNL     1      -5.498   1.286  25.512  0.00  0.00    -0.005 A 
ATOM     29  C   UNL     1      -4.836   0.794  25.532  0.00  0.00    -0.003 A 
ENDBRANCH  22  23
ENDBRANCH  21  22
ENDBRANCH  15  17
TORSDOF 8
ENDMDL
