REMARK  Name = 
REMARK  8 active torsions:
REMARK  status: ('A' for Active; 'I' for Inactive)
REMARK    1  A    between atoms: O_2  and  C_3
REMARK    2  A    between atoms: C_3  and  C_4
REMARK    3  A    between atoms: C_9  and  C_10
REMARK    4  A    between atoms: C_10  and  C_11
REMARK    5  A    between atoms: C_14  and  C_15
REMARK    6  A    between atoms: C_15  and  C_16
REMARK    7  A    between atoms: C_16  and  N_17
REMARK    8  A    between atoms: N_20  and  C_23
REMARK                            x       y       z     vdW  Elec       q    Type
REMARK                         _______ _______ _______ _____ _____    ______ ____
ROOT
ATOM      4  C   UNL     1       1.429  -4.125   0.000  0.00  0.00    +0.256 C 
ATOM      5  O   UNL     1       0.715  -3.712   0.000  0.00  0.00    -0.272 OA
ATOM      6  N   UNL     1       1.429  -4.950   0.000  0.00  0.00    -0.278 N 
ATOM      7  C   UNL     1       2.143  -5.362   0.000  0.00  0.00    +0.093 C 
ATOM      8  C   UNL     1       2.143  -6.188   0.000  0.00  0.00    +0.022 C 
ATOM      9  C   UNL     1       1.429  -6.600   0.000  0.00  0.00    +0.015 C 
ATOM     14  C   UNL     1       0.715  -6.188   0.000  0.00  0.00    +0.022 C 
ATOM     29  C   UNL     1       0.715  -5.362   0.000  0.00  0.00    +0.093 C 
ENDROOT
BRANCH   4   3
ATOM      3  C   UNL     1       2.143  -3.712   0.000  0.00  0.00    +0.227 C 
BRANCH   3   2
ATOM      1  C   UNL     1       2.858  -2.475   0.000  0.00  0.00    +0.175 C 
ATOM      2  O   UNL     1       2.143  -2.888   0.000  0.00  0.00    -0.342 OA
ENDBRANCH   3   2
ENDBRANCH   4   3
BRANCH   9  10
ATOM     10  C   UNL     1       1.429  -7.425   0.000  0.00  0.00    +0.114 C 
BRANCH  10  11
ATOM     11  C   UNL     1       2.143  -7.838   0.000  0.00  0.00    +0.365 C 
ATOM     12  O   UNL     1       2.858  -7.425   0.000  0.00  0.00    -0.246 OA
ATOM     13  O   UNL     1       2.143  -8.662   0.000  0.00  0.00    -0.246 OA
ENDBRANCH  10  11
ENDBRANCH   9  10
BRANCH  14  15
ATOM     15  C   UNL     1       0.000  -6.600   0.000  0.00  0.00    +0.019 C 
BRANCH  15  16
ATOM     16  C   UNL     1       0.000  -7.425   0.000  0.00  0.00    +0.072 C 
BRANCH  16  17
ATOM     17  N   UNL     1      -0.715  -7.838   0.000  0.00  0.00    -0.270 NA
ATOM     18  C   UNL     1      -0.715  -8.662   0.000  0.00  0.00    +0.094 C 
ATOM     19  C   UNL     1      -1.429  -9.075   0.000  0.00  0.00    +0.108 C 
ATOM     20  N   UNL     1      -2.143  -8.662   0.000  0.00  0.00    -0.305 N 
ATOM     21  C   UNL     1      -2.143  -7.838   0.000  0.00  0.00    +0.108 C 
ATOM     22  C   UNL     1      -1.429  -7.425   0.000  0.00  0.00    +0.094 C 
BRANCH  20  23
ATOM     23  C   UNL     1      -2.858  -9.075   0.000  0.00  0.00    +0.048 A 
ATOM     24  C   UNL     1      -2.858  -9.900   0.000  0.00  0.00    +0.015 A 
ATOM     25  C   UNL     1      -3.572 -10.312   0.000  0.00  0.00    +0.001 A 
ATOM     26  C   UNL     1      -4.287  -9.900   0.000  0.00  0.00    +0.000 A 
ATOM     27  C   UNL     1      -4.287  -9.075   0.000  0.00  0.00    +0.001 A 
ATOM     28  C   UNL     1      -3.572  -8.662   0.000  0.00  0.00    +0.015 A 
ENDBRANCH  20  23
ENDBRANCH  16  17
ENDBRANCH  15  16
ENDBRANCH  14  15
TORSDOF 8
