REMARK  Name = 
REMARK  3 active torsions:
REMARK  status: ('A' for Active; 'I' for Inactive)
REMARK    1  A    between atoms: C_6  and  C_7
REMARK    2  A    between atoms: C_7  and  N_8
REMARK    3  A    between atoms: N_14  and  C_15
REMARK                            x       y       z     vdW  Elec       q    Type
REMARK                         _______ _______ _______ _____ _____    ______ ____
ROOT
ATOM      8  N   UNL     1       3.352   1.935   0.000  0.00  0.00    -0.263 NA
ATOM      9  C   UNL     1       3.352   1.110   0.000  0.00  0.00    +0.094 C 
ATOM     10  C   UNL     1       2.638   0.698   0.000  0.00  0.00    +0.112 C 
ATOM     11  N   UNL     1       1.923   1.110   0.000  0.00  0.00    -0.261 N 
ATOM     12  C   UNL     1       1.923   1.935   0.000  0.00  0.00    +0.113 C 
ATOM     13  C   UNL     1       1.139   2.190   0.000  0.00  0.00    +0.116 C 
ATOM     14  N   UNL     1       0.654   1.523   0.000  0.00  0.00    -0.264 N 
ATOM     21  C   UNL     1       1.139   0.856   0.000  0.00  0.00    +0.307 C 
ATOM     22  O   UNL     1       0.884   0.071   0.000  0.00  0.00    -0.252 OA
ATOM     23  C   UNL     1       2.638   2.348   0.000  0.00  0.00    +0.094 C 
ENDROOT
BRANCH  14  15
ATOM     15  C   UNL     1      -0.171   1.523   0.000  0.00  0.00    +0.077 C 
ATOM     16  C   UNL     1      -0.584   0.808   0.000  0.00  0.00    +0.020 C 
ATOM     17  C   UNL     1      -1.409   0.808   0.000  0.00  0.00    +0.002 C 
ATOM     18  C   UNL     1      -1.821   1.523   0.000  0.00  0.00    +0.000 C 
ATOM     19  C   UNL     1      -1.409   2.237   0.000  0.00  0.00    +0.002 C 
ATOM     20  C   UNL     1      -0.584   2.237   0.000  0.00  0.00    +0.020 C 
ENDBRANCH  14  15
BRANCH   8   7
ATOM      7  C   UNL     1       4.067   2.348   0.000  0.00  0.00    +0.137 C 
BRANCH   7   6
ATOM      1  C   UNL     1       5.706   3.078   0.000  0.00  0.00    +0.132 C 
ATOM      2  N   UNL     1       5.535   2.271   0.000  0.00  0.00    -0.311 N 
ATOM      3  C   UNL     1       6.087   1.658   0.000  0.00  0.00    +0.098 A 
ATOM      4  C   UNL     1       5.674   0.943   0.000  0.00  0.00    +0.119 A 
ATOM      5  N   UNL     1       4.867   1.115   0.000  0.00  0.00    -0.228 NA
ATOM      6  C   UNL     1       4.781   1.935   0.000  0.00  0.00    +0.137 A 
ENDBRANCH   7   6
ENDBRANCH   8   7
TORSDOF 3
