MODEL 1
REMARK VINA RESULT:     -15.5      0.000      0.000
REMARK  Name = 
REMARK  5 active torsions:
REMARK  status: ('A' for Active; 'I' for Inactive)
REMARK    1  A    between atoms: O_2  and  C_3
REMARK    2  A    between atoms: C_6  and  C_9
REMARK    3  A    between atoms: C_20  and  N_21
REMARK    4  A    between atoms: C_22  and  C_24
REMARK    5  A    between atoms: C_26  and  C_30
REMARK                            x       y       z     vdW  Elec       q    Type
REMARK                         _______ _______ _______ _____ _____    ______ ____
ROOT
ATOM      9  C   UNL     1      -2.014  -0.791  25.024  0.00  0.00    +0.249 C 
ATOM     10  O   UNL     1      -1.189  -0.794  25.268  0.00  0.00    -0.270 OA
ATOM     11  N   UNL     1      -2.283  -1.583  24.787  0.00  0.00    -0.276 N 
ATOM     12  C   UNL     1      -2.154  -2.399  24.662  0.00  0.00    +0.096 C 
ATOM     13  C   UNL     1      -3.052  -2.661  24.344  0.00  0.00    +0.043 C 
ATOM     14  C   UNL     1      -3.724  -3.032  24.071  0.00  0.00    +0.011 C 
ATOM     15  C   UNL     1      -3.529  -2.385  24.257  0.00  0.00    +0.058 C 
ATOM     16  C   UNL     1      -2.656  -2.147  24.564  0.00  0.00    +0.099 C 
ATOM     17  C   UNL     1      -3.852  -1.528  24.332  0.00  0.00    +0.041 A 
ATOM     18  C   UNL     1      -4.542  -1.091  24.215  0.00  0.00    +0.014 A 
ATOM     19  C   UNL     1      -4.550  -0.282  24.374  0.00  0.00    +0.023 A 
ATOM     20  C   UNL     1      -3.868   0.091  24.650  0.00  0.00    +0.130 A 
ATOM     33  C   UNL     1      -3.178  -0.345  24.768  0.00  0.00    +0.276 A 
ATOM     34  O   UNL     1      -3.020   0.477  24.978  0.00  0.00    -0.266 OA
ATOM     35  N   UNL     1      -3.170  -1.155  24.609  0.00  0.00    -0.298 N 
ATOM     36  C   UNL     1      -3.381  -1.763  24.425  0.00  0.00    +0.110 C 
ENDROOT
BRANCH   9   6
ATOM      3  C   UNL     1      -4.248   1.020  24.799  0.00  0.00    +0.139 A 
ATOM      4  C   UNL     1      -3.707   0.671  24.169  0.00  0.00    +0.037 A 
ATOM      5  C   UNL     1      -2.978   0.084  24.216  0.00  0.00    +0.008 A 
ATOM      6  C   UNL     1      -2.708  -0.226  24.931  0.00  0.00    +0.054 A 
ATOM      7  C   UNL     1      -3.081  -0.021  25.637  0.00  0.00    +0.008 A 
ATOM      8  C   UNL     1      -3.726   0.495  25.629  0.00  0.00    +0.037 A 
BRANCH   3   2
ATOM      1  C   UNL     1      -5.917   1.793  25.017  0.00  0.00    +0.252 C 
ATOM      2  O   UNL     1      -5.064   1.680  24.725  0.00  0.00    -0.471 OA
ENDBRANCH   3   2
ENDBRANCH   9   6
BRANCH  20  21
ATOM     21  N   UNL     1      -3.782   0.927  24.842  0.00  0.00    -0.171 NA
ATOM     22  C   UNL     1      -3.514   1.288  23.945  0.00  0.00    +0.269 C 
ATOM     23  O   UNL     1      -3.350   1.028  23.079  0.00  0.00    -0.268 OA
BRANCH  22  24
ATOM     24  C   UNL     1      -3.433   2.181  24.193  0.00  0.00    +0.056 A 
ATOM     25  C   UNL     1      -3.130   2.502  24.890  0.00  0.00    +0.011 A 
ATOM     26  C   UNL     1      -3.112   3.322  24.992  0.00  0.00    +0.080 A 
ATOM     27  C   UNL     1      -3.396   3.818  24.397  0.00  0.00    +0.007 A 
ATOM     28  C   UNL     1      -3.699   3.496  23.702  0.00  0.00    +0.000 A 
ATOM     29  C   UNL     1      -3.717   2.678  23.599  0.00  0.00    +0.005 A 
BRANCH  26  30
ATOM     30  C   UNL     1      -2.791   3.721  25.736  0.00  0.00    +0.388 C 
ATOM     31  O   UNL     1      -1.981   3.768  26.005  0.00  0.00    -0.241 OA
ATOM     32  O   UNL     1      -3.148   4.166  26.395  0.00  0.00    -0.241 OA
ENDBRANCH  26  30
ENDBRANCH  22  24
ENDBRANCH  20  21
TORSDOF 5
ENDMDL
MODEL 2
REMARK VINA RESULT:     -13.9      1.855      4.977
REMARK  Name = 
REMARK  5 active torsions:
REMARK  status: ('A' for Active; 'I' for Inactive)
REMARK    1  A    between atoms: O_2  and  C_3
REMARK    2  A    between atoms: C_6  and  C_9
REMARK    3  A    between atoms: C_20  and  N_21
REMARK    4  A    between atoms: C_22  and  C_24
REMARK    5  A    between atoms: C_26  and  C_30
REMARK                            x       y       z     vdW  Elec       q    Type
REMARK                         _______ _______ _______ _____ _____    ______ ____
ROOT
ATOM      9  C   UNL     1      -2.969   2.847  25.165  0.00  0.00    +0.249 C 
ATOM     10  O   UNL     1      -3.798   2.886  25.391  0.00  0.00    -0.270 OA
ATOM     11  N   UNL     1      -2.583   3.624  25.218  0.00  0.00    -0.276 N 
ATOM     12  C   UNL     1      -2.593   4.443  25.384  0.00  0.00    +0.096 C 
ATOM     13  C   UNL     1      -1.652   4.664  25.181  0.00  0.00    +0.043 C 
ATOM     14  C   UNL     1      -0.922   5.005  25.056  0.00  0.00    +0.011 C 
ATOM     15  C   UNL     1      -1.213   4.368  25.006  0.00  0.00    +0.058 C 
ATOM     16  C   UNL     1      -2.125   4.170  25.207  0.00  0.00    +0.099 C 
ATOM     17  C   UNL     1      -1.012   3.500  24.781  0.00  0.00    +0.041 A 
ATOM     18  C   UNL     1      -0.382   3.034  24.522  0.00  0.00    +0.014 A 
ATOM     19  C   UNL     1      -0.493   2.227  24.391  0.00  0.00    +0.023 A 
ATOM     20  C   UNL     1      -1.233   1.886  24.518  0.00  0.00    +0.130 A 
ATOM     33  C   UNL     1      -1.863   2.352  24.776  0.00  0.00    +0.276 A 
ATOM     34  O   UNL     1      -2.142   1.539  24.687  0.00  0.00    -0.266 OA
ATOM     35  N   UNL     1      -1.753   3.158  24.907  0.00  0.00    -0.298 N 
ATOM     36  C   UNL     1      -1.452   3.755  24.947  0.00  0.00    +0.110 C 
ENDROOT
BRANCH   9   6
ATOM      3  C   UNL     1      -1.028   0.944  24.200  0.00  0.00    +0.139 A 
ATOM      4  C   UNL     1      -1.134   1.316  25.015  0.00  0.00    +0.037 A 
ATOM      5  C   UNL     1      -1.753   1.933  25.351  0.00  0.00    +0.008 A 
ATOM      6  C   UNL     1      -2.353   2.253  24.885  0.00  0.00    +0.054 A 
ATOM      7  C   UNL     1      -2.424   2.032  24.094  0.00  0.00    +0.008 A 
ATOM      8  C   UNL     1      -1.894   1.491  23.767  0.00  0.00    +0.037 A 
BRANCH   3   2
ATOM      1  C   UNL     1       0.298   0.140  23.187  0.00  0.00    +0.252 C 
ATOM      2  O   UNL     1      -0.323   0.250  23.840  0.00  0.00    -0.471 OA
ENDBRANCH   3   2
ENDBRANCH   9   6
BRANCH  20  21
ATOM     21  N   UNL     1      -1.441   1.057  24.407  0.00  0.00    -0.171 NA
ATOM     22  C   UNL     1      -1.189   0.690  25.307  0.00  0.00    +0.269 C 
ATOM     23  O   UNL     1      -0.843   0.941  26.120  0.00  0.00    -0.268 OA
BRANCH  22  24
ATOM     24  C   UNL     1      -1.427  -0.195  25.147  0.00  0.00    +0.056 A 
ATOM     25  C   UNL     1      -2.118  -0.497  24.813  0.00  0.00    +0.011 A 
ATOM     26  C   UNL     1      -2.211  -1.313  24.724  0.00  0.00    +0.080 A 
ATOM     27  C   UNL     1      -1.612  -1.825  24.969  0.00  0.00    +0.007 A 
ATOM     28  C   UNL     1      -0.922  -1.523  25.302  0.00  0.00    +0.000 A 
ATOM     29  C   UNL     1      -0.829  -0.708  25.392  0.00  0.00    +0.005 A 
BRANCH  26  30
ATOM     30  C   UNL     1      -2.948  -1.691  24.364  0.00  0.00    +0.388 C 
ATOM     31  O   UNL     1      -3.106  -2.519  24.228  0.00  0.00    -0.241 OA
ATOM     32  O   UNL     1      -3.703  -1.386  24.051  0.00  0.00    -0.241 OA
ENDBRANCH  26  30
ENDBRANCH  22  24
ENDBRANCH  20  21
TORSDOF 5
ENDMDL
MODEL 3
REMARK VINA RESULT:     -13.7      1.595      2.691
REMARK  Name = 
REMARK  5 active torsions:
REMARK  status: ('A' for Active; 'I' for Inactive)
REMARK    1  A    between atoms: O_2  and  C_3
REMARK    2  A    between atoms: C_6  and  C_9
REMARK    3  A    between atoms: C_20  and  N_21
REMARK    4  A    between atoms: C_22  and  C_24
REMARK    5  A    between atoms: C_26  and  C_30
REMARK                            x       y       z     vdW  Elec       q    Type
REMARK                         _______ _______ _______ _____ _____    ______ ____
ROOT
ATOM      9  C   UNL     1      -3.633  -0.261  25.092  0.00  0.00    +0.249 C 
ATOM     10  O   UNL     1      -4.406   0.028  25.332  0.00  0.00    -0.270 OA
ATOM     11  N   UNL     1      -3.632  -1.122  24.975  0.00  0.00    -0.276 N 
ATOM     12  C   UNL     1      -4.011  -1.866  24.972  0.00  0.00    +0.096 C 
ATOM     13  C   UNL     1      -3.252  -2.437  24.698  0.00  0.00    +0.043 C 
ATOM     14  C   UNL     1      -2.740  -3.034  24.484  0.00  0.00    +0.011 C 
ATOM     15  C   UNL     1      -2.718  -2.338  24.573  0.00  0.00    +0.058 C 
ATOM     16  C   UNL     1      -3.461  -1.800  24.838  0.00  0.00    +0.099 C 
ATOM     17  C   UNL     1      -2.143  -1.623  24.521  0.00  0.00    +0.041 A 
ATOM     18  C   UNL     1      -1.358  -1.445  24.342  0.00  0.00    +0.014 A 
ATOM     19  C   UNL     1      -1.094  -0.664  24.379  0.00  0.00    +0.023 A 
ATOM     20  C   UNL     1      -1.615  -0.062  24.596  0.00  0.00    +0.130 A 
ATOM     33  C   UNL     1      -2.400  -0.241  24.775  0.00  0.00    +0.276 A 
ATOM     34  O   UNL     1      -2.287   0.611  24.862  0.00  0.00    -0.266 OA
ATOM     35  N   UNL     1      -2.664  -1.021  24.738  0.00  0.00    -0.298 N 
ATOM     36  C   UNL     1      -2.659  -1.684  24.646  0.00  0.00    +0.110 C 
ENDROOT
BRANCH   9   6
ATOM      3  C   UNL     1      -0.998   0.734  24.469  0.00  0.00    +0.139 A 
ATOM      4  C   UNL     1      -1.304   0.289  25.191  0.00  0.00    +0.037 A 
ATOM      5  C   UNL     1      -2.150  -0.043  25.415  0.00  0.00    +0.008 A 
ATOM      6  C   UNL     1      -2.802   0.041  24.918  0.00  0.00    +0.054 A 
ATOM      7  C   UNL     1      -2.723   0.428  24.194  0.00  0.00    +0.008 A 
ATOM      8  C   UNL     1      -1.990   0.732  23.967  0.00  0.00    +0.037 A 
BRANCH   3   2
ATOM      1  C   UNL     1       0.595   1.070  23.584  0.00  0.00    +0.252 C 
ATOM      2  O   UNL     1      -0.038   1.100  24.234  0.00  0.00    -0.471 OA
ENDBRANCH   3   2
ENDBRANCH   9   6
BRANCH  20  21
ATOM     21  N   UNL     1      -1.430   0.777  24.662  0.00  0.00    -0.171 NA
ATOM     22  C   UNL     1      -1.110   0.814  25.612  0.00  0.00    +0.269 C 
ATOM     23  O   UNL     1      -0.970   0.285  26.350  0.00  0.00    -0.268 OA
BRANCH  22  24
ATOM     24  C   UNL     1      -0.923   1.725  25.642  0.00  0.00    +0.056 A 
ATOM     25  C   UNL     1      -1.353   2.355  25.328  0.00  0.00    +0.011 A 
ATOM     26  C   UNL     1      -1.079   3.129  25.422  0.00  0.00    +0.080 A 
ATOM     27  C   UNL     1      -0.376   3.270  25.831  0.00  0.00    +0.007 A 
ATOM     28  C   UNL     1       0.053   2.639  26.144  0.00  0.00    +0.000 A 
ATOM     29  C   UNL     1      -0.221   1.867  26.050  0.00  0.00    +0.005 A 
BRANCH  26  30
ATOM     30  C   UNL     1      -1.512   3.851  25.098  0.00  0.00    +0.388 C 
ATOM     31  O   UNL     1      -1.196   4.624  24.921  0.00  0.00    -0.241 OA
ATOM     32  O   UNL     1      -2.336   4.018  24.864  0.00  0.00    -0.241 OA
ENDBRANCH  26  30
ENDBRANCH  22  24
ENDBRANCH  20  21
TORSDOF 5
ENDMDL
MODEL 4
REMARK VINA RESULT:     -13.6      1.335      3.961
REMARK  Name = 
REMARK  5 active torsions:
REMARK  status: ('A' for Active; 'I' for Inactive)
REMARK    1  A    between atoms: O_2  and  C_3
REMARK    2  A    between atoms: C_6  and  C_9
REMARK    3  A    between atoms: C_20  and  N_21
REMARK    4  A    between atoms: C_22  and  C_24
REMARK    5  A    between atoms: C_26  and  C_30
REMARK                            x       y       z     vdW  Elec       q    Type
REMARK                         _______ _______ _______ _____ _____    ______ ____
ROOT
ATOM      9  C   UNL     1      -3.423   2.489  24.497  0.00  0.00    +0.249 C 
ATOM     10  O   UNL     1      -3.009   3.230  24.362  0.00  0.00    -0.270 OA
ATOM     11  N   UNL     1      -4.247   2.620  24.739  0.00  0.00    -0.276 N 
ATOM     12  C   UNL     1      -4.892   3.119  24.923  0.00  0.00    +0.096 C 
ATOM     13  C   UNL     1      -5.574   2.436  25.136  0.00  0.00    +0.043 C 
ATOM     14  C   UNL     1      -6.236   2.008  25.340  0.00  0.00    +0.011 C 
ATOM     15  C   UNL     1      -5.574   1.879  25.145  0.00  0.00    +0.058 C 
ATOM     16  C   UNL     1      -4.926   2.550  24.942  0.00  0.00    +0.099 C 
ATOM     17  C   UNL     1      -4.993   1.185  24.984  0.00  0.00    +0.041 A 
ATOM     18  C   UNL     1      -4.962   0.361  24.988  0.00  0.00    +0.014 A 
ATOM     19  C   UNL     1      -4.262  -0.026  24.787  0.00  0.00    +0.023 A 
ATOM     20  C   UNL     1      -3.593   0.411  24.581  0.00  0.00    +0.130 A 
ATOM     33  C   UNL     1      -3.624   1.235  24.577  0.00  0.00    +0.276 A 
ATOM     34  O   UNL     1      -2.829   0.990  24.345  0.00  0.00    -0.266 OA
ATOM     35  N   UNL     1      -4.324   1.622  24.778  0.00  0.00    -0.298 N 
ATOM     36  C   UNL     1      -4.959   1.719  24.965  0.00  0.00    +0.110 C 
ENDROOT
BRANCH   9   6
ATOM      3  C   UNL     1      -2.976  -0.356  24.335  0.00  0.00    +0.139 A 
ATOM      4  C   UNL     1      -3.026   0.193  25.048  0.00  0.00    +0.037 A 
ATOM      5  C   UNL     1      -3.170   1.115  25.126  0.00  0.00    +0.008 A 
ATOM      6  C   UNL     1      -3.282   1.600  24.469  0.00  0.00    +0.054 A 
ATOM      7  C   UNL     1      -3.271   1.278  23.710  0.00  0.00    +0.008 A 
ATOM      8  C   UNL     1      -3.147   0.468  23.608  0.00  0.00    +0.037 A 
BRANCH   3   2
ATOM      1  C   UNL     1      -3.207  -2.158  23.974  0.00  0.00    +0.252 C 
ATOM      2  O   UNL     1      -2.813  -1.394  24.267  0.00  0.00    -0.471 OA
ENDBRANCH   3   2
ENDBRANCH   9   6
BRANCH  20  21
ATOM     21  N   UNL     1      -2.823   0.095  24.358  0.00  0.00    -0.171 NA
ATOM     22  C   UNL     1      -2.404  -0.009  25.264  0.00  0.00    +0.269 C 
ATOM     23  O   UNL     1      -2.573   0.117  26.158  0.00  0.00    -0.268 OA
BRANCH  22  24
ATOM     24  C   UNL     1      -1.585  -0.348  24.981  0.00  0.00    +0.056 A 
ATOM     25  C   UNL     1      -1.090  -0.078  24.378  0.00  0.00    +0.011 A 
ATOM     26  C   UNL     1      -0.380  -0.470  24.222  0.00  0.00    +0.080 A 
ATOM     27  C   UNL     1      -0.168  -1.131  24.668  0.00  0.00    +0.007 A 
ATOM     28  C   UNL     1      -0.663  -1.400  25.270  0.00  0.00    +0.000 A 
ATOM     29  C   UNL     1      -1.372  -1.008  25.426  0.00  0.00    +0.005 A 
BRANCH  26  30
ATOM     30  C   UNL     1       0.194  -0.214  23.575  0.00  0.00    +0.388 C 
ATOM     31  O   UNL     1       0.515   0.563  23.427  0.00  0.00    -0.241 OA
ATOM     32  O   UNL     1       0.601  -0.622  22.919  0.00  0.00    -0.241 OA
ENDBRANCH  26  30
ENDBRANCH  22  24
ENDBRANCH  20  21
TORSDOF 5
ENDMDL
MODEL 5
REMARK VINA RESULT:     -13.4      1.488      2.624
REMARK  Name = 
REMARK  5 active torsions:
REMARK  status: ('A' for Active; 'I' for Inactive)
REMARK    1  A    between atoms: O_2  and  C_3
REMARK    2  A    between atoms: C_6  and  C_9
REMARK    3  A    between atoms: C_20  and  N_21
REMARK    4  A    between atoms: C_22  and  C_24
REMARK    5  A    between atoms: C_26  and  C_30
REMARK                            x       y       z     vdW  Elec       q    Type
REMARK                         _______ _______ _______ _____ _____    ______ ____
ROOT
ATOM      9  C   UNL     1      -2.080  -0.457  25.333  0.00  0.00    +0.249 C 
ATOM     10  O   UNL     1      -2.313  -1.021  25.940  0.00  0.00    -0.270 OA
ATOM     11  N   UNL     1      -1.292  -0.636  25.012  0.00  0.00    -0.276 N 
ATOM     12  C   UNL     1      -0.596  -1.097  24.980  0.00  0.00    +0.096 C 
ATOM     13  C   UNL     1      -0.104  -0.605  24.278  0.00  0.00    +0.043 C 
ATOM     14  C   UNL     1       0.421  -0.317  23.726  0.00  0.00    +0.011 C 
ATOM     15  C   UNL     1      -0.216  -0.154  23.970  0.00  0.00    +0.058 C 
ATOM     16  C   UNL     1      -0.679  -0.640  24.650  0.00  0.00    +0.099 C 
ATOM     17  C   UNL     1      -0.893   0.459  23.865  0.00  0.00    +0.041 A 
ATOM     18  C   UNL     1      -1.088   1.129  23.426  0.00  0.00    +0.014 A 
ATOM     19  C   UNL     1      -1.812   1.504  23.546  0.00  0.00    +0.023 A 
ATOM     20  C   UNL     1      -2.342   1.210  24.106  0.00  0.00    +0.130 A 
ATOM     33  C   UNL     1      -2.147   0.540  24.546  0.00  0.00    +0.276 A 
ATOM     34  O   UNL     1      -2.931   0.809  24.790  0.00  0.00    -0.266 OA
ATOM     35  N   UNL     1      -1.423   0.165  24.425  0.00  0.00    -0.298 N 
ATOM     36  C   UNL     1      -0.817   0.030  24.176  0.00  0.00    +0.110 C 
ENDROOT
BRANCH   9   6
ATOM      3  C   UNL     1      -3.117   1.845  23.938  0.00  0.00    +0.139 A 
ATOM      4  C   UNL     1      -2.492   1.780  24.585  0.00  0.00    +0.037 A 
ATOM      5  C   UNL     1      -2.140   1.048  25.051  0.00  0.00    +0.008 A 
ATOM      6  C   UNL     1      -2.389   0.275  24.910  0.00  0.00    +0.054 A 
ATOM      7  C   UNL     1      -2.967   0.124  24.342  0.00  0.00    +0.008 A 
ATOM      8  C   UNL     1      -3.297   0.748  23.914  0.00  0.00    +0.037 A 
BRANCH   3   2
ATOM      1  C   UNL     1      -3.640   2.996  22.584  0.00  0.00    +0.252 C 
ATOM      2  O   UNL     1      -3.500   2.680  23.424  0.00  0.00    -0.471 OA
ENDBRANCH   3   2
ENDBRANCH   9   6
BRANCH  20  21
ATOM     21  N   UNL     1      -3.117   1.534  24.299  0.00  0.00    -0.171 NA
ATOM     22  C   UNL     1      -2.858   2.214  24.990  0.00  0.00    +0.269 C 
ATOM     23  O   UNL     1      -2.127   2.558  25.429  0.00  0.00    -0.268 OA
BRANCH  22  24
ATOM     24  C   UNL     1      -3.712   2.537  25.169  0.00  0.00    +0.056 A 
ATOM     25  C   UNL     1      -4.428   2.129  25.190  0.00  0.00    +0.011 A 
ATOM     26  C   UNL     1      -5.128   2.533  25.363  0.00  0.00    +0.080 A 
ATOM     27  C   UNL     1      -5.108   3.344  25.515  0.00  0.00    +0.007 A 
ATOM     28  C   UNL     1      -4.391   3.751  25.494  0.00  0.00    +0.000 A 
ATOM     29  C   UNL     1      -3.693   3.347  25.321  0.00  0.00    +0.005 A 
BRANCH  26  30
ATOM     30  C   UNL     1      -5.936   2.132  25.398  0.00  0.00    +0.388 C 
ATOM     31  O   UNL     1      -6.351   1.835  26.083  0.00  0.00    -0.241 OA
ATOM     32  O   UNL     1      -6.540   1.918  24.806  0.00  0.00    -0.241 OA
ENDBRANCH  26  30
ENDBRANCH  22  24
ENDBRANCH  20  21
TORSDOF 5
ENDMDL
MODEL 6
REMARK VINA RESULT:     -13.3      1.642      4.358
REMARK  Name = 
REMARK  5 active torsions:
REMARK  status: ('A' for Active; 'I' for Inactive)
REMARK    1  A    between atoms: O_2  and  C_3
REMARK    2  A    between atoms: C_6  and  C_9
REMARK    3  A    between atoms: C_20  and  N_21
REMARK    4  A    between atoms: C_22  and  C_24
REMARK    5  A    between atoms: C_26  and  C_30
REMARK                            x       y       z     vdW  Elec       q    Type
REMARK                         _______ _______ _______ _____ _____    ______ ____
ROOT
ATOM      9  C   UNL     1      -0.693   2.561  25.072  0.00  0.00    +0.249 C 
ATOM     10  O   UNL     1       0.096   2.223  25.114  0.00  0.00    -0.270 OA
ATOM     11  N   UNL     1      -0.671   3.430  25.048  0.00  0.00    -0.276 N 
ATOM     12  C   UNL     1      -0.260   4.157  25.043  0.00  0.00    +0.096 C 
ATOM     13  C   UNL     1      -1.026   4.779  24.994  0.00  0.00    +0.043 C 
ATOM     14  C   UNL     1      -1.538   5.412  24.954  0.00  0.00    +0.011 C 
ATOM     15  C   UNL     1      -1.580   4.712  24.973  0.00  0.00    +0.058 C 
ATOM     16  C   UNL     1      -0.829   4.124  25.021  0.00  0.00    +0.099 C 
ATOM     17  C   UNL     1      -2.191   4.026  24.967  0.00  0.00    +0.041 A 
ATOM     18  C   UNL     1      -3.005   3.894  24.938  0.00  0.00    +0.014 A 
ATOM     19  C   UNL     1      -3.298   3.123  24.948  0.00  0.00    +0.023 A 
ATOM     20  C   UNL     1      -2.777   2.484  24.988  0.00  0.00    +0.130 A 
ATOM     33  C   UNL     1      -1.963   2.616  25.018  0.00  0.00    +0.276 A 
ATOM     34  O   UNL     1      -2.103   1.764  25.037  0.00  0.00    -0.266 OA
ATOM     35  N   UNL     1      -1.671   3.387  25.008  0.00  0.00    -0.298 N 
ATOM     36  C   UNL     1      -1.658   4.056  24.989  0.00  0.00    +0.110 C 
ENDROOT
BRANCH   9   6
ATOM      3  C   UNL     1      -3.456   1.732  25.054  0.00  0.00    +0.139 A 
ATOM      4  C   UNL     1      -2.930   2.042  24.391  0.00  0.00    +0.037 A 
ATOM      5  C   UNL     1      -2.034   2.317  24.372  0.00  0.00    +0.008 A 
ATOM      6  C   UNL     1      -1.557   2.307  25.044  0.00  0.00    +0.054 A 
ATOM      7  C   UNL     1      -1.862   2.050  25.765  0.00  0.00    +0.008 A 
ATOM      8  C   UNL     1      -2.648   1.802  25.814  0.00  0.00    +0.037 A 
BRANCH   3   2
ATOM      1  C   UNL     1      -5.261   1.608  25.452  0.00  0.00    +0.252 C 
ATOM      2  O   UNL     1      -4.464   1.427  25.056  0.00  0.00    -0.471 OA
ENDBRANCH   3   2
ENDBRANCH   9   6
BRANCH  20  21
ATOM     21  N   UNL     1      -2.990   1.649  25.004  0.00  0.00    -0.171 NA
ATOM     22  C   UNL     1      -3.008   1.452  24.020  0.00  0.00    +0.269 C 
ATOM     23  O   UNL     1      -2.881   1.847  23.200  0.00  0.00    -0.268 OA
BRANCH  22  24
ATOM     24  C   UNL     1      -3.239   0.553  24.080  0.00  0.00    +0.056 A 
ATOM     25  C   UNL     1      -3.017  -0.004  24.646  0.00  0.00    +0.011 A 
ATOM     26  C   UNL     1      -3.292  -0.781  24.589  0.00  0.00    +0.080 A 
ATOM     27  C   UNL     1      -3.788  -0.998  23.966  0.00  0.00    +0.007 A 
ATOM     28  C   UNL     1      -4.009  -0.440  23.401  0.00  0.00    +0.000 A 
ATOM     29  C   UNL     1      -3.734   0.336  23.458  0.00  0.00    +0.005 A 
BRANCH  26  30
ATOM     30  C   UNL     1      -3.078  -1.427  25.182  0.00  0.00    +0.388 C 
ATOM     31  O   UNL     1      -2.361  -1.890  25.227  0.00  0.00    -0.241 OA
ATOM     32  O   UNL     1      -3.480  -1.789  25.867  0.00  0.00    -0.241 OA
ENDBRANCH  26  30
ENDBRANCH  22  24
ENDBRANCH  20  21
TORSDOF 5
ENDMDL
MODEL 7
REMARK VINA RESULT:     -13.1      1.408      4.260
REMARK  Name = 
REMARK  5 active torsions:
REMARK  status: ('A' for Active; 'I' for Inactive)
REMARK    1  A    between atoms: O_2  and  C_3
REMARK    2  A    between atoms: C_6  and  C_9
REMARK    3  A    between atoms: C_20  and  N_21
REMARK    4  A    between atoms: C_22  and  C_24
REMARK    5  A    between atoms: C_26  and  C_30
REMARK                            x       y       z     vdW  Elec       q    Type
REMARK                         _______ _______ _______ _____ _____    ______ ____
ROOT
ATOM      9  C   UNL     1      -2.925   1.794  23.247  0.00  0.00    +0.249 C 
ATOM     10  O   UNL     1      -2.442   1.918  22.546  0.00  0.00    -0.270 OA
ATOM     11  N   UNL     1      -3.383   2.503  23.453  0.00  0.00    -0.276 N 
ATOM     12  C   UNL     1      -3.618   3.294  23.322  0.00  0.00    +0.096 C 
ATOM     13  C   UNL     1      -4.244   3.409  24.077  0.00  0.00    +0.043 C 
ATOM     14  C   UNL     1      -4.779   3.660  24.637  0.00  0.00    +0.011 C 
ATOM     15  C   UNL     1      -4.419   3.077  24.490  0.00  0.00    +0.058 C 
ATOM     16  C   UNL     1      -3.816   2.981  23.755  0.00  0.00    +0.099 C 
ATOM     17  C   UNL     1      -4.283   2.218  24.789  0.00  0.00    +0.041 A 
ATOM     18  C   UNL     1      -4.522   1.703  25.387  0.00  0.00    +0.014 A 
ATOM     19  C   UNL     1      -4.219   0.936  25.416  0.00  0.00    +0.023 A 
ATOM     20  C   UNL     1      -3.677   0.685  24.847  0.00  0.00    +0.130 A 
ATOM     33  C   UNL     1      -3.438   1.200  24.249  0.00  0.00    +0.276 A 
ATOM     34  O   UNL     1      -3.033   0.445  24.137  0.00  0.00    -0.266 OA
ATOM     35  N   UNL     1      -3.741   1.966  24.220  0.00  0.00    -0.298 N 
ATOM     36  C   UNL     1      -4.096   2.510  24.382  0.00  0.00    +0.110 C 
ENDROOT
BRANCH   9   6
ATOM      3  C   UNL     1      -3.476  -0.237  25.220  0.00  0.00    +0.139 A 
ATOM      4  C   UNL     1      -3.968   0.057  24.525  0.00  0.00    +0.037 A 
ATOM      5  C   UNL     1      -3.812   0.712  23.873  0.00  0.00    +0.008 A 
ATOM      6  C   UNL     1      -3.117   1.156  23.853  0.00  0.00    +0.054 A 
ATOM      7  C   UNL     1      -2.530   1.031  24.418  0.00  0.00    +0.008 A 
ATOM      8  C   UNL     1      -2.638   0.461  25.005  0.00  0.00    +0.037 A 
BRANCH   3   2
ATOM      1  C   UNL     1      -3.592  -1.139  26.834  0.00  0.00    +0.252 C 
ATOM      2  O   UNL     1      -3.669  -0.977  25.944  0.00  0.00    -0.471 OA
ENDBRANCH   3   2
ENDBRANCH   9   6
BRANCH  20  21
ATOM     21  N   UNL     1      -3.310  -0.093  24.797  0.00  0.00    -0.171 NA
ATOM     22  C   UNL     1      -4.023  -0.595  24.301  0.00  0.00    +0.269 C 
ATOM     23  O   UNL     1      -4.855  -0.489  23.925  0.00  0.00    -0.268 OA
BRANCH  22  24
ATOM     24  C   UNL     1      -3.592  -1.419  24.269  0.00  0.00    +0.056 A 
ATOM     25  C   UNL     1      -2.789  -1.590  24.350  0.00  0.00    +0.011 A 
ATOM     26  C   UNL     1      -2.527  -2.371  24.302  0.00  0.00    +0.080 A 
ATOM     27  C   UNL     1      -3.069  -2.980  24.172  0.00  0.00    +0.007 A 
ATOM     28  C   UNL     1      -3.871  -2.809  24.091  0.00  0.00    +0.000 A 
ATOM     29  C   UNL     1      -4.133  -2.028  24.139  0.00  0.00    +0.005 A 
BRANCH  26  30
ATOM     30  C   UNL     1      -1.660  -2.609  24.385  0.00  0.00    +0.388 C 
ATOM     31  O   UNL     1      -1.041  -2.573  23.797  0.00  0.00    -0.241 OA
ATOM     32  O   UNL     1      -1.172  -2.935  25.031  0.00  0.00    -0.241 OA
ENDBRANCH  26  30
ENDBRANCH  22  24
ENDBRANCH  20  21
TORSDOF 5
ENDMDL
