MODEL 1
REMARK VINA RESULT:     -12.0      0.000      0.000
REMARK  Name = 
REMARK  6 active torsions:
REMARK  status: ('A' for Active; 'I' for Inactive)
REMARK    1  A    between atoms: C_2  and  C_3
REMARK    2  A    between atoms: C_2  and  C_25
REMARK    3  A    between atoms: C_10  and  N_11
REMARK    4  A    between atoms: C_12  and  C_14
REMARK    5  A    between atoms: N_27  and  C_28
REMARK    6  A    between atoms: C_28  and  C_29
REMARK                            x       y       z     vdW  Elec       q    Type
REMARK                         _______ _______ _______ _____ _____    ______ ____
ROOT
ATOM      3  C   UNL     1      -4.393   2.845  24.554  0.00  0.00    +0.039 C 
ATOM      4  C   UNL     1      -5.041   2.818  25.066  0.00  0.00    +0.003 C 
ATOM      5  C   UNL     1      -5.322   2.091  25.336  0.00  0.00    +0.000 C 
ATOM      6  C   UNL     1      -4.957   1.392  25.095  0.00  0.00    +0.002 C 
ATOM      7  C   UNL     1      -5.603   1.365  25.606  0.00  0.00    +0.000 C 
ATOM      8  C   UNL     1      -5.238   0.665  25.365  0.00  0.00    +0.002 C 
ATOM      9  C   UNL     1      -4.873  -0.034  25.124  0.00  0.00    +0.022 C 
ATOM     10  C   UNL     1      -4.226  -0.006  24.612  0.00  0.00    +0.096 C 
ATOM     20  C   UNL     1      -3.945   0.720  24.342  0.00  0.00    +0.022 C 
ATOM     21  C   UNL     1      -3.298   0.748  23.830  0.00  0.00    +0.002 C 
ATOM     22  C   UNL     1      -4.310   1.420  24.583  0.00  0.00    +0.032 C 
ATOM     23  C   UNL     1      -4.029   2.146  24.313  0.00  0.00    +0.152 C 
ATOM     24  O   UNL     1      -3.382   2.174  23.801  0.00  0.00    -0.223 OA
ENDROOT
BRANCH  10  11
ATOM     11  N   UNL     1      -3.861  -0.706  24.371  0.00  0.00    -0.202 NA
ATOM     12  C   UNL     1      -3.616  -1.258  24.932  0.00  0.00    +0.282 C 
ATOM     13  O   UNL     1      -3.736  -1.111  25.736  0.00  0.00    -0.267 OA
BRANCH  12  14
ATOM     14  C   UNL     1      -3.251  -1.958  24.691  0.00  0.00    +0.136 A 
ATOM     15  N   UNL     1      -2.429  -2.016  24.688  0.00  0.00    -0.239 NA
ATOM     16  C   UNL     1      -2.064  -2.716  24.447  0.00  0.00    +0.099 A 
ATOM     17  C   UNL     1      -2.523  -3.358  24.209  0.00  0.00    +0.021 A 
ATOM     18  C   UNL     1      -3.347  -3.301  24.211  0.00  0.00    +0.003 A 
ATOM     19  C   UNL     1      -3.710  -2.601  24.452  0.00  0.00    +0.024 A 
ENDBRANCH  12  14
ENDBRANCH  10  11
BRANCH   3   2
ATOM      1  C   UNL     1      -4.266   3.814  23.509  0.00  0.00    +0.010 C 
ATOM      2  C   UNL     1      -4.112   3.573  24.283  0.00  0.00    +0.081 C 
BRANCH   2  25
ATOM     25  C   UNL     1      -3.677   4.059  24.788  0.00  0.00    +0.241 C 
ATOM     26  O   UNL     1      -4.060   4.482  25.385  0.00  0.00    -0.273 OA
ATOM     27  N   UNL     1      -2.859   4.123  24.696  0.00  0.00    -0.197 NA
BRANCH  27  28
ATOM     28  C   UNL     1      -2.424   4.609  25.200  0.00  0.00    +0.179 C 
BRANCH  28  29
ATOM     29  C   UNL     1      -1.606   4.665  25.115  0.00  0.00    +0.145 A 
ATOM     30  C   UNL     1      -1.183   5.349  24.929  0.00  0.00    +0.038 A 
ATOM     31  C   UNL     1      -0.382   5.153  24.900  0.00  0.00    +0.043 A 
ATOM     32  C   UNL     1      -0.310   4.348  25.069  0.00  0.00    +0.179 A 
ATOM     33  O   UNL     1      -1.066   4.046  25.201  0.00  0.00    -0.453 OA
ENDBRANCH  28  29
ENDBRANCH  27  28
ENDBRANCH   2  25
ENDBRANCH   3   2
TORSDOF 6
ENDMDL
MODEL 2
REMARK VINA RESULT:     -10.9      1.067      5.229
REMARK  Name = 
REMARK  6 active torsions:
REMARK  status: ('A' for Active; 'I' for Inactive)
REMARK    1  A    between atoms: C_2  and  C_3
REMARK    2  A    between atoms: C_2  and  C_25
REMARK    3  A    between atoms: C_10  and  N_11
REMARK    4  A    between atoms: C_12  and  C_14
REMARK    5  A    between atoms: N_27  and  C_28
REMARK    6  A    between atoms: C_28  and  C_29
REMARK                            x       y       z     vdW  Elec       q    Type
REMARK                         _______ _______ _______ _____ _____    ______ ____
ROOT
ATOM      3  C   UNL     1      -4.194   0.103  24.449  0.00  0.00    +0.039 C 
ATOM      4  C   UNL     1      -4.890   0.258  24.867  0.00  0.00    +0.003 C 
ATOM      5  C   UNL     1      -5.038   1.016  25.153  0.00  0.00    +0.000 C 
ATOM      6  C   UNL     1      -4.494   1.621  25.022  0.00  0.00    +0.002 C 
ATOM      7  C   UNL     1      -5.187   1.775  25.439  0.00  0.00    +0.000 C 
ATOM      8  C   UNL     1      -4.642   2.381  25.308  0.00  0.00    +0.002 C 
ATOM      9  C   UNL     1      -4.097   2.985  25.176  0.00  0.00    +0.022 C 
ATOM     10  C   UNL     1      -3.402   2.831  24.758  0.00  0.00    +0.096 C 
ATOM     20  C   UNL     1      -3.253   2.072  24.472  0.00  0.00    +0.022 C 
ATOM     21  C   UNL     1      -2.559   1.918  24.054  0.00  0.00    +0.002 C 
ATOM     22  C   UNL     1      -3.798   1.467  24.603  0.00  0.00    +0.032 C 
ATOM     23  C   UNL     1      -3.650   0.708  24.317  0.00  0.00    +0.152 C 
ATOM     24  O   UNL     1      -2.955   0.554  23.900  0.00  0.00    -0.223 OA
ENDROOT
BRANCH  10  11
ATOM     11  N   UNL     1      -2.857   3.436  24.627  0.00  0.00    -0.202 NA
ATOM     12  C   UNL     1      -2.500   3.816  25.266  0.00  0.00    +0.282 C 
ATOM     13  O   UNL     1      -2.687   3.590  26.038  0.00  0.00    -0.267 OA
BRANCH  12  14
ATOM     14  C   UNL     1      -1.955   4.421  25.134  0.00  0.00    +0.136 A 
ATOM     15  N   UNL     1      -1.168   4.240  24.966  0.00  0.00    -0.239 NA
ATOM     16  C   UNL     1      -0.623   4.845  24.835  0.00  0.00    +0.099 A 
ATOM     17  C   UNL     1      -0.866   5.633  24.872  0.00  0.00    +0.021 A 
ATOM     18  C   UNL     1      -1.653   5.815  25.041  0.00  0.00    +0.003 A 
ATOM     19  C   UNL     1      -2.197   5.209  25.172  0.00  0.00    +0.024 A 
ENDBRANCH  12  14
ENDBRANCH  10  11
BRANCH   3   2
ATOM      1  C   UNL     1      -4.267  -0.860  23.394  0.00  0.00    +0.010 C 
ATOM      2  C   UNL     1      -4.046  -0.656  24.163  0.00  0.00    +0.081 C 
BRANCH   2  25
ATOM     25  C   UNL     1      -3.675  -1.213  24.645  0.00  0.00    +0.241 C 
ATOM     26  O   UNL     1      -4.093  -1.565  25.265  0.00  0.00    -0.273 OA
ATOM     27  N   UNL     1      -2.887  -1.419  24.509  0.00  0.00    -0.197 NA
BRANCH  27  28
ATOM     28  C   UNL     1      -2.518  -1.976  24.992  0.00  0.00    +0.179 C 
BRANCH  28  29
ATOM     29  C   UNL     1      -1.694  -2.002  25.036  0.00  0.00    +0.145 A 
ATOM     30  C   UNL     1      -1.199  -2.487  24.588  0.00  0.00    +0.038 A 
ATOM     31  C   UNL     1      -0.421  -2.332  24.812  0.00  0.00    +0.043 A 
ATOM     32  C   UNL     1      -0.434  -1.750  25.398  0.00  0.00    +0.179 A 
ATOM     33  O   UNL     1      -1.221  -1.546  25.536  0.00  0.00    -0.453 OA
ENDBRANCH  28  29
ENDBRANCH  27  28
ENDBRANCH   2  25
ENDBRANCH   3   2
TORSDOF 6
ENDMDL
MODEL 3
REMARK VINA RESULT:     -10.5      3.499      5.345
REMARK  Name = 
REMARK  6 active torsions:
REMARK  status: ('A' for Active; 'I' for Inactive)
REMARK    1  A    between atoms: C_2  and  C_3
REMARK    2  A    between atoms: C_2  and  C_25
REMARK    3  A    between atoms: C_10  and  N_11
REMARK    4  A    between atoms: C_12  and  C_14
REMARK    5  A    between atoms: N_27  and  C_28
REMARK    6  A    between atoms: C_28  and  C_29
REMARK                            x       y       z     vdW  Elec       q    Type
REMARK                         _______ _______ _______ _____ _____    ______ ____
ROOT
ATOM      3  C   UNL     1      -0.019   0.652  23.977  0.00  0.00    +0.039 C 
ATOM      4  C   UNL     1       0.384   1.368  24.066  0.00  0.00    +0.003 C 
ATOM      5  C   UNL     1      -0.017   2.035  24.335  0.00  0.00    +0.000 C 
ATOM      6  C   UNL     1      -0.820   1.989  24.517  0.00  0.00    +0.002 C 
ATOM      7  C   UNL     1      -0.418   2.703  24.605  0.00  0.00    +0.000 C 
ATOM      8  C   UNL     1      -1.222   2.658  24.787  0.00  0.00    +0.002 C 
ATOM      9  C   UNL     1      -2.024   2.612  24.969  0.00  0.00    +0.022 C 
ATOM     10  C   UNL     1      -2.427   1.896  24.881  0.00  0.00    +0.096 C 
ATOM     20  C   UNL     1      -2.026   1.228  24.611  0.00  0.00    +0.022 C 
ATOM     21  C   UNL     1      -2.429   0.513  24.523  0.00  0.00    +0.002 C 
ATOM     22  C   UNL     1      -1.223   1.274  24.429  0.00  0.00    +0.032 C 
ATOM     23  C   UNL     1      -0.822   0.606  24.159  0.00  0.00    +0.152 C 
ATOM     24  O   UNL     1      -1.224  -0.109  24.071  0.00  0.00    -0.223 OA
ENDROOT
BRANCH  10  11
ATOM     11  N   UNL     1      -3.231   1.850  25.063  0.00  0.00    -0.202 NA
ATOM     12  C   UNL     1      -3.733   2.476  24.873  0.00  0.00    +0.282 C 
ATOM     13  O   UNL     1      -3.432   3.149  24.501  0.00  0.00    -0.267 OA
BRANCH  12  14
ATOM     14  C   UNL     1      -4.537   2.430  25.055  0.00  0.00    +0.136 A 
ATOM     15  N   UNL     1      -5.032   1.938  24.618  0.00  0.00    -0.239 NA
ATOM     16  C   UNL     1      -5.836   1.892  24.800  0.00  0.00    +0.099 A 
ATOM     17  C   UNL     1      -6.143   2.340  25.420  0.00  0.00    +0.021 A 
ATOM     18  C   UNL     1      -5.648   2.834  25.859  0.00  0.00    +0.003 A 
ATOM     19  C   UNL     1      -4.845   2.878  25.676  0.00  0.00    +0.024 A 
ENDBRANCH  12  14
ENDBRANCH  10  11
BRANCH   3   2
ATOM      1  C   UNL     1       0.263  -0.747  24.072  0.00  0.00    +0.010 C 
ATOM      2  C   UNL     1       0.383  -0.016  23.707  0.00  0.00    +0.081 C 
BRANCH   2  25
ATOM     25  C   UNL     1       0.905   0.046  23.072  0.00  0.00    +0.241 C 
ATOM     26  O   UNL     1       0.613   0.086  22.300  0.00  0.00    -0.273 OA
ATOM     27  N   UNL     1       1.719   0.067  23.207  0.00  0.00    -0.197 NA
BRANCH  27  28
ATOM     28  C   UNL     1       2.240   0.129  22.572  0.00  0.00    +0.179 C 
BRANCH  28  29
ATOM     29  C   UNL     1       3.048   0.228  22.708  0.00  0.00    +0.145 A 
ATOM     30  C   UNL     1       3.484   0.914  22.566  0.00  0.00    +0.038 A 
ATOM     31  C   UNL     1       4.267   0.767  22.781  0.00  0.00    +0.043 A 
ATOM     32  C   UNL     1       4.315  -0.010  23.057  0.00  0.00    +0.179 A 
ATOM     33  O   UNL     1       3.561  -0.343  23.012  0.00  0.00    -0.453 OA
ENDBRANCH  28  29
ENDBRANCH  27  28
ENDBRANCH   2  25
ENDBRANCH   3   2
TORSDOF 6
ENDMDL
MODEL 4
REMARK VINA RESULT:     -10.2      2.246      6.374
REMARK  Name = 
REMARK  6 active torsions:
REMARK  status: ('A' for Active; 'I' for Inactive)
REMARK    1  A    between atoms: C_2  and  C_3
REMARK    2  A    between atoms: C_2  and  C_25
REMARK    3  A    between atoms: C_10  and  N_11
REMARK    4  A    between atoms: C_12  and  C_14
REMARK    5  A    between atoms: N_27  and  C_28
REMARK    6  A    between atoms: C_28  and  C_29
REMARK                            x       y       z     vdW  Elec       q    Type
REMARK                         _______ _______ _______ _____ _____    ______ ____
ROOT
ATOM      3  C   UNL     1      -0.537  -0.914  24.804  0.00  0.00    +0.039 C 
ATOM      4  C   UNL     1      -0.052  -0.959  24.137  0.00  0.00    +0.003 C 
ATOM      5  C   UNL     1       0.205  -0.269  23.767  0.00  0.00    +0.000 C 
ATOM      6  C   UNL     1      -0.021   0.467  24.063  0.00  0.00    +0.002 C 
ATOM      7  C   UNL     1       0.462   0.422  23.397  0.00  0.00    +0.000 C 
ATOM      8  C   UNL     1       0.236   1.158  23.693  0.00  0.00    +0.002 C 
ATOM      9  C   UNL     1       0.010   1.893  23.989  0.00  0.00    +0.022 C 
ATOM     10  C   UNL     1      -0.475   1.938  24.657  0.00  0.00    +0.096 C 
ATOM     20  C   UNL     1      -0.732   1.248  25.027  0.00  0.00    +0.022 C 
ATOM     21  C   UNL     1      -1.216   1.293  25.693  0.00  0.00    +0.002 C 
ATOM     22  C   UNL     1      -0.506   0.512  24.731  0.00  0.00    +0.032 C 
ATOM     23  C   UNL     1      -0.763  -0.179  25.100  0.00  0.00    +0.152 C 
ATOM     24  O   UNL     1      -1.247  -0.134  25.767  0.00  0.00    -0.223 OA
ENDROOT
BRANCH  10  11
ATOM     11  N   UNL     1      -0.701   2.675  24.953  0.00  0.00    -0.202 NA
ATOM     12  C   UNL     1      -1.033   3.238  24.450  0.00  0.00    +0.282 C 
ATOM     13  O   UNL     1      -1.138   3.065  23.649  0.00  0.00    -0.267 OA
BRANCH  12  14
ATOM     14  C   UNL     1      -1.259   3.974  24.746  0.00  0.00    +0.136 A 
ATOM     15  N   UNL     1      -1.991   4.064  25.113  0.00  0.00    -0.239 NA
ATOM     16  C   UNL     1      -2.217   4.801  25.409  0.00  0.00    +0.099 A 
ATOM     17  C   UNL     1      -1.710   5.447  25.338  0.00  0.00    +0.021 A 
ATOM     18  C   UNL     1      -0.976   5.357  24.970  0.00  0.00    +0.003 A 
ATOM     19  C   UNL     1      -0.751   4.620  24.675  0.00  0.00    +0.024 A 
ENDBRANCH  12  14
ENDBRANCH  10  11
BRANCH   3   2
ATOM      1  C   UNL     1      -0.567  -1.769  25.950  0.00  0.00    +0.010 C 
ATOM      2  C   UNL     1      -0.794  -1.606  25.174  0.00  0.00    +0.081 C 
BRANCH   2  25
ATOM     25  C   UNL     1      -1.279  -2.134  24.767  0.00  0.00    +0.241 C 
ATOM     26  O   UNL     1      -0.946  -2.773  24.362  0.00  0.00    -0.273 OA
ATOM     27  N   UNL     1      -2.098  -2.026  24.764  0.00  0.00    -0.197 NA
BRANCH  27  28
ATOM     28  C   UNL     1      -2.582  -2.554  24.357  0.00  0.00    +0.179 C 
BRANCH  28  29
ATOM     29  C   UNL     1      -3.357  -2.344  24.170  0.00  0.00    +0.145 A 
ATOM     30  C   UNL     1      -3.995  -2.862  24.087  0.00  0.00    +0.038 A 
ATOM     31  C   UNL     1      -4.662  -2.415  23.899  0.00  0.00    +0.043 A 
ATOM     32  C   UNL     1      -4.438  -1.621  23.866  0.00  0.00    +0.179 A 
ATOM     33  O   UNL     1      -3.632  -1.577  24.034  0.00  0.00    -0.453 OA
ENDBRANCH  28  29
ENDBRANCH  27  28
ENDBRANCH   2  25
ENDBRANCH   3   2
TORSDOF 6
ENDMDL
MODEL 5
REMARK VINA RESULT:      -9.9      2.508      4.970
REMARK  Name = 
REMARK  6 active torsions:
REMARK  status: ('A' for Active; 'I' for Inactive)
REMARK    1  A    between atoms: C_2  and  C_3
REMARK    2  A    between atoms: C_2  and  C_25
REMARK    3  A    between atoms: C_10  and  N_11
REMARK    4  A    between atoms: C_12  and  C_14
REMARK    5  A    between atoms: N_27  and  C_28
REMARK    6  A    between atoms: C_28  and  C_29
REMARK                            x       y       z     vdW  Elec       q    Type
REMARK                         _______ _______ _______ _____ _____    ______ ____
ROOT
ATOM      3  C   UNL     1      -1.676  -1.118  24.699  0.00  0.00    +0.039 C 
ATOM      4  C   UNL     1      -2.199  -1.721  24.487  0.00  0.00    +0.003 C 
ATOM      5  C   UNL     1      -3.012  -1.582  24.491  0.00  0.00    +0.000 C 
ATOM      6  C   UNL     1      -3.302  -0.841  24.707  0.00  0.00    +0.002 C 
ATOM      7  C   UNL     1      -3.824  -1.443  24.496  0.00  0.00    +0.000 C 
ATOM      8  C   UNL     1      -4.116  -0.702  24.712  0.00  0.00    +0.002 C 
ATOM      9  C   UNL     1      -4.406   0.039  24.927  0.00  0.00    +0.022 C 
ATOM     10  C   UNL     1      -3.883   0.642  25.139  0.00  0.00    +0.096 C 
ATOM     20  C   UNL     1      -3.071   0.503  25.135  0.00  0.00    +0.022 C 
ATOM     21  C   UNL     1      -2.548   1.105  25.347  0.00  0.00    +0.002 C 
ATOM     22  C   UNL     1      -2.779  -0.238  24.919  0.00  0.00    +0.032 C 
ATOM     23  C   UNL     1      -1.967  -0.377  24.914  0.00  0.00    +0.152 C 
ATOM     24  O   UNL     1      -1.444   0.225  25.126  0.00  0.00    -0.223 OA
ENDROOT
BRANCH  10  11
ATOM     11  N   UNL     1      -4.174   1.383  25.355  0.00  0.00    -0.202 NA
ATOM     12  C   UNL     1      -4.794   1.723  24.931  0.00  0.00    +0.282 C 
ATOM     13  O   UNL     1      -5.123   1.322  24.288  0.00  0.00    -0.267 OA
BRANCH  12  14
ATOM     14  C   UNL     1      -5.085   2.465  25.147  0.00  0.00    +0.136 A 
ATOM     15  N   UNL     1      -4.679   3.148  24.927  0.00  0.00    -0.239 NA
ATOM     16  C   UNL     1      -4.971   3.889  25.143  0.00  0.00    +0.099 A 
ATOM     17  C   UNL     1      -5.669   3.946  25.579  0.00  0.00    +0.021 A 
ATOM     18  C   UNL     1      -6.075   3.262  25.800  0.00  0.00    +0.003 A 
ATOM     19  C   UNL     1      -5.783   2.522  25.583  0.00  0.00    +0.024 A 
ENDBRANCH  12  14
ENDBRANCH  10  11
BRANCH   3   2
ATOM      1  C   UNL     1      -0.467  -1.419  25.400  0.00  0.00    +0.010 C 
ATOM      2  C   UNL     1      -0.863  -1.258  24.694  0.00  0.00    +0.081 C 
BRANCH   2  25
ATOM     25  C   UNL     1      -0.445  -1.236  23.983  0.00  0.00    +0.241 C 
ATOM     26  O   UNL     1      -0.616  -1.782  23.387  0.00  0.00    -0.273 OA
ATOM     27  N   UNL     1       0.143  -0.669  23.866  0.00  0.00    -0.197 NA
BRANCH  27  28
ATOM     28  C   UNL     1       0.560  -0.648  23.156  0.00  0.00    +0.179 C 
BRANCH  28  29
ATOM     29  C   UNL     1       1.205  -0.141  23.070  0.00  0.00    +0.145 A 
ATOM     30  C   UNL     1       1.909  -0.312  22.675  0.00  0.00    +0.038 A 
ATOM     31  C   UNL     1       2.398   0.350  22.726  0.00  0.00    +0.043 A 
ATOM     32  C   UNL     1       1.996   0.932  23.154  0.00  0.00    +0.179 A 
ATOM     33  O   UNL     1       1.259   0.628  23.366  0.00  0.00    -0.453 OA
ENDBRANCH  28  29
ENDBRANCH  27  28
ENDBRANCH   2  25
ENDBRANCH   3   2
TORSDOF 6
ENDMDL
MODEL 6
REMARK VINA RESULT:      -9.8      2.732      4.477
REMARK  Name = 
REMARK  6 active torsions:
REMARK  status: ('A' for Active; 'I' for Inactive)
REMARK    1  A    between atoms: C_2  and  C_3
REMARK    2  A    between atoms: C_2  and  C_25
REMARK    3  A    between atoms: C_10  and  N_11
REMARK    4  A    between atoms: C_12  and  C_14
REMARK    5  A    between atoms: N_27  and  C_28
REMARK    6  A    between atoms: C_28  and  C_29
REMARK                            x       y       z     vdW  Elec       q    Type
REMARK                         _______ _______ _______ _____ _____    ______ ____
ROOT
ATOM      3  C   UNL     1      -2.358   3.475  25.199  0.00  0.00    +0.039 C 
ATOM      4  C   UNL     1      -1.978   3.643  25.913  0.00  0.00    +0.003 C 
ATOM      5  C   UNL     1      -1.258   3.282  26.091  0.00  0.00    +0.000 C 
ATOM      6  C   UNL     1      -0.918   2.754  25.557  0.00  0.00    +0.002 C 
ATOM      7  C   UNL     1      -0.538   2.922  26.269  0.00  0.00    +0.000 C 
ATOM      8  C   UNL     1      -0.197   2.393  25.735  0.00  0.00    +0.002 C 
ATOM      9  C   UNL     1       0.143   1.866  25.201  0.00  0.00    +0.022 C 
ATOM     10  C   UNL     1      -0.238   1.698  24.487  0.00  0.00    +0.096 C 
ATOM     20  C   UNL     1      -0.957   2.058  24.309  0.00  0.00    +0.022 C 
ATOM     21  C   UNL     1      -1.337   1.890  23.596  0.00  0.00    +0.002 C 
ATOM     22  C   UNL     1      -1.298   2.587  24.843  0.00  0.00    +0.032 C 
ATOM     23  C   UNL     1      -2.018   2.947  24.665  0.00  0.00    +0.152 C 
ATOM     24  O   UNL     1      -2.398   2.779  23.952  0.00  0.00    -0.223 OA
ENDROOT
BRANCH  10  11
ATOM     11  N   UNL     1       0.103   1.169  23.953  0.00  0.00    -0.202 NA
ATOM     12  C   UNL     1       0.916   1.188  23.815  0.00  0.00    +0.282 C 
ATOM     13  O   UNL     1       1.389   1.735  24.212  0.00  0.00    -0.267 OA
BRANCH  12  14
ATOM     14  C   UNL     1       1.257   0.659  23.281  0.00  0.00    +0.136 A 
ATOM     15  N   UNL     1       0.811   0.038  22.973  0.00  0.00    -0.239 NA
ATOM     16  C   UNL     1       1.152  -0.490  22.438  0.00  0.00    +0.099 A 
ATOM     17  C   UNL     1       1.939  -0.397  22.213  0.00  0.00    +0.021 A 
ATOM     18  C   UNL     1       2.387   0.225  22.521  0.00  0.00    +0.003 A 
ATOM     19  C   UNL     1       2.045   0.753  23.055  0.00  0.00    +0.024 A 
ENDBRANCH  12  14
ENDBRANCH  10  11
BRANCH   3   2
ATOM      1  C   UNL     1      -3.136   4.352  24.380  0.00  0.00    +0.010 C 
ATOM      2  C   UNL     1      -3.079   3.836  25.022  0.00  0.00    +0.081 C 
BRANCH   2  25
ATOM     25  C   UNL     1      -3.743   3.681  25.486  0.00  0.00    +0.241 C 
ATOM     26  O   UNL     1      -3.830   4.052  26.219  0.00  0.00    -0.273 OA
ATOM     27  N   UNL     1      -4.320   3.155  25.219  0.00  0.00    -0.197 NA
BRANCH  27  28
ATOM     28  C   UNL     1      -4.984   3.001  25.683  0.00  0.00    +0.179 C 
BRANCH  28  29
ATOM     29  C   UNL     1      -5.526   2.425  25.449  0.00  0.00    +0.145 A 
ATOM     30  C   UNL     1      -5.503   1.625  25.655  0.00  0.00    +0.038 A 
ATOM     31  C   UNL     1      -6.150   1.254  25.301  0.00  0.00    +0.043 A 
ATOM     32  C   UNL     1      -6.572   1.824  24.878  0.00  0.00    +0.179 A 
ATOM     33  O   UNL     1      -6.186   2.547  24.969  0.00  0.00    -0.453 OA
ENDBRANCH  28  29
ENDBRANCH  27  28
ENDBRANCH   2  25
ENDBRANCH   3   2
TORSDOF 6
ENDMDL
MODEL 7
REMARK VINA RESULT:      -9.6      1.662      2.988
REMARK  Name = 
REMARK  6 active torsions:
REMARK  status: ('A' for Active; 'I' for Inactive)
REMARK    1  A    between atoms: C_2  and  C_3
REMARK    2  A    between atoms: C_2  and  C_25
REMARK    3  A    between atoms: C_10  and  N_11
REMARK    4  A    between atoms: C_12  and  C_14
REMARK    5  A    between atoms: N_27  and  C_28
REMARK    6  A    between atoms: C_28  and  C_29
REMARK                            x       y       z     vdW  Elec       q    Type
REMARK                         _______ _______ _______ _____ _____    ______ ____
ROOT
ATOM      3  C   UNL     1      -1.525   2.976  25.076  0.00  0.00    +0.039 C 
ATOM      4  C   UNL     1      -0.928   2.945  25.646  0.00  0.00    +0.003 C 
ATOM      5  C   UNL     1      -0.634   2.216  25.894  0.00  0.00    +0.000 C 
ATOM      6  C   UNL     1      -0.936   1.518  25.575  0.00  0.00    +0.002 C 
ATOM      7  C   UNL     1      -0.340   1.487  26.143  0.00  0.00    +0.000 C 
ATOM      8  C   UNL     1      -0.642   0.789  25.823  0.00  0.00    +0.002 C 
ATOM      9  C   UNL     1      -0.944   0.091  25.504  0.00  0.00    +0.022 C 
ATOM     10  C   UNL     1      -1.541   0.123  24.935  0.00  0.00    +0.096 C 
ATOM     20  C   UNL     1      -1.835   0.852  24.686  0.00  0.00    +0.022 C 
ATOM     21  C   UNL     1      -2.432   0.883  24.117  0.00  0.00    +0.002 C 
ATOM     22  C   UNL     1      -1.533   1.550  25.005  0.00  0.00    +0.032 C 
ATOM     23  C   UNL     1      -1.827   2.279  24.757  0.00  0.00    +0.152 C 
ATOM     24  O   UNL     1      -2.424   2.310  24.188  0.00  0.00    -0.223 OA
ENDROOT
BRANCH  10  11
ATOM     11  N   UNL     1      -1.843  -0.576  24.615  0.00  0.00    -0.202 NA
ATOM     12  C   UNL     1      -2.157  -1.155  25.111  0.00  0.00    +0.282 C 
ATOM     13  O   UNL     1      -2.168  -1.036  25.928  0.00  0.00    -0.267 OA
BRANCH  12  14
ATOM     14  C   UNL     1      -2.459  -1.853  24.792  0.00  0.00    +0.136 A 
ATOM     15  N   UNL     1      -1.954  -2.389  24.420  0.00  0.00    -0.239 NA
ATOM     16  C   UNL     1      -2.256  -3.088  24.101  0.00  0.00    +0.099 A 
ATOM     17  C   UNL     1      -3.064  -3.249  24.153  0.00  0.00    +0.021 A 
ATOM     18  C   UNL     1      -3.569  -2.712  24.525  0.00  0.00    +0.003 A 
ATOM     19  C   UNL     1      -3.266  -2.015  24.844  0.00  0.00    +0.024 A 
ENDBRANCH  12  14
ENDBRANCH  10  11
BRANCH   3   2
ATOM      1  C   UNL     1      -1.520   4.063  24.146  0.00  0.00    +0.010 C 
ATOM      2  C   UNL     1      -1.819   3.706  24.828  0.00  0.00    +0.081 C 
BRANCH   2  25
ATOM     25  C   UNL     1      -2.414   4.080  25.261  0.00  0.00    +0.241 C 
ATOM     26  O   UNL     1      -2.223   4.695  25.778  0.00  0.00    -0.273 OA
ATOM     27  N   UNL     1      -3.199   3.839  25.177  0.00  0.00    -0.197 NA
BRANCH  27  28
ATOM     28  C   UNL     1      -3.793   4.213  25.610  0.00  0.00    +0.179 C 
BRANCH  28  29
ATOM     29  C   UNL     1      -4.539   3.866  25.672  0.00  0.00    +0.145 A 
ATOM     30  C   UNL     1      -5.217   4.096  25.261  0.00  0.00    +0.038 A 
ATOM     31  C   UNL     1      -5.834   3.600  25.492  0.00  0.00    +0.043 A 
ATOM     32  C   UNL     1      -5.538   3.064  26.045  0.00  0.00    +0.179 A 
ATOM     33  O   UNL     1      -4.737   3.228  26.157  0.00  0.00    -0.453 OA
ENDBRANCH  28  29
ENDBRANCH  27  28
ENDBRANCH   2  25
ENDBRANCH   3   2
TORSDOF 6
ENDMDL
MODEL 8
REMARK VINA RESULT:      -9.6      2.787      4.217
REMARK  Name = 
REMARK  6 active torsions:
REMARK  status: ('A' for Active; 'I' for Inactive)
REMARK    1  A    between atoms: C_2  and  C_3
REMARK    2  A    between atoms: C_2  and  C_25
REMARK    3  A    between atoms: C_10  and  N_11
REMARK    4  A    between atoms: C_12  and  C_14
REMARK    5  A    between atoms: N_27  and  C_28
REMARK    6  A    between atoms: C_28  and  C_29
REMARK                            x       y       z     vdW  Elec       q    Type
REMARK                         _______ _______ _______ _____ _____    ______ ____
ROOT
ATOM      3  C   UNL     1      -3.508  -0.006  24.839  0.00  0.00    +0.039 C 
ATOM      4  C   UNL     1      -3.400  -0.520  25.476  0.00  0.00    +0.003 C 
ATOM      5  C   UNL     1      -2.643  -0.781  25.671  0.00  0.00    +0.000 C 
ATOM      6  C   UNL     1      -1.993  -0.528  25.231  0.00  0.00    +0.002 C 
ATOM      7  C   UNL     1      -1.885  -1.041  25.866  0.00  0.00    +0.000 C 
ATOM      8  C   UNL     1      -1.235  -0.788  25.426  0.00  0.00    +0.002 C 
ATOM      9  C   UNL     1      -0.585  -0.535  24.986  0.00  0.00    +0.022 C 
ATOM     10  C   UNL     1      -0.694  -0.021  24.349  0.00  0.00    +0.096 C 
ATOM     20  C   UNL     1      -1.451   0.240  24.153  0.00  0.00    +0.022 C 
ATOM     21  C   UNL     1      -1.559   0.754  23.517  0.00  0.00    +0.002 C 
ATOM     22  C   UNL     1      -2.101  -0.013  24.594  0.00  0.00    +0.032 C 
ATOM     23  C   UNL     1      -2.859   0.247  24.398  0.00  0.00    +0.152 C 
ATOM     24  O   UNL     1      -2.967   0.761  23.762  0.00  0.00    -0.223 OA
ENDROOT
BRANCH  10  11
ATOM     11  N   UNL     1      -0.043   0.232  23.909  0.00  0.00    -0.202 NA
ATOM     12  C   UNL     1       0.532  -0.310  23.672  0.00  0.00    +0.282 C 
ATOM     13  O   UNL     1       0.456  -1.107  23.876  0.00  0.00    -0.267 OA
BRANCH  12  14
ATOM     14  C   UNL     1       1.182  -0.057  23.232  0.00  0.00    +0.136 A 
ATOM     15  N   UNL     1       1.685   0.523  23.533  0.00  0.00    -0.239 NA
ATOM     16  C   UNL     1       2.335   0.776  23.093  0.00  0.00    +0.099 A 
ATOM     17  C   UNL     1       2.482   0.448  22.350  0.00  0.00    +0.021 A 
ATOM     18  C   UNL     1       1.979  -0.133  22.048  0.00  0.00    +0.003 A 
ATOM     19  C   UNL     1       1.329  -0.385  22.489  0.00  0.00    +0.024 A 
ENDBRANCH  12  14
ENDBRANCH  10  11
BRANCH   3   2
ATOM      1  C   UNL     1      -4.597   0.056  23.914  0.00  0.00    +0.010 C 
ATOM      2  C   UNL     1      -4.267   0.255  24.643  0.00  0.00    +0.081 C 
BRANCH   2  25
ATOM     25  C   UNL     1      -4.694   0.715  25.178  0.00  0.00    +0.241 C 
ATOM     26  O   UNL     1      -5.093   0.355  25.806  0.00  0.00    -0.273 OA
ATOM     27  N   UNL     1      -4.725   1.535  25.086  0.00  0.00    -0.197 NA
BRANCH  27  28
ATOM     28  C   UNL     1      -5.152   1.994  25.620  0.00  0.00    +0.179 C 
BRANCH  28  29
ATOM     29  C   UNL     1      -5.136   2.817  25.562  0.00  0.00    +0.145 A 
ATOM     30  C   UNL     1      -4.467   3.295  25.628  0.00  0.00    +0.038 A 
ATOM     31  C   UNL     1      -4.704   4.080  25.535  0.00  0.00    +0.043 A 
ATOM     32  C   UNL     1      -5.521   4.086  25.411  0.00  0.00    +0.179 A 
ATOM     33  O   UNL     1      -5.787   3.306  25.428  0.00  0.00    -0.453 OA
ENDBRANCH  28  29
ENDBRANCH  27  28
ENDBRANCH   2  25
ENDBRANCH   3   2
TORSDOF 6
ENDMDL
MODEL 9
REMARK VINA RESULT:      -9.1      2.004      5.654
REMARK  Name = 
REMARK  6 active torsions:
REMARK  status: ('A' for Active; 'I' for Inactive)
REMARK    1  A    between atoms: C_2  and  C_3
REMARK    2  A    between atoms: C_2  and  C_25
REMARK    3  A    between atoms: C_10  and  N_11
REMARK    4  A    between atoms: C_12  and  C_14
REMARK    5  A    between atoms: N_27  and  C_28
REMARK    6  A    between atoms: C_28  and  C_29
REMARK                            x       y       z     vdW  Elec       q    Type
REMARK                         _______ _______ _______ _____ _____    ______ ____
ROOT
ATOM      3  C   UNL     1      -0.665   0.743  24.461  0.00  0.00    +0.039 C 
ATOM      4  C   UNL     1      -0.111   1.098  24.960  0.00  0.00    +0.003 C 
ATOM      5  C   UNL     1      -0.305   1.789  25.366  0.00  0.00    +0.000 C 
ATOM      6  C   UNL     1      -1.053   2.125  25.274  0.00  0.00    +0.002 C 
ATOM      7  C   UNL     1      -0.500   2.480  25.771  0.00  0.00    +0.000 C 
ATOM      8  C   UNL     1      -1.248   2.816  25.680  0.00  0.00    +0.002 C 
ATOM      9  C   UNL     1      -1.995   3.152  25.588  0.00  0.00    +0.022 C 
ATOM     10  C   UNL     1      -2.549   2.796  25.089  0.00  0.00    +0.096 C 
ATOM     20  C   UNL     1      -2.355   2.105  24.683  0.00  0.00    +0.022 C 
ATOM     21  C   UNL     1      -2.908   1.750  24.185  0.00  0.00    +0.002 C 
ATOM     22  C   UNL     1      -1.607   1.769  24.775  0.00  0.00    +0.032 C 
ATOM     23  C   UNL     1      -1.412   1.078  24.369  0.00  0.00    +0.152 C 
ATOM     24  O   UNL     1      -1.965   0.723  23.871  0.00  0.00    -0.223 OA
ENDROOT
BRANCH  10  11
ATOM     11  N   UNL     1      -3.297   3.132  24.997  0.00  0.00    -0.202 NA
ATOM     12  C   UNL     1      -3.747   3.326  25.660  0.00  0.00    +0.282 C 
ATOM     13  O   UNL     1      -3.449   3.183  26.417  0.00  0.00    -0.267 OA
BRANCH  12  14
ATOM     14  C   UNL     1      -4.495   3.662  25.569  0.00  0.00    +0.136 A 
ATOM     15  N   UNL     1      -4.568   4.446  25.325  0.00  0.00    -0.239 NA
ATOM     16  C   UNL     1      -5.316   4.783  25.233  0.00  0.00    +0.099 A 
ATOM     17  C   UNL     1      -5.991   4.334  25.386  0.00  0.00    +0.021 A 
ATOM     18  C   UNL     1      -5.918   3.548  25.630  0.00  0.00    +0.003 A 
ATOM     19  C   UNL     1      -5.170   3.213  25.721  0.00  0.00    +0.024 A 
ENDBRANCH  12  14
ENDBRANCH  10  11
BRANCH   3   2
ATOM      1  C   UNL     1      -0.184   0.092  23.282  0.00  0.00    +0.010 C 
ATOM      2  C   UNL     1      -0.469   0.051  24.055  0.00  0.00    +0.081 C 
BRANCH   2  25
ATOM     25  C   UNL     1      -0.559  -0.682  24.423  0.00  0.00    +0.241 C 
ATOM     26  O   UNL     1       0.052  -0.990  24.885  0.00  0.00    -0.273 OA
ATOM     27  N   UNL     1      -1.261  -1.107  24.330  0.00  0.00    -0.197 NA
BRANCH  27  28
ATOM     28  C   UNL     1      -1.351  -1.839  24.697  0.00  0.00    +0.179 C 
BRANCH  28  29
ATOM     29  C   UNL     1      -2.081  -2.223  24.679  0.00  0.00    +0.145 A 
ATOM     30  C   UNL     1      -2.673  -2.167  25.251  0.00  0.00    +0.038 A 
ATOM     31  C   UNL     1      -3.305  -2.640  25.010  0.00  0.00    +0.043 A 
ATOM     32  C   UNL     1      -3.103  -2.989  24.290  0.00  0.00    +0.179 A 
ATOM     33  O   UNL     1      -2.346  -2.732  24.085  0.00  0.00    -0.453 OA
ENDBRANCH  28  29
ENDBRANCH  27  28
ENDBRANCH   2  25
ENDBRANCH   3   2
TORSDOF 6
ENDMDL
