MODEL 1
REMARK VINA RESULT:      -9.3      0.000      0.000
REMARK  Name = 
REMARK  9 active torsions:
REMARK  status: ('A' for Active; 'I' for Inactive)
REMARK    1  A    between atoms: O_2  and  C_3
REMARK    2  A    between atoms: C_3  and  C_5
REMARK    3  A    between atoms: C_5  and  N_6
REMARK    4  A    between atoms: C_5  and  C_34
REMARK    5  A    between atoms: C_7  and  C_9
REMARK    6  A    between atoms: C_11  and  N_22
REMARK    7  A    between atoms: C_14  and  C_16
REMARK    8  A    between atoms: N_25  and  C_26
REMARK    9  A    between atoms: C_29  and  O_30
REMARK                            x       y       z     vdW  Elec       q    Type
REMARK                         _______ _______ _______ _____ _____    ______ ____
ROOT
ATOM      9  C   UNL     1      -0.715   0.960  24.256  0.00  0.00    +0.156 C 
ATOM     10  C   UNL     1      -0.108   1.050  23.705  0.00  0.00    +0.053 C 
ATOM     11  C   UNL     1       0.099   0.300  23.431  0.00  0.00    +0.119 C 
ATOM     12  C   UNL     1      -0.380  -0.253  23.812  0.00  0.00    +0.116 C 
ATOM     13  N   UNL     1      -0.883   0.155  24.322  0.00  0.00    -0.266 N 
ATOM     14  C   UNL     1      -1.454  -0.182  24.813  0.00  0.00    +0.265 C 
ATOM     15  O   UNL     1      -1.920   0.298  25.296  0.00  0.00    -0.268 OA
ENDROOT
BRANCH  14  16
ATOM     16  C   UNL     1      -1.560  -1.000  24.821  0.00  0.00    +0.114 A 
ATOM     17  C   UNL     1      -0.989  -1.562  25.021  0.00  0.00    +0.023 A 
ATOM     18  C   UNL     1      -1.331  -2.309  24.954  0.00  0.00    +0.020 A 
ATOM     19  C   UNL     1      -2.114  -2.211  24.712  0.00  0.00    +0.076 A 
ATOM     20  N   UNL     1      -2.255  -1.401  24.630  0.00  0.00    -0.320 N 
ATOM     21  C   UNL     1      -2.967  -1.055  24.397  0.00  0.00    +0.131 C 
ENDBRANCH  14  16
BRANCH  11  22
ATOM     22  N   UNL     1       0.683   0.132  22.872  0.00  0.00    -0.187 NA
ATOM     23  C   UNL     1       1.479   0.235  23.064  0.00  0.00    +0.343 C 
ATOM     24  O   UNL     1       1.691   0.506  23.814  0.00  0.00    -0.249 OA
ATOM     25  N   UNL     1       2.063   0.067  22.506  0.00  0.00    -0.161 NA
BRANCH  25  26
ATOM     26  C   UNL     1       2.858   0.170  22.697  0.00  0.00    +0.075 A 
ATOM     27  C   UNL     1       3.282  -0.446  23.047  0.00  0.00    +0.020 A 
ATOM     28  C   UNL     1       4.078  -0.343  23.238  0.00  0.00    +0.038 A 
ATOM     29  C   UNL     1       4.450   0.376  23.080  0.00  0.00    +0.139 A 
ATOM     32  C   UNL     1       4.027   0.992  22.730  0.00  0.00    +0.038 A 
ATOM     33  C   UNL     1       3.231   0.888  22.539  0.00  0.00    +0.020 A 
BRANCH  29  30
ATOM     30  O   UNL     1       5.247   0.479  23.271  0.00  0.00    -0.471 OA
ATOM     31  C   UNL     1       5.607  -0.020  23.820  0.00  0.00    +0.252 C 
ENDBRANCH  29  30
ENDBRANCH  25  26
ENDBRANCH  11  22
BRANCH   9   7
ATOM      6  N   UNL     1      -1.391   2.219  24.260  0.00  0.00    -0.194 NA
ATOM      7  C   UNL     1      -1.090   1.569  24.669  0.00  0.00    +0.260 C 
ATOM      8  O   UNL     1      -1.162   1.528  25.490  0.00  0.00    -0.272 OA
BRANCH   6   5
ATOM      5  C   UNL     1      -1.765   2.828  24.673  0.00  0.00    +0.193 C 
BRANCH   5  34
ATOM     34  C   UNL     1      -1.316   3.378  25.094  0.00  0.00    +0.031 C 
ATOM     35  C   UNL     1      -0.790   3.873  24.696  0.00  0.00    +0.002 C 
ATOM     36  C   UNL     1      -1.393   3.432  25.914  0.00  0.00    +0.002 C 
ENDBRANCH   5  34
BRANCH   5   3
ATOM      3  C   UNL     1      -2.588   2.888  24.663  0.00  0.00    +0.337 C 
ATOM      4  O   UNL     1      -3.007   2.926  25.373  0.00  0.00    -0.248 OA
BRANCH   3   2
ATOM      1  C   UNL     1      -3.812   2.988  23.933  0.00  0.00    +0.256 C 
ATOM      2  O   UNL     1      -2.991   2.909  23.943  0.00  0.00    -0.443 OA
ENDBRANCH   3   2
ENDBRANCH   5   3
ENDBRANCH   6   5
ENDBRANCH   9   7
TORSDOF 9
ENDMDL
MODEL 2
REMARK VINA RESULT:      -8.1      1.011      3.023
REMARK  Name = 
REMARK  9 active torsions:
REMARK  status: ('A' for Active; 'I' for Inactive)
REMARK    1  A    between atoms: O_2  and  C_3
REMARK    2  A    between atoms: C_3  and  C_5
REMARK    3  A    between atoms: C_5  and  N_6
REMARK    4  A    between atoms: C_5  and  C_34
REMARK    5  A    between atoms: C_7  and  C_9
REMARK    6  A    between atoms: C_11  and  N_22
REMARK    7  A    between atoms: C_14  and  C_16
REMARK    8  A    between atoms: N_25  and  C_26
REMARK    9  A    between atoms: C_29  and  O_30
REMARK                            x       y       z     vdW  Elec       q    Type
REMARK                         _______ _______ _______ _____ _____    ______ ____
ROOT
ATOM      9  C   UNL     1      -0.930   0.121  24.317  0.00  0.00    +0.156 C 
ATOM     10  C   UNL     1      -0.445  -0.241  23.757  0.00  0.00    +0.053 C 
ATOM     11  C   UNL     1       0.065   0.332  23.454  0.00  0.00    +0.119 C 
ATOM     12  C   UNL     1      -0.104   1.048  23.827  0.00  0.00    +0.116 C 
ATOM     13  N   UNL     1      -0.719   0.917  24.361  0.00  0.00    -0.266 N 
ATOM     14  C   UNL     1      -1.063   1.484  24.852  0.00  0.00    +0.265 C 
ATOM     15  O   UNL     1      -1.677   1.271  25.361  0.00  0.00    -0.268 OA
ENDROOT
BRANCH  14  16
ATOM     16  C   UNL     1      -0.793   2.263  24.836  0.00  0.00    +0.114 A 
ATOM     17  C   UNL     1      -0.854   2.784  24.199  0.00  0.00    +0.023 A 
ATOM     18  C   UNL     1      -0.514   3.502  24.422  0.00  0.00    +0.020 A 
ATOM     19  C   UNL     1      -0.242   3.425  25.197  0.00  0.00    +0.076 A 
ATOM     20  N   UNL     1      -0.415   2.659  25.453  0.00  0.00    -0.320 N 
ATOM     21  C   UNL     1      -0.239   2.345  26.195  0.00  0.00    +0.131 C 
ENDBRANCH  14  16
BRANCH  11  22
ATOM     22  N   UNL     1       0.644   0.211  22.878  0.00  0.00    -0.187 NA
ATOM     23  C   UNL     1       1.442   0.274  23.075  0.00  0.00    +0.343 C 
ATOM     24  O   UNL     1       1.662   0.458  23.848  0.00  0.00    -0.249 OA
ATOM     25  N   UNL     1       2.020   0.152  22.499  0.00  0.00    -0.161 NA
BRANCH  25  26
ATOM     26  C   UNL     1       2.818   0.216  22.696  0.00  0.00    +0.075 A 
ATOM     27  C   UNL     1       3.224  -0.440  22.991  0.00  0.00    +0.020 A 
ATOM     28  C   UNL     1       4.023  -0.376  23.188  0.00  0.00    +0.038 A 
ATOM     29  C   UNL     1       4.416   0.343  23.090  0.00  0.00    +0.139 A 
ATOM     32  C   UNL     1       4.010   0.999  22.795  0.00  0.00    +0.038 A 
ATOM     33  C   UNL     1       3.212   0.934  22.599  0.00  0.00    +0.020 A 
BRANCH  29  30
ATOM     30  O   UNL     1       5.215   0.406  23.287  0.00  0.00    -0.471 OA
ATOM     31  C   UNL     1       5.526  -0.050  23.899  0.00  0.00    +0.252 C 
ENDBRANCH  29  30
ENDBRANCH  25  26
ENDBRANCH  11  22
BRANCH   9   7
ATOM      6  N   UNL     1      -2.153  -0.615  24.373  0.00  0.00    -0.194 NA
ATOM      7  C   UNL     1      -1.522  -0.249  24.758  0.00  0.00    +0.260 C 
ATOM      8  O   UNL     1      -1.482  -0.253  25.582  0.00  0.00    -0.272 OA
BRANCH   6   5
ATOM      5  C   UNL     1      -2.745  -0.985  24.814  0.00  0.00    +0.193 C 
BRANCH   5  34
ATOM     34  C   UNL     1      -2.615  -1.734  25.133  0.00  0.00    +0.031 C 
ATOM     35  C   UNL     1      -2.453  -2.373  24.636  0.00  0.00    +0.002 C 
ATOM     36  C   UNL     1      -2.645  -1.846  25.950  0.00  0.00    +0.002 C 
ENDBRANCH   5  34
BRANCH   5   3
ATOM      3  C   UNL     1      -3.468  -0.605  24.934  0.00  0.00    +0.337 C 
ATOM      4  O   UNL     1      -3.760  -0.505  25.699  0.00  0.00    -0.248 OA
BRANCH   3   2
ATOM      1  C   UNL     1      -4.619   0.058  24.408  0.00  0.00    +0.256 C 
ATOM      2  O   UNL     1      -3.899  -0.325  24.287  0.00  0.00    -0.443 OA
ENDBRANCH   3   2
ENDBRANCH   5   3
ENDBRANCH   6   5
ENDBRANCH   9   7
TORSDOF 9
ENDMDL
MODEL 3
REMARK VINA RESULT:      -7.8      0.570      1.140
REMARK  Name = 
REMARK  9 active torsions:
REMARK  status: ('A' for Active; 'I' for Inactive)
REMARK    1  A    between atoms: O_2  and  C_3
REMARK    2  A    between atoms: C_3  and  C_5
REMARK    3  A    between atoms: C_5  and  N_6
REMARK    4  A    between atoms: C_5  and  C_34
REMARK    5  A    between atoms: C_7  and  C_9
REMARK    6  A    between atoms: C_11  and  N_22
REMARK    7  A    between atoms: C_14  and  C_16
REMARK    8  A    between atoms: N_25  and  C_26
REMARK    9  A    between atoms: C_29  and  O_30
REMARK                            x       y       z     vdW  Elec       q    Type
REMARK                         _______ _______ _______ _____ _____    ______ ____
ROOT
ATOM      9  C   UNL     1      -0.894   1.069  24.176  0.00  0.00    +0.156 C 
ATOM     10  C   UNL     1      -0.284   1.178  23.631  0.00  0.00    +0.053 C 
ATOM     11  C   UNL     1      -0.032   0.434  23.379  0.00  0.00    +0.119 C 
ATOM     12  C   UNL     1      -0.486  -0.135  23.768  0.00  0.00    +0.116 C 
ATOM     13  N   UNL     1      -1.019   0.259  24.260  0.00  0.00    -0.266 N 
ATOM     14  C   UNL     1      -1.578  -0.097  24.751  0.00  0.00    +0.265 C 
ATOM     15  O   UNL     1      -2.077   0.370  25.215  0.00  0.00    -0.268 OA
ENDROOT
BRANCH  14  16
ATOM     16  C   UNL     1      -1.640  -0.919  24.779  0.00  0.00    +0.114 A 
ATOM     17  C   UNL     1      -1.039  -1.444  24.991  0.00  0.00    +0.023 A 
ATOM     18  C   UNL     1      -1.341  -2.210  24.943  0.00  0.00    +0.020 A 
ATOM     19  C   UNL     1      -2.128  -2.160  24.701  0.00  0.00    +0.076 A 
ATOM     20  N   UNL     1      -2.313  -1.361  24.600  0.00  0.00    -0.320 N 
ATOM     21  C   UNL     1      -3.043  -1.059  24.362  0.00  0.00    +0.131 C 
ENDBRANCH  14  16
BRANCH  11  22
ATOM     22  N   UNL     1       0.569   0.284  22.833  0.00  0.00    -0.187 NA
ATOM     23  C   UNL     1       1.356   0.281  23.077  0.00  0.00    +0.343 C 
ATOM     24  O   UNL     1       1.544   0.429  23.868  0.00  0.00    -0.249 OA
ATOM     25  N   UNL     1       1.957   0.132  22.532  0.00  0.00    -0.161 NA
BRANCH  25  26
ATOM     26  C   UNL     1       2.744   0.129  22.776  0.00  0.00    +0.075 A 
ATOM     27  C   UNL     1       3.226   0.782  22.626  0.00  0.00    +0.020 A 
ATOM     28  C   UNL     1       4.014   0.779  22.870  0.00  0.00    +0.038 A 
ATOM     29  C   UNL     1       4.321   0.123  23.264  0.00  0.00    +0.139 A 
ATOM     32  C   UNL     1       3.840  -0.531  23.415  0.00  0.00    +0.038 A 
ATOM     33  C   UNL     1       3.052  -0.527  23.170  0.00  0.00    +0.020 A 
BRANCH  29  30
ATOM     30  O   UNL     1       5.109   0.119  23.509  0.00  0.00    -0.471 OA
ATOM     31  C   UNL     1       5.714   0.124  22.949  0.00  0.00    +0.252 C 
ENDBRANCH  29  30
ENDBRANCH  25  26
ENDBRANCH  11  22
BRANCH   9   7
ATOM      6  N   UNL     1      -1.618   2.300  24.140  0.00  0.00    -0.194 NA
ATOM      7  C   UNL     1      -1.307   1.668  24.567  0.00  0.00    +0.260 C 
ATOM      8  O   UNL     1      -1.407   1.632  25.385  0.00  0.00    -0.272 OA
BRANCH   6   5
ATOM      5  C   UNL     1      -2.031   2.899  24.531  0.00  0.00    +0.193 C 
BRANCH   5  34
ATOM     34  C   UNL     1      -2.853   2.938  24.475  0.00  0.00    +0.031 C 
ATOM     35  C   UNL     1      -3.215   2.978  23.733  0.00  0.00    +0.002 C 
ATOM     36  C   UNL     1      -3.315   2.938  25.158  0.00  0.00    +0.002 C 
ENDBRANCH   5  34
BRANCH   5   3
ATOM      3  C   UNL     1      -1.621   3.457  24.979  0.00  0.00    +0.337 C 
ATOM      4  O   UNL     1      -1.693   3.461  25.801  0.00  0.00    -0.248 OA
BRANCH   3   2
ATOM      1  C   UNL     1      -0.831   4.647  25.032  0.00  0.00    +0.256 C 
ATOM      2  O   UNL     1      -1.138   4.012  24.604  0.00  0.00    -0.443 OA
ENDBRANCH   3   2
ENDBRANCH   5   3
ENDBRANCH   6   5
ENDBRANCH   9   7
TORSDOF 9
ENDMDL
MODEL 4
REMARK VINA RESULT:      -7.8      1.820      2.706
REMARK  Name = 
REMARK  9 active torsions:
REMARK  status: ('A' for Active; 'I' for Inactive)
REMARK    1  A    between atoms: O_2  and  C_3
REMARK    2  A    between atoms: C_3  and  C_5
REMARK    3  A    between atoms: C_5  and  N_6
REMARK    4  A    between atoms: C_5  and  C_34
REMARK    5  A    between atoms: C_7  and  C_9
REMARK    6  A    between atoms: C_11  and  N_22
REMARK    7  A    between atoms: C_14  and  C_16
REMARK    8  A    between atoms: N_25  and  C_26
REMARK    9  A    between atoms: C_29  and  O_30
REMARK                            x       y       z     vdW  Elec       q    Type
REMARK                         _______ _______ _______ _____ _____    ______ ____
ROOT
ATOM      9  C   UNL     1      -3.094   0.888  24.742  0.00  0.00    +0.156 C 
ATOM     10  C   UNL     1      -2.312   1.138  24.827  0.00  0.00    +0.053 C 
ATOM     11  C   UNL     1      -1.845   0.471  24.958  0.00  0.00    +0.119 C 
ATOM     12  C   UNL     1      -2.337  -0.191  24.954  0.00  0.00    +0.116 C 
ATOM     13  N   UNL     1      -3.110   0.067  24.820  0.00  0.00    -0.266 N 
ATOM     14  C   UNL     1      -3.780  -0.412  24.774  0.00  0.00    +0.265 C 
ATOM     15  O   UNL     1      -4.520  -0.073  24.637  0.00  0.00    -0.268 OA
ENDROOT
BRANCH  14  16
ATOM     16  C   UNL     1      -3.710  -1.229  24.864  0.00  0.00    +0.114 A 
ATOM     17  C   UNL     1      -3.422  -1.620  25.531  0.00  0.00    +0.023 A 
ATOM     18  C   UNL     1      -3.451  -2.431  25.383  0.00  0.00    +0.020 A 
ATOM     19  C   UNL     1      -3.756  -2.541  24.624  0.00  0.00    +0.076 A 
ATOM     20  N   UNL     1      -3.917  -1.798  24.303  0.00  0.00    -0.320 N 
ATOM     21  C   UNL     1      -4.228  -1.650  23.554  0.00  0.00    +0.131 C 
ENDBRANCH  14  16
BRANCH  11  22
ATOM     22  N   UNL     1      -1.028   0.466  25.073  0.00  0.00    -0.187 NA
ATOM     23  C   UNL     1      -0.520   0.400  24.426  0.00  0.00    +0.343 C 
ATOM     24  O   UNL     1      -0.830   0.340  23.663  0.00  0.00    -0.249 OA
ATOM     25  N   UNL     1       0.296   0.395  24.541  0.00  0.00    -0.161 NA
BRANCH  25  26
ATOM     26  C   UNL     1       0.804   0.330  23.894  0.00  0.00    +0.075 A 
ATOM     27  C   UNL     1       0.814  -0.362  23.445  0.00  0.00    +0.020 A 
ATOM     28  C   UNL     1       1.322  -0.427  22.798  0.00  0.00    +0.038 A 
ATOM     29  C   UNL     1       1.820   0.200  22.600  0.00  0.00    +0.139 A 
ATOM     32  C   UNL     1       1.811   0.892  23.049  0.00  0.00    +0.038 A 
ATOM     33  C   UNL     1       1.303   0.957  23.696  0.00  0.00    +0.020 A 
BRANCH  29  30
ATOM     30  O   UNL     1       2.328   0.135  21.953  0.00  0.00    -0.471 OA
ATOM     31  C   UNL     1       3.144   0.163  22.066  0.00  0.00    +0.252 C 
ENDBRANCH  29  30
ENDBRANCH  25  26
ENDBRANCH  11  22
BRANCH   9   7
ATOM      6  N   UNL     1      -3.934   1.973  25.138  0.00  0.00    -0.194 NA
ATOM      7  C   UNL     1      -3.746   1.375  24.603  0.00  0.00    +0.260 C 
ATOM      8  O   UNL     1      -4.208   1.263  23.929  0.00  0.00    -0.272 OA
BRANCH   6   5
ATOM      5  C   UNL     1      -4.587   2.460  24.999  0.00  0.00    +0.193 C 
BRANCH   5  34
ATOM     34  C   UNL     1      -4.501   3.146  24.548  0.00  0.00    +0.031 C 
ATOM     35  C   UNL     1      -4.179   3.826  24.889  0.00  0.00    +0.002 C 
ATOM     36  C   UNL     1      -4.736   3.153  23.758  0.00  0.00    +0.002 C 
ENDBRANCH   5  34
BRANCH   5   3
ATOM      3  C   UNL     1      -5.324   2.260  25.310  0.00  0.00    +0.337 C 
ATOM      4  O   UNL     1      -5.950   2.078  24.805  0.00  0.00    -0.248 OA
BRANCH   3   2
ATOM      1  C   UNL     1      -6.184   2.098  26.439  0.00  0.00    +0.256 C 
ATOM      2  O   UNL     1      -5.434   2.243  26.128  0.00  0.00    -0.443 OA
ENDBRANCH   3   2
ENDBRANCH   5   3
ENDBRANCH   6   5
ENDBRANCH   9   7
TORSDOF 9
ENDMDL
MODEL 5
REMARK VINA RESULT:      -7.3      3.294      5.454
REMARK  Name = 
REMARK  9 active torsions:
REMARK  status: ('A' for Active; 'I' for Inactive)
REMARK    1  A    between atoms: O_2  and  C_3
REMARK    2  A    between atoms: C_3  and  C_5
REMARK    3  A    between atoms: C_5  and  N_6
REMARK    4  A    between atoms: C_5  and  C_34
REMARK    5  A    between atoms: C_7  and  C_9
REMARK    6  A    between atoms: C_11  and  N_22
REMARK    7  A    between atoms: C_14  and  C_16
REMARK    8  A    between atoms: N_25  and  C_26
REMARK    9  A    between atoms: C_29  and  O_30
REMARK                            x       y       z     vdW  Elec       q    Type
REMARK                         _______ _______ _______ _____ _____    ______ ____
ROOT
ATOM      9  C   UNL     1      -2.912   2.605  24.877  0.00  0.00    +0.156 C 
ATOM     10  C   UNL     1      -2.795   1.973  24.360  0.00  0.00    +0.053 C 
ATOM     11  C   UNL     1      -3.532   1.644  24.189  0.00  0.00    +0.119 C 
ATOM     12  C   UNL     1      -4.105   2.073  24.600  0.00  0.00    +0.116 C 
ATOM     13  N   UNL     1      -3.721   2.667  25.025  0.00  0.00    -0.266 N 
ATOM     14  C   UNL     1      -4.083   3.224  25.513  0.00  0.00    +0.265 C 
ATOM     15  O   UNL     1      -3.626   3.788  25.906  0.00  0.00    -0.268 OA
ENDROOT
BRANCH  14  16
ATOM     16  C   UNL     1      -4.902   3.219  25.610  0.00  0.00    +0.114 A 
ATOM     17  C   UNL     1      -5.353   2.588  25.893  0.00  0.00    +0.023 A 
ATOM     18  C   UNL     1      -6.144   2.822  25.898  0.00  0.00    +0.020 A 
ATOM     19  C   UNL     1      -6.183   3.597  25.619  0.00  0.00    +0.076 A 
ATOM     20  N   UNL     1      -5.415   3.842  25.440  0.00  0.00    -0.320 N 
ATOM     21  C   UNL     1      -5.199   4.581  25.145  0.00  0.00    +0.131 C 
ENDBRANCH  14  16
BRANCH  11  22
ATOM     22  N   UNL     1      -3.673   0.999  23.693  0.00  0.00    -0.187 NA
ATOM     23  C   UNL     1      -3.607   0.231  23.987  0.00  0.00    +0.343 C 
ATOM     24  O   UNL     1      -3.401   0.107  24.776  0.00  0.00    -0.249 OA
ATOM     25  N   UNL     1      -3.748  -0.413  23.492  0.00  0.00    -0.161 NA
BRANCH  25  26
ATOM     26  C   UNL     1      -3.682  -1.181  23.785  0.00  0.00    +0.075 A 
ATOM     27  C   UNL     1      -4.354  -1.657  23.852  0.00  0.00    +0.020 A 
ATOM     28  C   UNL     1      -4.287  -2.425  24.146  0.00  0.00    +0.038 A 
ATOM     29  C   UNL     1      -3.550  -2.718  24.372  0.00  0.00    +0.139 A 
ATOM     32  C   UNL     1      -2.878  -2.243  24.305  0.00  0.00    +0.038 A 
ATOM     33  C   UNL     1      -2.945  -1.475  24.012  0.00  0.00    +0.020 A 
BRANCH  29  30
ATOM     30  O   UNL     1      -3.484  -3.487  24.666  0.00  0.00    -0.471 OA
ATOM     31  C   UNL     1      -3.270  -3.610  25.452  0.00  0.00    +0.252 C 
ENDBRANCH  29  30
ENDBRANCH  25  26
ENDBRANCH  11  22
BRANCH   9   7
ATOM      6  N   UNL     1      -1.628   3.222  24.765  0.00  0.00    -0.194 NA
ATOM      7  C   UNL     1      -2.323   3.090  25.190  0.00  0.00    +0.260 C 
ATOM      8  O   UNL     1      -2.428   3.443  25.928  0.00  0.00    -0.272 OA
BRANCH   6   5
ATOM      5  C   UNL     1      -1.039   3.707  25.078  0.00  0.00    +0.193 C 
BRANCH   5  34
ATOM     34  C   UNL     1      -0.940   4.475  24.792  0.00  0.00    +0.031 C 
ATOM     35  C   UNL     1      -0.576   4.599  24.061  0.00  0.00    +0.002 C 
ATOM     36  C   UNL     1      -1.205   5.118  25.234  0.00  0.00    +0.002 C 
ENDBRANCH   5  34
BRANCH   5   3
ATOM      3  C   UNL     1      -0.548   3.424  25.678  0.00  0.00    +0.337 C 
ATOM      4  O   UNL     1      -0.629   3.712  26.447  0.00  0.00    -0.248 OA
BRANCH   3   2
ATOM      1  C   UNL     1       0.424   2.476  26.123  0.00  0.00    +0.256 C 
ATOM      2  O   UNL     1       0.024   2.853  25.508  0.00  0.00    -0.443 OA
ENDBRANCH   3   2
ENDBRANCH   5   3
ENDBRANCH   6   5
ENDBRANCH   9   7
TORSDOF 9
ENDMDL
MODEL 6
REMARK VINA RESULT:      -6.9      2.042      5.878
REMARK  Name = 
REMARK  9 active torsions:
REMARK  status: ('A' for Active; 'I' for Inactive)
REMARK    1  A    between atoms: O_2  and  C_3
REMARK    2  A    between atoms: C_3  and  C_5
REMARK    3  A    between atoms: C_5  and  N_6
REMARK    4  A    between atoms: C_5  and  C_34
REMARK    5  A    between atoms: C_7  and  C_9
REMARK    6  A    between atoms: C_11  and  N_22
REMARK    7  A    between atoms: C_14  and  C_16
REMARK    8  A    between atoms: N_25  and  C_26
REMARK    9  A    between atoms: C_29  and  O_30
REMARK                            x       y       z     vdW  Elec       q    Type
REMARK                         _______ _______ _______ _____ _____    ______ ____
ROOT
ATOM      9  C   UNL     1      -1.906   0.253  24.325  0.00  0.00    +0.156 C 
ATOM     10  C   UNL     1      -2.466   0.818  24.107  0.00  0.00    +0.053 C 
ATOM     11  C   UNL     1      -3.211   0.465  24.144  0.00  0.00    +0.119 C 
ATOM     12  C   UNL     1      -3.111  -0.318  24.384  0.00  0.00    +0.116 C 
ATOM     13  N   UNL     1      -2.304  -0.449  24.496  0.00  0.00    -0.266 N 
ATOM     14  C   UNL     1      -1.957  -1.157  24.737  0.00  0.00    +0.265 C 
ATOM     15  O   UNL     1      -1.137  -1.206  24.826  0.00  0.00    -0.268 OA
ENDROOT
BRANCH  14  16
ATOM     16  C   UNL     1      -2.427  -1.817  24.889  0.00  0.00    +0.114 A 
ATOM     17  C   UNL     1      -3.054  -1.853  25.425  0.00  0.00    +0.023 A 
ATOM     18  C   UNL     1      -3.368  -2.615  25.400  0.00  0.00    +0.020 A 
ATOM     19  C   UNL     1      -2.937  -3.051  24.847  0.00  0.00    +0.076 A 
ATOM     20  N   UNL     1      -2.355  -2.557  24.531  0.00  0.00    -0.320 N 
ATOM     21  C   UNL     1      -1.800  -2.768  23.959  0.00  0.00    +0.131 C 
ENDBRANCH  14  16
BRANCH  11  22
ATOM     22  N   UNL     1      -3.930   0.831  23.970  0.00  0.00    -0.187 NA
ATOM     23  C   UNL     1      -4.187   1.471  24.422  0.00  0.00    +0.343 C 
ATOM     24  O   UNL     1      -3.725   1.746  25.048  0.00  0.00    -0.249 OA
ATOM     25  N   UNL     1      -4.906   1.836  24.249  0.00  0.00    -0.161 NA
BRANCH  25  26
ATOM     26  C   UNL     1      -5.163   2.476  24.700  0.00  0.00    +0.075 A 
ATOM     27  C   UNL     1      -4.834   3.224  24.582  0.00  0.00    +0.020 A 
ATOM     28  C   UNL     1      -5.092   3.864  25.035  0.00  0.00    +0.038 A 
ATOM     29  C   UNL     1      -5.678   3.757  25.605  0.00  0.00    +0.139 A 
ATOM     32  C   UNL     1      -6.008   3.009  25.723  0.00  0.00    +0.038 A 
ATOM     33  C   UNL     1      -5.750   2.370  25.271  0.00  0.00    +0.020 A 
BRANCH  29  30
ATOM     30  O   UNL     1      -5.936   4.397  26.057  0.00  0.00    -0.471 OA
ATOM     31  C   UNL     1      -6.123   5.112  25.691  0.00  0.00    +0.252 C 
ENDBRANCH  29  30
ENDBRANCH  25  26
ENDBRANCH  11  22
BRANCH   9   7
ATOM      6  N   UNL     1      -0.691   0.711  23.729  0.00  0.00    -0.194 NA
ATOM      7  C   UNL     1      -1.090   0.370  24.365  0.00  0.00    +0.260 C 
ATOM      8  O   UNL     1      -0.673   0.145  25.041  0.00  0.00    -0.272 OA
BRANCH   6   5
ATOM      5  C   UNL     1       0.125   0.828  23.768  0.00  0.00    +0.193 C 
BRANCH   5  34
ATOM     34  C   UNL     1       0.429   1.494  24.149  0.00  0.00    +0.031 C 
ATOM     35  C   UNL     1       0.279   2.247  23.846  0.00  0.00    +0.002 C 
ATOM     36  C   UNL     1       0.882   1.408  24.833  0.00  0.00    +0.002 C 
ENDBRANCH   5  34
BRANCH   5   3
ATOM      3  C   UNL     1       0.637   0.279  23.427  0.00  0.00    +0.337 C 
ATOM      4  O   UNL     1       1.201  -0.104  23.891  0.00  0.00    -0.248 OA
BRANCH   3   2
ATOM      1  C   UNL     1       1.170  -0.338  22.253  0.00  0.00    +0.256 C 
ATOM      2  O   UNL     1       0.584   0.112  22.620  0.00  0.00    -0.443 OA
ENDBRANCH   3   2
ENDBRANCH   5   3
ENDBRANCH   6   5
ENDBRANCH   9   7
TORSDOF 9
ENDMDL
