MODEL 1
REMARK VINA RESULT:     -12.1      0.000      0.000
REMARK  Name = 
REMARK  8 active torsions:
REMARK  status: ('A' for Active; 'I' for Inactive)
REMARK    1  A    between atoms: O_2  and  C_3
REMARK    2  A    between atoms: C_3  and  C_4
REMARK    3  A    between atoms: C_13  and  C_15
REMARK    4  A    between atoms: C_23  and  C_24
REMARK    5  A    between atoms: C_24  and  C_25
REMARK    6  A    between atoms: N_27  and  C_28
REMARK    7  A    between atoms: C_28  and  C_29
REMARK    8  A    between atoms: C_32  and  O_33
REMARK                            x       y       z     vdW  Elec       q    Type
REMARK                         _______ _______ _______ _____ _____    ______ ____
ROOT
ATOM      4  C   UNL     1       0.500   0.579  23.435  0.00  0.00    +0.277 C 
ATOM      5  O   UNL     1       0.900   1.244  23.714  0.00  0.00    -0.270 OA
ATOM      6  N   UNL     1      -0.324   0.560  23.447  0.00  0.00    -0.152 NA
ATOM      7  C   UNL     1      -0.748   1.205  23.738  0.00  0.00    +0.185 A 
ATOM      8  N   UNL     1      -1.570   1.263  23.783  0.00  0.00    -0.227 NA
ATOM      9  C   UNL     1      -1.755   1.999  24.108  0.00  0.00    +0.063 A 
ATOM     10  C   UNL     1      -1.047   2.395  24.262  0.00  0.00    +0.023 A 
ATOM     11  C   UNL     1      -1.061   3.151  24.591  0.00  0.00    +0.034 C 
ATOM     12  C   UNL     1      -1.782   3.512  24.766  0.00  0.00    +0.010 C 
ATOM     13  C   UNL     1      -1.795   4.268  25.095  0.00  0.00    +0.059 C 
ATOM     14  C   UNL     1      -0.981   4.157  25.026  0.00  0.00    +0.005 C 
ATOM     17  C   UNL     1      -2.516   4.630  25.270  0.00  0.00    +0.154 C 
ATOM     18  O   UNL     1      -2.530   5.386  25.599  0.00  0.00    -0.223 OA
ATOM     19  C   UNL     1      -3.223   4.234  25.115  0.00  0.00    +0.033 C 
ATOM     20  C   UNL     1      -3.210   3.477  24.786  0.00  0.00    +0.003 C 
ATOM     21  C   UNL     1      -2.489   3.117  24.611  0.00  0.00    +0.006 C 
ATOM     22  C   UNL     1      -3.196   2.722  24.457  0.00  0.00    +0.000 C 
ATOM     23  C   UNL     1      -2.476   2.361  24.282  0.00  0.00    +0.050 C 
ATOM     37  S   UNL     1      -0.425   1.903  24.033  0.00  0.00    -0.054 S 
ENDROOT
BRANCH  13  15
ATOM     15  C   UNL     1      -1.526   4.986  25.400  0.00  0.00    +0.184 C 
ATOM     16  O   UNL     1      -0.830   5.322  25.114  0.00  0.00    -0.220 OA
ENDBRANCH  13  15
BRANCH   4   3
ATOM      3  C   UNL     1       0.924  -0.066  23.144  0.00  0.00    +0.229 C 
BRANCH   3   2
ATOM      1  C   UNL     1       1.966  -0.466  22.253  0.00  0.00    +0.175 C 
ATOM      2  O   UNL     1       1.681   0.043  22.835  0.00  0.00    -0.342 OA
ENDBRANCH   3   2
ENDBRANCH   4   3
BRANCH  23  24
ATOM     24  C   UNL     1      -3.183   1.966  24.128  0.00  0.00    +0.093 C 
BRANCH  24  25
ATOM     25  C   UNL     1      -3.473   1.414  24.668  0.00  0.00    +0.242 C 
ATOM     26  O   UNL     1      -3.542   1.614  25.465  0.00  0.00    -0.273 OA
ATOM     27  N   UNL     1      -3.695   0.662  24.410  0.00  0.00    -0.201 NA
BRANCH  27  28
ATOM     28  C   UNL     1      -3.986   0.111  24.950  0.00  0.00    +0.141 C 
BRANCH  28  29
ATOM     29  C   UNL     1      -3.939  -0.696  24.781  0.00  0.00    -0.000 A 
ATOM     30  C   UNL     1      -4.282  -0.994  24.092  0.00  0.00    +0.001 A 
ATOM     31  C   UNL     1      -4.235  -1.801  23.924  0.00  0.00    +0.037 A 
ATOM     32  C   UNL     1      -3.844  -2.309  24.444  0.00  0.00    +0.139 A 
ATOM     35  C   UNL     1      -3.502  -2.010  25.132  0.00  0.00    +0.037 A 
ATOM     36  C   UNL     1      -3.549  -1.204  25.301  0.00  0.00    +0.001 A 
BRANCH  32  33
ATOM     33  O   UNL     1      -3.797  -3.115  24.276  0.00  0.00    -0.471 OA
ATOM     34  C   UNL     1      -3.071  -3.504  24.320  0.00  0.00    +0.252 C 
ENDBRANCH  32  33
ENDBRANCH  28  29
ENDBRANCH  27  28
ENDBRANCH  24  25
ENDBRANCH  23  24
TORSDOF 8
ENDMDL
MODEL 2
REMARK VINA RESULT:     -12.1      1.756      5.951
REMARK  Name = 
REMARK  8 active torsions:
REMARK  status: ('A' for Active; 'I' for Inactive)
REMARK    1  A    between atoms: O_2  and  C_3
REMARK    2  A    between atoms: C_3  and  C_4
REMARK    3  A    between atoms: C_13  and  C_15
REMARK    4  A    between atoms: C_23  and  C_24
REMARK    5  A    between atoms: C_24  and  C_25
REMARK    6  A    between atoms: N_27  and  C_28
REMARK    7  A    between atoms: C_28  and  C_29
REMARK    8  A    between atoms: C_32  and  O_33
REMARK                            x       y       z     vdW  Elec       q    Type
REMARK                         _______ _______ _______ _____ _____    ______ ____
ROOT
ATOM      4  C   UNL     1      -4.954   2.345  24.883  0.00  0.00    +0.277 C 
ATOM      5  O   UNL     1      -5.453   1.789  24.532  0.00  0.00    -0.270 OA
ATOM      6  N   UNL     1      -4.202   2.121  25.136  0.00  0.00    -0.152 NA
ATOM      7  C   UNL     1      -3.949   1.341  25.040  0.00  0.00    +0.185 A 
ATOM      8  N   UNL     1      -3.215   1.039  25.266  0.00  0.00    -0.227 NA
ATOM      9  C   UNL     1      -3.198   0.238  25.066  0.00  0.00    +0.063 A 
ATOM     10  C   UNL     1      -3.921   0.047  24.717  0.00  0.00    +0.023 A 
ATOM     11  C   UNL     1      -4.062  -0.724  24.459  0.00  0.00    +0.034 C 
ATOM     12  C   UNL     1      -3.483  -1.303  24.550  0.00  0.00    +0.010 C 
ATOM     13  C   UNL     1      -3.624  -2.073  24.292  0.00  0.00    +0.059 C 
ATOM     14  C   UNL     1      -4.341  -1.719  24.087  0.00  0.00    +0.005 C 
ATOM     17  C   UNL     1      -3.044  -2.653  24.383  0.00  0.00    +0.154 C 
ATOM     18  O   UNL     1      -3.186  -3.424  24.125  0.00  0.00    -0.223 OA
ATOM     19  C   UNL     1      -2.322  -2.461  24.732  0.00  0.00    +0.033 C 
ATOM     20  C   UNL     1      -2.179  -1.690  24.990  0.00  0.00    +0.003 C 
ATOM     21  C   UNL     1      -2.760  -1.111  24.899  0.00  0.00    +0.006 C 
ATOM     22  C   UNL     1      -2.037  -0.920  25.248  0.00  0.00    +0.000 C 
ATOM     23  C   UNL     1      -2.617  -0.341  25.157  0.00  0.00    +0.050 C 
ATOM     37  S   UNL     1      -4.385   0.729  24.701  0.00  0.00    -0.054 S 
ENDROOT
BRANCH  13  15
ATOM     15  C   UNL     1      -4.015  -2.721  23.963  0.00  0.00    +0.184 C 
ATOM     16  O   UNL     1      -4.720  -2.612  23.548  0.00  0.00    -0.220 OA
ENDBRANCH  13  15
BRANCH   4   3
ATOM      3  C   UNL     1      -5.207   3.124  24.979  0.00  0.00    +0.229 C 
BRANCH   3   2
ATOM      1  C   UNL     1      -5.971   4.096  25.695  0.00  0.00    +0.175 C 
ATOM      2  O   UNL     1      -5.753   3.310  25.568  0.00  0.00    -0.342 OA
ENDBRANCH   3   2
ENDBRANCH   4   3
BRANCH  23  24
ATOM     24  C   UNL     1      -1.895  -0.150  25.506  0.00  0.00    +0.093 C 
BRANCH  24  25
ATOM     25  C   UNL     1      -1.330   0.274  25.080  0.00  0.00    +0.242 C 
ATOM     26  O   UNL     1      -1.054  -0.018  24.359  0.00  0.00    -0.273 OA
ATOM     27  N   UNL     1      -1.042   0.989  25.373  0.00  0.00    -0.201 NA
BRANCH  27  28
ATOM     28  C   UNL     1      -0.477   1.411  24.947  0.00  0.00    +0.141 C 
BRANCH  28  29
ATOM     29  C   UNL     1      -0.485   2.236  24.957  0.00  0.00    -0.000 A 
ATOM     30  C   UNL     1      -0.539   2.657  24.249  0.00  0.00    +0.001 A 
ATOM     31  C   UNL     1      -0.547   3.482  24.259  0.00  0.00    +0.037 A 
ATOM     32  C   UNL     1      -0.501   3.887  24.977  0.00  0.00    +0.139 A 
ATOM     35  C   UNL     1      -0.447   3.466  25.684  0.00  0.00    +0.037 A 
ATOM     36  C   UNL     1      -0.439   2.641  25.674  0.00  0.00    +0.001 A 
BRANCH  32  33
ATOM     33  O   UNL     1      -0.509   4.712  24.987  0.00  0.00    -0.471 OA
ATOM     34  C   UNL     1      -1.227   5.116  25.037  0.00  0.00    +0.252 C 
ENDBRANCH  32  33
ENDBRANCH  28  29
ENDBRANCH  27  28
ENDBRANCH  24  25
ENDBRANCH  23  24
TORSDOF 8
ENDMDL
MODEL 3
REMARK VINA RESULT:     -11.4      1.492      4.243
REMARK  Name = 
REMARK  8 active torsions:
REMARK  status: ('A' for Active; 'I' for Inactive)
REMARK    1  A    between atoms: O_2  and  C_3
REMARK    2  A    between atoms: C_3  and  C_4
REMARK    3  A    between atoms: C_13  and  C_15
REMARK    4  A    between atoms: C_23  and  C_24
REMARK    5  A    between atoms: C_24  and  C_25
REMARK    6  A    between atoms: N_27  and  C_28
REMARK    7  A    between atoms: C_28  and  C_29
REMARK    8  A    between atoms: C_32  and  O_33
REMARK                            x       y       z     vdW  Elec       q    Type
REMARK                         _______ _______ _______ _____ _____    ______ ____
ROOT
ATOM      4  C   UNL     1      -4.067  -1.523  24.150  0.00  0.00    +0.277 C 
ATOM      5  O   UNL     1      -4.758  -1.295  24.539  0.00  0.00    -0.270 OA
ATOM      6  N   UNL     1      -3.503  -0.957  23.946  0.00  0.00    -0.152 NA
ATOM      7  C   UNL     1      -3.631  -0.163  24.131  0.00  0.00    +0.185 A 
ATOM      8  N   UNL     1      -3.118   0.462  23.961  0.00  0.00    -0.227 NA
ATOM      9  C   UNL     1      -3.463   1.157  24.243  0.00  0.00    +0.063 A 
ATOM     10  C   UNL     1      -4.188   0.961  24.586  0.00  0.00    +0.023 A 
ATOM     11  C   UNL     1      -4.660   1.551  24.917  0.00  0.00    +0.034 C 
ATOM     12  C   UNL     1      -4.408   2.336  24.905  0.00  0.00    +0.010 C 
ATOM     13  C   UNL     1      -4.880   2.926  25.236  0.00  0.00    +0.059 C 
ATOM     14  C   UNL     1      -5.353   2.266  25.380  0.00  0.00    +0.005 C 
ATOM     17  C   UNL     1      -4.628   3.712  25.225  0.00  0.00    +0.154 C 
ATOM     18  O   UNL     1      -5.100   4.302  25.556  0.00  0.00    -0.223 OA
ATOM     19  C   UNL     1      -3.904   3.907  24.882  0.00  0.00    +0.033 C 
ATOM     20  C   UNL     1      -3.431   3.317  24.550  0.00  0.00    +0.003 C 
ATOM     21  C   UNL     1      -3.683   2.532  24.562  0.00  0.00    +0.006 C 
ATOM     22  C   UNL     1      -2.959   2.727  24.220  0.00  0.00    +0.000 C 
ATOM     23  C   UNL     1      -3.211   1.943  24.231  0.00  0.00    +0.050 C 
ATOM     37  S   UNL     1      -4.291   0.145  24.516  0.00  0.00    -0.054 S 
ENDROOT
BRANCH  13  15
ATOM     15  C   UNL     1      -5.516   3.287  25.617  0.00  0.00    +0.184 C 
ATOM     16  O   UNL     1      -5.985   2.854  26.139  0.00  0.00    -0.220 OA
ENDBRANCH  13  15
BRANCH   4   3
ATOM      3  C   UNL     1      -3.940  -2.317  23.966  0.00  0.00    +0.229 C 
BRANCH   3   2
ATOM      1  C   UNL     1      -3.438  -3.590  24.376  0.00  0.00    +0.175 C 
ATOM      2  O   UNL     1      -3.765  -2.857  24.564  0.00  0.00    -0.342 OA
ENDBRANCH   3   2
ENDBRANCH   4   3
BRANCH  23  24
ATOM     24  C   UNL     1      -2.487   2.138  23.889  0.00  0.00    +0.093 C 
BRANCH  24  25
ATOM     25  C   UNL     1      -1.784   1.970  24.286  0.00  0.00    +0.242 C 
ATOM     26  O   UNL     1      -1.717   2.135  25.091  0.00  0.00    -0.273 OA
ATOM     27  N   UNL     1      -1.148   1.639  23.877  0.00  0.00    -0.201 NA
BRANCH  27  28
ATOM     28  C   UNL     1      -0.446   1.471  24.275  0.00  0.00    +0.141 C 
BRANCH  28  29
ATOM     29  C   UNL     1       0.171   1.092  23.880  0.00  0.00    -0.000 A 
ATOM     30  C   UNL     1       0.060   0.334  23.572  0.00  0.00    +0.001 A 
ATOM     31  C   UNL     1       0.677  -0.046  23.177  0.00  0.00    +0.037 A 
ATOM     32  C   UNL     1       1.406   0.333  23.089  0.00  0.00    +0.139 A 
ATOM     35  C   UNL     1       1.516   1.090  23.397  0.00  0.00    +0.037 A 
ATOM     36  C   UNL     1       0.899   1.470  23.792  0.00  0.00    +0.001 A 
BRANCH  32  33
ATOM     33  O   UNL     1       2.023  -0.046  22.694  0.00  0.00    -0.471 OA
ATOM     34  C   UNL     1       2.770   0.302  22.666  0.00  0.00    +0.252 C 
ENDBRANCH  32  33
ENDBRANCH  28  29
ENDBRANCH  27  28
ENDBRANCH  24  25
ENDBRANCH  23  24
TORSDOF 8
ENDMDL
MODEL 4
REMARK VINA RESULT:     -11.4      1.247      5.040
REMARK  Name = 
REMARK  8 active torsions:
REMARK  status: ('A' for Active; 'I' for Inactive)
REMARK    1  A    between atoms: O_2  and  C_3
REMARK    2  A    between atoms: C_3  and  C_4
REMARK    3  A    between atoms: C_13  and  C_15
REMARK    4  A    between atoms: C_23  and  C_24
REMARK    5  A    between atoms: C_24  and  C_25
REMARK    6  A    between atoms: N_27  and  C_28
REMARK    7  A    between atoms: C_28  and  C_29
REMARK    8  A    between atoms: C_32  and  O_33
REMARK                            x       y       z     vdW  Elec       q    Type
REMARK                         _______ _______ _______ _____ _____    ______ ____
ROOT
ATOM      4  C   UNL     1       1.117   0.073  23.219  0.00  0.00    +0.277 C 
ATOM      5  O   UNL     1       0.979  -0.708  22.990  0.00  0.00    -0.270 OA
ATOM      6  N   UNL     1       0.588   0.452  23.725  0.00  0.00    -0.152 NA
ATOM      7  C   UNL     1      -0.078   0.052  24.002  0.00  0.00    +0.185 A 
ATOM      8  N   UNL     1      -0.652   0.359  24.509  0.00  0.00    -0.227 NA
ATOM      9  C   UNL     1      -1.216  -0.229  24.641  0.00  0.00    +0.063 A 
ATOM     10  C   UNL     1      -0.989  -0.899  24.217  0.00  0.00    +0.023 A 
ATOM     11  C   UNL     1      -1.453  -1.581  24.245  0.00  0.00    +0.034 C 
ATOM     12  C   UNL     1      -2.143  -1.593  24.697  0.00  0.00    +0.010 C 
ATOM     13  C   UNL     1      -2.606  -2.274  24.725  0.00  0.00    +0.059 C 
ATOM     14  C   UNL     1      -2.005  -2.530  24.221  0.00  0.00    +0.005 C 
ATOM     17  C   UNL     1      -3.296  -2.287  25.177  0.00  0.00    +0.154 C 
ATOM     18  O   UNL     1      -3.760  -2.969  25.205  0.00  0.00    -0.223 OA
ATOM     19  C   UNL     1      -3.522  -1.617  25.602  0.00  0.00    +0.033 C 
ATOM     20  C   UNL     1      -3.059  -0.934  25.574  0.00  0.00    +0.003 C 
ATOM     21  C   UNL     1      -2.369  -0.923  25.121  0.00  0.00    +0.006 C 
ATOM     22  C   UNL     1      -2.595  -0.253  25.546  0.00  0.00    +0.000 C 
ATOM     23  C   UNL     1      -1.906  -0.241  25.094  0.00  0.00    +0.050 C 
ATOM     37  S   UNL     1      -0.286  -0.725  23.822  0.00  0.00    -0.054 S 
ENDROOT
BRANCH  13  15
ATOM     15  C   UNL     1      -2.861  -3.045  24.578  0.00  0.00    +0.184 C 
ATOM     16  O   UNL     1      -2.615  -3.439  23.896  0.00  0.00    -0.220 OA
ENDBRANCH  13  15
BRANCH   4   3
ATOM      3  C   UNL     1       1.783   0.473  22.942  0.00  0.00    +0.229 C 
BRANCH   3   2
ATOM      1  C   UNL     1       3.106   0.434  22.406  0.00  0.00    +0.175 C 
ATOM      2  O   UNL     1       2.394   0.055  22.579  0.00  0.00    -0.342 OA
ENDBRANCH   3   2
ENDBRANCH   4   3
BRANCH  23  24
ATOM     24  C   UNL     1      -2.132   0.429  25.518  0.00  0.00    +0.093 C 
BRANCH  24  25
ATOM     25  C   UNL     1      -2.495   1.060  25.131  0.00  0.00    +0.242 C 
ATOM     26  O   UNL     1      -3.059   0.915  24.547  0.00  0.00    -0.273 OA
ATOM     27  N   UNL     1      -2.293   1.836  25.327  0.00  0.00    -0.201 NA
BRANCH  27  28
ATOM     28  C   UNL     1      -2.656   2.466  24.939  0.00  0.00    +0.141 C 
BRANCH  28  29
ATOM     29  C   UNL     1      -2.357   3.230  25.025  0.00  0.00    -0.000 A 
ATOM     30  C   UNL     1      -1.714   3.476  24.569  0.00  0.00    +0.001 A 
ATOM     31  C   UNL     1      -1.415   4.240  24.655  0.00  0.00    +0.037 A 
ATOM     32  C   UNL     1      -1.759   4.759  25.197  0.00  0.00    +0.139 A 
ATOM     35  C   UNL     1      -2.401   4.513  25.653  0.00  0.00    +0.037 A 
ATOM     36  C   UNL     1      -2.700   3.749  25.567  0.00  0.00    +0.001 A 
BRANCH  32  33
ATOM     33  O   UNL     1      -1.460   5.524  25.283  0.00  0.00    -0.471 OA
ATOM     34  C   UNL     1      -0.792   5.755  24.857  0.00  0.00    +0.252 C 
ENDBRANCH  32  33
ENDBRANCH  28  29
ENDBRANCH  27  28
ENDBRANCH  24  25
ENDBRANCH  23  24
TORSDOF 8
ENDMDL
MODEL 5
REMARK VINA RESULT:     -11.2      1.788      3.664
REMARK  Name = 
REMARK  8 active torsions:
REMARK  status: ('A' for Active; 'I' for Inactive)
REMARK    1  A    between atoms: O_2  and  C_3
REMARK    2  A    between atoms: C_3  and  C_4
REMARK    3  A    between atoms: C_13  and  C_15
REMARK    4  A    between atoms: C_23  and  C_24
REMARK    5  A    between atoms: C_24  and  C_25
REMARK    6  A    between atoms: N_27  and  C_28
REMARK    7  A    between atoms: C_28  and  C_29
REMARK    8  A    between atoms: C_32  and  O_33
REMARK                            x       y       z     vdW  Elec       q    Type
REMARK                         _______ _______ _______ _____ _____    ______ ____
ROOT
ATOM      4  C   UNL     1      -5.475   2.632  25.837  0.00  0.00    +0.277 C 
ATOM      5  O   UNL     1      -5.309   3.421  26.014  0.00  0.00    -0.270 OA
ATOM      6  N   UNL     1      -4.895   2.157  25.493  0.00  0.00    -0.152 NA
ATOM      7  C   UNL     1      -4.150   2.469  25.327  0.00  0.00    +0.185 A 
ATOM      8  N   UNL     1      -3.519   2.061  24.985  0.00  0.00    -0.227 NA
ATOM      9  C   UNL     1      -2.884   2.584  24.920  0.00  0.00    +0.063 A 
ATOM     10  C   UNL     1      -3.123   3.315  25.220  0.00  0.00    +0.023 A 
ATOM     11  C   UNL     1      -2.597   3.950  25.226  0.00  0.00    +0.034 C 
ATOM     12  C   UNL     1      -1.833   3.856  24.932  0.00  0.00    +0.010 C 
ATOM     13  C   UNL     1      -1.307   4.491  24.938  0.00  0.00    +0.059 C 
ATOM     14  C   UNL     1      -1.969   4.849  25.275  0.00  0.00    +0.005 C 
ATOM     17  C   UNL     1      -0.542   4.397  24.643  0.00  0.00    +0.154 C 
ATOM     18  O   UNL     1      -0.015   5.032  24.649  0.00  0.00    -0.223 OA
ATOM     19  C   UNL     1      -0.303   3.667  24.342  0.00  0.00    +0.033 C 
ATOM     20  C   UNL     1      -0.829   3.030  24.336  0.00  0.00    +0.003 C 
ATOM     21  C   UNL     1      -1.594   3.126  24.631  0.00  0.00    +0.006 C 
ATOM     22  C   UNL     1      -1.355   2.395  24.330  0.00  0.00    +0.000 C 
ATOM     23  C   UNL     1      -2.119   2.490  24.625  0.00  0.00    +0.050 C 
ATOM     37  S   UNL     1      -3.906   3.243  25.472  0.00  0.00    -0.054 S 
ENDROOT
BRANCH  13  15
ATOM     15  C   UNL     1      -1.010   5.251  25.061  0.00  0.00    +0.184 C 
ATOM     16  O   UNL     1      -1.528   5.887  25.148  0.00  0.00    -0.220 OA
ENDBRANCH  13  15
BRANCH   4   3
ATOM      3  C   UNL     1      -6.220   2.320  26.004  0.00  0.00    +0.229 C 
BRANCH   3   2
ATOM      1  C   UNL     1      -6.921   1.548  26.980  0.00  0.00    +0.175 C 
ATOM      2  O   UNL     1      -6.450   2.197  26.786  0.00  0.00    -0.342 OA
ENDBRANCH   3   2
ENDBRANCH   4   3
BRANCH  23  24
ATOM     24  C   UNL     1      -1.880   1.760  24.324  0.00  0.00    +0.093 C 
BRANCH  24  25
ATOM     25  C   UNL     1      -1.728   1.132  24.837  0.00  0.00    +0.242 C 
ATOM     26  O   UNL     1      -1.286   1.259  25.522  0.00  0.00    -0.273 OA
ATOM     27  N   UNL     1      -2.017   0.379  24.665  0.00  0.00    -0.201 NA
BRANCH  27  28
ATOM     28  C   UNL     1      -1.865  -0.248  25.178  0.00  0.00    +0.141 C 
BRANCH  28  29
ATOM     29  C   UNL     1      -2.258  -0.966  25.079  0.00  0.00    -0.000 A 
ATOM     30  C   UNL     1      -1.931  -1.554  24.599  0.00  0.00    +0.001 A 
ATOM     31  C   UNL     1      -2.324  -2.272  24.500  0.00  0.00    +0.037 A 
ATOM     32  C   UNL     1      -3.045  -2.404  24.881  0.00  0.00    +0.139 A 
ATOM     35  C   UNL     1      -3.371  -1.818  25.360  0.00  0.00    +0.037 A 
ATOM     36  C   UNL     1      -2.978  -1.099  25.459  0.00  0.00    +0.001 A 
BRANCH  32  33
ATOM     33  O   UNL     1      -3.438  -3.123  24.782  0.00  0.00    -0.471 OA
ATOM     34  C   UNL     1      -3.972  -3.218  24.161  0.00  0.00    +0.252 C 
ENDBRANCH  32  33
ENDBRANCH  28  29
ENDBRANCH  27  28
ENDBRANCH  24  25
ENDBRANCH  23  24
TORSDOF 8
ENDMDL
MODEL 6
REMARK VINA RESULT:     -10.9      1.614      5.693
REMARK  Name = 
REMARK  8 active torsions:
REMARK  status: ('A' for Active; 'I' for Inactive)
REMARK    1  A    between atoms: O_2  and  C_3
REMARK    2  A    between atoms: C_3  and  C_4
REMARK    3  A    between atoms: C_13  and  C_15
REMARK    4  A    between atoms: C_23  and  C_24
REMARK    5  A    between atoms: C_24  and  C_25
REMARK    6  A    between atoms: N_27  and  C_28
REMARK    7  A    between atoms: C_28  and  C_29
REMARK    8  A    between atoms: C_32  and  O_33
REMARK                            x       y       z     vdW  Elec       q    Type
REMARK                         _______ _______ _______ _____ _____    ______ ____
ROOT
ATOM      4  C   UNL     1      -1.586   3.096  25.367  0.00  0.00    +0.277 C 
ATOM      5  O   UNL     1      -2.370   2.868  25.481  0.00  0.00    -0.270 OA
ATOM      6  N   UNL     1      -1.020   2.532  25.161  0.00  0.00    -0.152 NA
ATOM      7  C   UNL     1      -1.238   1.742  25.070  0.00  0.00    +0.185 A 
ATOM      8  N   UNL     1      -0.734   1.121  24.867  0.00  0.00    -0.227 NA
ATOM      9  C   UNL     1      -1.183   0.429  24.838  0.00  0.00    +0.063 A 
ATOM     10  C   UNL     1      -1.963   0.623  25.023  0.00  0.00    +0.023 A 
ATOM     11  C   UNL     1      -2.542   0.035  25.036  0.00  0.00    +0.034 C 
ATOM     12  C   UNL     1      -2.341  -0.746  24.865  0.00  0.00    +0.010 C 
ATOM     13  C   UNL     1      -2.920  -1.333  24.878  0.00  0.00    +0.059 C 
ATOM     14  C   UNL     1      -3.377  -0.677  25.078  0.00  0.00    +0.005 C 
ATOM     17  C   UNL     1      -2.719  -2.115  24.707  0.00  0.00    +0.154 C 
ATOM     18  O   UNL     1      -3.298  -2.703  24.721  0.00  0.00    -0.223 OA
ATOM     19  C   UNL     1      -1.939  -2.309  24.523  0.00  0.00    +0.033 C 
ATOM     20  C   UNL     1      -1.359  -1.721  24.509  0.00  0.00    +0.003 C 
ATOM     21  C   UNL     1      -1.561  -0.940  24.680  0.00  0.00    +0.006 C 
ATOM     22  C   UNL     1      -0.781  -1.134  24.495  0.00  0.00    +0.000 C 
ATOM     23  C   UNL     1      -0.982  -0.353  24.666  0.00  0.00    +0.050 C 
ATOM     37  S   UNL     1      -1.997   1.435  25.166  0.00  0.00    -0.054 S 
ENDROOT
BRANCH  13  15
ATOM     15  C   UNL     1      -3.658  -1.693  24.961  0.00  0.00    +0.184 C 
ATOM     16  O   UNL     1      -4.347  -1.249  24.869  0.00  0.00    -0.220 OA
ENDBRANCH  13  15
BRANCH   4   3
ATOM      3  C   UNL     1      -1.367   3.886  25.458  0.00  0.00    +0.229 C 
BRANCH   3   2
ATOM      1  C   UNL     1      -1.614   5.264  25.174  0.00  0.00    +0.175 C 
ATOM      2  O   UNL     1      -1.883   4.486  25.223  0.00  0.00    -0.342 OA
ENDBRANCH   3   2
ENDBRANCH   4   3
BRANCH  23  24
ATOM     24  C   UNL     1      -0.202  -0.547  24.482  0.00  0.00    +0.093 C 
BRANCH  24  25
ATOM     25  C   UNL     1       0.105  -0.362  23.739  0.00  0.00    +0.242 C 
ATOM     26  O   UNL     1      -0.387  -0.369  23.077  0.00  0.00    -0.273 OA
ATOM     27  N   UNL     1       0.903  -0.169  23.658  0.00  0.00    -0.201 NA
BRANCH  27  28
ATOM     28  C   UNL     1       1.209   0.016  22.916  0.00  0.00    +0.141 C 
BRANCH  28  29
ATOM     29  C   UNL     1       2.010   0.198  22.833  0.00  0.00    -0.000 A 
ATOM     30  C   UNL     1       2.311   0.894  23.160  0.00  0.00    +0.001 A 
ATOM     31  C   UNL     1       3.111   1.076  23.077  0.00  0.00    +0.037 A 
ATOM     32  C   UNL     1       3.611   0.562  22.669  0.00  0.00    +0.139 A 
ATOM     35  C   UNL     1       3.310  -0.134  22.343  0.00  0.00    +0.037 A 
ATOM     36  C   UNL     1       2.510  -0.315  22.425  0.00  0.00    +0.001 A 
BRANCH  32  33
ATOM     33  O   UNL     1       4.412   0.744  22.586  0.00  0.00    -0.471 OA
ATOM     34  C   UNL     1       4.958   0.460  23.136  0.00  0.00    +0.252 C 
ENDBRANCH  32  33
ENDBRANCH  28  29
ENDBRANCH  27  28
ENDBRANCH  24  25
ENDBRANCH  23  24
TORSDOF 8
ENDMDL
MODEL 7
REMARK VINA RESULT:     -10.6      1.894      5.062
REMARK  Name = 
REMARK  8 active torsions:
REMARK  status: ('A' for Active; 'I' for Inactive)
REMARK    1  A    between atoms: O_2  and  C_3
REMARK    2  A    between atoms: C_3  and  C_4
REMARK    3  A    between atoms: C_13  and  C_15
REMARK    4  A    between atoms: C_23  and  C_24
REMARK    5  A    between atoms: C_24  and  C_25
REMARK    6  A    between atoms: N_27  and  C_28
REMARK    7  A    between atoms: C_28  and  C_29
REMARK    8  A    between atoms: C_32  and  O_33
REMARK                            x       y       z     vdW  Elec       q    Type
REMARK                         _______ _______ _______ _____ _____    ______ ____
ROOT
ATOM      4  C   UNL     1      -0.505   1.861  25.221  0.00  0.00    +0.277 C 
ATOM      5  O   UNL     1      -0.042   1.245  24.927  0.00  0.00    -0.270 OA
ATOM      6  N   UNL     1      -1.304   1.734  25.383  0.00  0.00    -0.152 NA
ATOM      7  C   UNL     1      -1.639   0.992  25.251  0.00  0.00    +0.185 A 
ATOM      8  N   UNL     1      -2.426   0.785  25.387  0.00  0.00    -0.227 NA
ATOM      9  C   UNL     1      -2.520  -0.008  25.181  0.00  0.00    +0.063 A 
ATOM     10  C   UNL     1      -1.791  -0.291  24.917  0.00  0.00    +0.023 A 
ATOM     11  C   UNL     1      -1.717  -1.075  24.672  0.00  0.00    +0.034 C 
ATOM     12  C   UNL     1      -2.372  -1.577  24.690  0.00  0.00    +0.010 C 
ATOM     13  C   UNL     1      -2.298  -2.360  24.444  0.00  0.00    +0.059 C 
ATOM     14  C   UNL     1      -1.524  -2.100  24.327  0.00  0.00    +0.005 C 
ATOM     17  C   UNL     1      -2.952  -2.862  24.462  0.00  0.00    +0.154 C 
ATOM     18  O   UNL     1      -2.879  -3.647  24.216  0.00  0.00    -0.223 OA
ATOM     19  C   UNL     1      -3.681  -2.580  24.725  0.00  0.00    +0.033 C 
ATOM     20  C   UNL     1      -3.756  -1.795  24.971  0.00  0.00    +0.003 C 
ATOM     21  C   UNL     1      -3.101  -1.294  24.953  0.00  0.00    +0.006 C 
ATOM     22  C   UNL     1      -3.829  -1.011  25.216  0.00  0.00    +0.000 C 
ATOM     23  C   UNL     1      -3.175  -0.510  25.199  0.00  0.00    +0.050 C 
ATOM     37  S   UNL     1      -1.246   0.328  24.961  0.00  0.00    -0.054 S 
ENDROOT
BRANCH  13  15
ATOM     15  C   UNL     1      -1.955  -3.054  24.158  0.00  0.00    +0.184 C 
ATOM     16  O   UNL     1      -1.193  -3.039  23.843  0.00  0.00    -0.220 OA
ENDBRANCH  13  15
BRANCH   4   3
ATOM      3  C   UNL     1      -0.170   2.603  25.352  0.00  0.00    +0.229 C 
BRANCH   3   2
ATOM      1  C   UNL     1      -0.237   3.987  25.007  0.00  0.00    +0.175 C 
ATOM      2  O   UNL     1      -0.240   3.194  24.782  0.00  0.00    -0.342 OA
ENDBRANCH   3   2
ENDBRANCH   4   3
BRANCH  23  24
ATOM     24  C   UNL     1      -3.903  -0.228  25.462  0.00  0.00    +0.093 C 
BRANCH  24  25
ATOM     25  C   UNL     1      -4.345   0.281  24.986  0.00  0.00    +0.242 C 
ATOM     26  O   UNL     1      -4.448   0.110  24.185  0.00  0.00    -0.273 OA
ATOM     27  N   UNL     1      -4.685   0.959  25.310  0.00  0.00    -0.201 NA
BRANCH  27  28
ATOM     28  C   UNL     1      -5.127   1.466  24.834  0.00  0.00    +0.141 C 
BRANCH  28  29
ATOM     29  C   UNL     1      -5.265   2.243  25.076  0.00  0.00    -0.000 A 
ATOM     30  C   UNL     1      -4.793   2.856  24.787  0.00  0.00    +0.001 A 
ATOM     31  C   UNL     1      -4.931   3.632  25.028  0.00  0.00    +0.037 A 
ATOM     32  C   UNL     1      -5.541   3.797  25.560  0.00  0.00    +0.139 A 
ATOM     35  C   UNL     1      -6.013   3.185  25.848  0.00  0.00    +0.037 A 
ATOM     36  C   UNL     1      -5.875   2.408  25.606  0.00  0.00    +0.001 A 
BRANCH  32  33
ATOM     33  O   UNL     1      -5.680   4.574  25.802  0.00  0.00    -0.471 OA
ATOM     34  C   UNL     1      -6.247   5.031  25.414  0.00  0.00    +0.252 C 
ENDBRANCH  32  33
ENDBRANCH  28  29
ENDBRANCH  27  28
ENDBRANCH  24  25
ENDBRANCH  23  24
TORSDOF 8
ENDMDL
