MODEL 1
REMARK VINA RESULT:     -10.9      0.000      0.000
REMARK  Name = 
REMARK  6 active torsions:
REMARK  status: ('A' for Active; 'I' for Inactive)
REMARK    1  A    between atoms: N_2  and  C_4
REMARK    2  A    between atoms: C_4  and  C_5
REMARK    3  A    between atoms: C_5  and  N_6
REMARK    4  A    between atoms: N_6  and  C_8
REMARK    5  A    between atoms: C_14  and  N_15
REMARK    6  A    between atoms: N_18  and  C_19
REMARK                            x       y       z     vdW  Elec       q    Type
REMARK                         _______ _______ _______ _____ _____    ______ ____
ROOT
ATOM      8  C   UNL     1      -3.636   1.998  24.569  0.00  0.00    +0.147 C 
ATOM      9  C   UNL     1      -4.131   2.729  24.164  0.00  0.00    +0.253 C 
ATOM     10  O   UNL     1      -3.783   3.455  23.803  0.00  0.00    -0.327 OA
ATOM     11  C   UNL     1      -3.791   2.812  24.138  0.00  0.00    +0.176 C 
ATOM     12  C   UNL     1      -4.237   2.237  24.414  0.00  0.00    +0.170 C 
ATOM     13  O   UNL     1      -4.901   2.451  24.268  0.00  0.00    -0.327 OA
ATOM     14  C   UNL     1      -3.777   1.531  24.805  0.00  0.00    +0.158 C 
ATOM     25  C   UNL     1      -3.005   1.812  24.699  0.00  0.00    +0.194 C 
ATOM     26  O   UNL     1      -2.180   1.839  24.728  0.00  0.00    -0.220 OA
ENDROOT
BRANCH  14  15
ATOM     15  N   UNL     1      -4.053   0.835  25.153  0.00  0.00    -0.184 NA
ATOM     16  C   UNL     1      -3.873   0.105  24.815  0.00  0.00    +0.339 C 
ATOM     17  O   UNL     1      -3.415   0.070  24.129  0.00  0.00    -0.249 OA
ATOM     18  N   UNL     1      -4.149  -0.590  25.163  0.00  0.00    -0.189 NA
BRANCH  18  19
ATOM     19  C   UNL     1      -3.968  -1.320  24.825  0.00  0.00    +0.097 C 
ATOM     20  C   UNL     1      -4.353  -1.563  24.137  0.00  0.00    +0.022 C 
ATOM     21  C   UNL     1      -4.172  -2.295  23.799  0.00  0.00    +0.002 C 
ATOM     22  C   UNL     1      -3.606  -2.782  24.150  0.00  0.00    +0.000 C 
ATOM     23  C   UNL     1      -3.221  -2.539  24.839  0.00  0.00    +0.002 C 
ATOM     24  C   UNL     1      -3.402  -1.808  25.176  0.00  0.00    +0.022 C 
ENDBRANCH  18  19
ENDBRANCH  14  15
BRANCH   8   6
ATOM      6  N   UNL     1      -3.112   2.574  24.297  0.00  0.00    -0.265 NA
ATOM      7  C   UNL     1      -3.016   2.694  23.486  0.00  0.00    +0.090 C 
BRANCH   6   5
ATOM      5  C   UNL     1      -2.684   3.031  24.835  0.00  0.00    +0.090 C 
BRANCH   5   4
ATOM      4  C   UNL     1      -2.113   3.561  24.564  0.00  0.00    +0.090 C 
BRANCH   4   2
ATOM      1  C   UNL     1      -1.949   4.696  25.417  0.00  0.00    +0.090 C 
ATOM      2  N   UNL     1      -1.660   3.990  25.103  0.00  0.00    -0.269 NA
ATOM      3  C   UNL     1      -0.916   3.712  25.329  0.00  0.00    +0.090 C 
ENDBRANCH   4   2
ENDBRANCH   5   4
ENDBRANCH   6   5
ENDBRANCH   8   6
TORSDOF 6
ENDMDL
MODEL 2
REMARK VINA RESULT:      -9.9      1.576      4.377
REMARK  Name = 
REMARK  6 active torsions:
REMARK  status: ('A' for Active; 'I' for Inactive)
REMARK    1  A    between atoms: N_2  and  C_4
REMARK    2  A    between atoms: C_4  and  C_5
REMARK    3  A    between atoms: C_5  and  N_6
REMARK    4  A    between atoms: N_6  and  C_8
REMARK    5  A    between atoms: C_14  and  N_15
REMARK    6  A    between atoms: N_18  and  C_19
REMARK                            x       y       z     vdW  Elec       q    Type
REMARK                         _______ _______ _______ _____ _____    ______ ____
ROOT
ATOM      8  C   UNL     1      -3.788  -0.964  24.836  0.00  0.00    +0.147 C 
ATOM      9  C   UNL     1      -3.841  -1.667  24.169  0.00  0.00    +0.253 C 
ATOM     10  O   UNL     1      -3.299  -2.360  24.099  0.00  0.00    -0.327 OA
ATOM     11  C   UNL     1      -3.567  -1.744  24.373  0.00  0.00    +0.176 C 
ATOM     12  C   UNL     1      -4.117  -1.198  24.307  0.00  0.00    +0.170 C 
ATOM     13  O   UNL     1      -4.500  -1.409  23.745  0.00  0.00    -0.327 OA
ATOM     14  C   UNL     1      -4.078  -0.518  24.939  0.00  0.00    +0.158 C 
ATOM     25  C   UNL     1      -3.416  -0.780  25.363  0.00  0.00    +0.194 C 
ATOM     26  O   UNL     1      -2.820  -0.798  25.934  0.00  0.00    -0.220 OA
ENDROOT
BRANCH  14  15
ATOM     15  N   UNL     1      -4.557   0.146  25.046  0.00  0.00    -0.184 NA
ATOM     16  C   UNL     1      -4.264   0.898  24.879  0.00  0.00    +0.339 C 
ATOM     17  O   UNL     1      -3.491   0.988  24.604  0.00  0.00    -0.249 OA
ATOM     18  N   UNL     1      -4.742   1.561  24.985  0.00  0.00    -0.189 NA
BRANCH  18  19
ATOM     19  C   UNL     1      -4.449   2.314  24.818  0.00  0.00    +0.097 C 
ATOM     20  C   UNL     1      -4.362   2.558  24.035  0.00  0.00    +0.022 C 
ATOM     21  C   UNL     1      -4.068   3.311  23.868  0.00  0.00    +0.002 C 
ATOM     22  C   UNL     1      -3.862   3.819  24.484  0.00  0.00    +0.000 C 
ATOM     23  C   UNL     1      -3.949   3.575  25.268  0.00  0.00    +0.002 C 
ATOM     24  C   UNL     1      -4.242   2.822  25.434  0.00  0.00    +0.022 C 
ENDBRANCH  18  19
ENDBRANCH  14  15
BRANCH   8   6
ATOM      6  N   UNL     1      -3.182  -1.510  24.956  0.00  0.00    -0.265 NA
ATOM      7  C   UNL     1      -3.359  -2.272  25.221  0.00  0.00    +0.090 C 
BRANCH   6   5
ATOM      5  C   UNL     1      -2.398  -1.296  24.812  0.00  0.00    +0.090 C 
BRANCH   5   4
ATOM      4  C   UNL     1      -1.794  -1.850  24.909  0.00  0.00    +0.090 C 
BRANCH   4   2
ATOM      1  C   UNL     1      -0.693  -1.378  24.129  0.00  0.00    +0.090 C 
ATOM      2  N   UNL     1      -1.006  -1.614  24.856  0.00  0.00    -0.269 NA
ATOM      3  C   UNL     1      -0.529  -1.612  25.530  0.00  0.00    +0.090 C 
ENDBRANCH   4   2
ENDBRANCH   5   4
ENDBRANCH   6   5
ENDBRANCH   8   6
TORSDOF 6
ENDMDL
MODEL 3
REMARK VINA RESULT:      -9.8      1.366      2.045
REMARK  Name = 
REMARK  6 active torsions:
REMARK  status: ('A' for Active; 'I' for Inactive)
REMARK    1  A    between atoms: N_2  and  C_4
REMARK    2  A    between atoms: C_4  and  C_5
REMARK    3  A    between atoms: C_5  and  N_6
REMARK    4  A    between atoms: N_6  and  C_8
REMARK    5  A    between atoms: C_14  and  N_15
REMARK    6  A    between atoms: N_18  and  C_19
REMARK                            x       y       z     vdW  Elec       q    Type
REMARK                         _______ _______ _______ _____ _____    ______ ____
ROOT
ATOM      8  C   UNL     1      -1.563   1.367  25.070  0.00  0.00    +0.147 C 
ATOM      9  C   UNL     1      -0.600   1.481  25.039  0.00  0.00    +0.253 C 
ATOM     10  O   UNL     1      -0.169   2.165  24.685  0.00  0.00    -0.327 OA
ATOM     11  C   UNL     1      -0.739   1.763  24.883  0.00  0.00    +0.176 C 
ATOM     12  C   UNL     1      -0.972   1.106  25.229  0.00  0.00    +0.170 C 
ATOM     13  O   UNL     1      -0.364   0.788  25.419  0.00  0.00    -0.327 OA
ATOM     14  C   UNL     1      -1.892   0.983  25.266  0.00  0.00    +0.158 C 
ATOM     25  C   UNL     1      -2.127   1.680  24.884  0.00  0.00    +0.194 C 
ATOM     26  O   UNL     1      -2.621   2.256  24.558  0.00  0.00    -0.220 OA
ENDROOT
BRANCH  14  15
ATOM     15  N   UNL     1      -2.341   0.367  25.583  0.00  0.00    -0.184 NA
ATOM     16  C   UNL     1      -2.658  -0.211  25.087  0.00  0.00    +0.339 C 
ATOM     17  O   UNL     1      -2.528  -0.172  24.274  0.00  0.00    -0.249 OA
ATOM     18  N   UNL     1      -3.106  -0.826  25.405  0.00  0.00    -0.189 NA
BRANCH  18  19
ATOM     19  C   UNL     1      -3.424  -1.404  24.909  0.00  0.00    +0.097 C 
ATOM     20  C   UNL     1      -4.062  -1.222  24.419  0.00  0.00    +0.022 C 
ATOM     21  C   UNL     1      -4.380  -1.799  23.923  0.00  0.00    +0.002 C 
ATOM     22  C   UNL     1      -4.059  -2.559  23.917  0.00  0.00    +0.000 C 
ATOM     23  C   UNL     1      -3.420  -2.742  24.406  0.00  0.00    +0.002 C 
ATOM     24  C   UNL     1      -3.103  -2.164  24.902  0.00  0.00    +0.022 C 
ENDBRANCH  18  19
ENDBRANCH  14  15
BRANCH   8   6
ATOM      6  N   UNL     1      -1.378   2.077  24.694  0.00  0.00    -0.265 NA
ATOM      7  C   UNL     1      -1.110   2.073  23.913  0.00  0.00    +0.090 C 
BRANCH   6   5
ATOM      5  C   UNL     1      -1.460   2.792  25.097  0.00  0.00    +0.090 C 
BRANCH   5   4
ATOM      4  C   UNL     1      -1.497   3.501  24.678  0.00  0.00    +0.090 C 
BRANCH   4   2
ATOM      1  C   UNL     1      -2.196   4.389  25.553  0.00  0.00    +0.090 C 
ATOM      2  N   UNL     1      -1.540   4.218  25.083  0.00  0.00    -0.269 NA
ATOM      3  C   UNL     1      -0.925   4.765  25.020  0.00  0.00    +0.090 C 
ENDBRANCH   4   2
ENDBRANCH   5   4
ENDBRANCH   6   5
ENDBRANCH   8   6
TORSDOF 6
ENDMDL
MODEL 4
REMARK VINA RESULT:      -9.4      1.940      5.142
REMARK  Name = 
REMARK  6 active torsions:
REMARK  status: ('A' for Active; 'I' for Inactive)
REMARK    1  A    between atoms: N_2  and  C_4
REMARK    2  A    between atoms: C_4  and  C_5
REMARK    3  A    between atoms: C_5  and  N_6
REMARK    4  A    between atoms: N_6  and  C_8
REMARK    5  A    between atoms: C_14  and  N_15
REMARK    6  A    between atoms: N_18  and  C_19
REMARK                            x       y       z     vdW  Elec       q    Type
REMARK                         _______ _______ _______ _____ _____    ______ ____
ROOT
ATOM      8  C   UNL     1      -1.310   0.133  24.561  0.00  0.00    +0.147 C 
ATOM      9  C   UNL     1      -0.540  -0.458  24.583  0.00  0.00    +0.253 C 
ATOM     10  O   UNL     1      -0.497  -1.241  24.987  0.00  0.00    -0.327 OA
ATOM     11  C   UNL     1      -0.793  -0.617  24.766  0.00  0.00    +0.176 C 
ATOM     12  C   UNL     1      -0.680   0.042  24.368  0.00  0.00    +0.170 C 
ATOM     13  O   UNL     1      -0.007  -0.011  24.139  0.00  0.00    -0.327 OA
ATOM     14  C   UNL     1      -1.409   0.617  24.339  0.00  0.00    +0.158 C 
ATOM     25  C   UNL     1      -1.941   0.166  24.786  0.00  0.00    +0.194 C 
ATOM     26  O   UNL     1      -2.639  -0.051  25.170  0.00  0.00    -0.220 OA
ENDROOT
BRANCH  14  15
ATOM     15  N   UNL     1      -1.499   1.354  23.978  0.00  0.00    -0.184 NA
ATOM     16  C   UNL     1      -1.500   2.041  24.435  0.00  0.00    +0.339 C 
ATOM     17  O   UNL     1      -1.411   1.991  25.253  0.00  0.00    -0.249 OA
ATOM     18  N   UNL     1      -1.589   2.777  24.074  0.00  0.00    -0.189 NA
BRANCH  18  19
ATOM     19  C   UNL     1      -1.591   3.463  24.531  0.00  0.00    +0.097 C 
ATOM     20  C   UNL     1      -2.288   3.720  24.888  0.00  0.00    +0.022 C 
ATOM     21  C   UNL     1      -2.289   4.407  25.345  0.00  0.00    +0.002 C 
ATOM     22  C   UNL     1      -1.592   4.837  25.445  0.00  0.00    +0.000 C 
ATOM     23  C   UNL     1      -0.894   4.580  25.087  0.00  0.00    +0.002 C 
ATOM     24  C   UNL     1      -0.894   3.893  24.630  0.00  0.00    +0.022 C 
ENDBRANCH  18  19
ENDBRANCH  14  15
BRANCH   8   6
ATOM      6  N   UNL     1      -1.490  -0.545  24.995  0.00  0.00    -0.265 NA
ATOM      7  C   UNL     1      -1.137  -0.671  25.730  0.00  0.00    +0.090 C 
BRANCH   6   5
ATOM      5  C   UNL     1      -2.023  -1.099  24.693  0.00  0.00    +0.090 C 
BRANCH   5   4
ATOM      4  C   UNL     1      -2.228  -1.760  25.141  0.00  0.00    +0.090 C 
BRANCH   4   2
ATOM      1  C   UNL     1      -2.587  -2.859  24.300  0.00  0.00    +0.090 C 
ATOM      2  N   UNL     1      -2.795  -2.289  24.859  0.00  0.00    -0.269 NA
ATOM      3  C   UNL     1      -3.572  -2.247  25.136  0.00  0.00    +0.090 C 
ENDBRANCH   4   2
ENDBRANCH   5   4
ENDBRANCH   6   5
ENDBRANCH   8   6
TORSDOF 6
ENDMDL
