MODEL 1
REMARK VINA RESULT:     -12.6      0.000      0.000
REMARK  Name = 
REMARK  4 active torsions:
REMARK  status: ('A' for Active; 'I' for Inactive)
REMARK    1  A    between atoms: C_2  and  C_5
REMARK    2  A    between atoms: C_12  and  C_14
REMARK    3  A    between atoms: N_17  and  C_18
REMARK    4  A    between atoms: C_18  and  C_19
REMARK                            x       y       z     vdW  Elec       q    Type
REMARK                         _______ _______ _______ _____ _____    ______ ____
ROOT
ATOM      5  C   UNL     1      -1.446   4.298  25.149  0.00  0.00    +0.073 A 
ATOM      6  C   UNL     1      -2.119   3.978  24.797  0.00  0.00    +0.025 A 
ATOM      7  C   UNL     1      -2.214   3.159  24.754  0.00  0.00    +0.100 A 
ATOM      8  C   UNL     1      -1.634   2.661  25.064  0.00  0.00    +0.100 A 
ATOM      9  C   UNL     1      -0.959   2.981  25.416  0.00  0.00    +0.021 A 
ATOM     10  C   UNL     1      -0.866   3.800  25.458  0.00  0.00    +0.005 A 
ATOM     11  N   UNL     1      -1.876   1.882  24.943  0.00  0.00    -0.229 NA
ATOM     12  C   UNL     1      -2.605   1.899  24.559  0.00  0.00    +0.140 A 
ATOM     13  N   UNL     1      -2.813   2.688  24.442  0.00  0.00    -0.229 NA
ENDROOT
BRANCH  12  14
ATOM     14  C   UNL     1      -3.048   1.241  24.331  0.00  0.00    +0.076 C 
ATOM     15  C   UNL     1      -3.147   0.966  23.560  0.00  0.00    +0.026 C 
ATOM     16  C   UNL     1      -3.630   0.298  23.586  0.00  0.00    +0.073 C 
ATOM     17  N   UNL     1      -3.831   0.160  24.374  0.00  0.00    -0.269 NA
ATOM     25  C   UNL     1      -3.471   0.743  24.835  0.00  0.00    +0.080 C 
BRANCH  17  18
ATOM     18  C   UNL     1      -4.308  -0.452  24.654  0.00  0.00    +0.099 C 
BRANCH  18  19
ATOM     19  C   UNL     1      -4.027  -1.228  24.652  0.00  0.00    -0.003 A 
ATOM     20  C   UNL     1      -3.593  -1.512  25.294  0.00  0.00    +0.018 A 
ATOM     21  C   UNL     1      -3.312  -2.287  25.291  0.00  0.00    +0.099 A 
ATOM     22  N   UNL     1      -3.465  -2.779  24.648  0.00  0.00    -0.242 NA
ATOM     23  C   UNL     1      -3.899  -2.496  24.005  0.00  0.00    +0.099 A 
ATOM     24  C   UNL     1      -4.180  -1.720  24.007  0.00  0.00    +0.018 A 
ENDBRANCH  18  19
ENDBRANCH  17  18
ENDBRANCH  12  14
BRANCH   5   2
ATOM      1  F   UNL     1      -1.258   5.935  25.234  0.00  0.00    -0.166 F 
ATOM      2  C   UNL     1      -1.352   5.116  25.191  0.00  0.00    +0.419 C 
ATOM      3  F   UNL     1      -0.710   5.070  24.674  0.00  0.00    -0.166 F 
ATOM      4  F   UNL     1      -1.993   5.163  25.708  0.00  0.00    -0.166 F 
ENDBRANCH   5   2
TORSDOF 4
ENDMDL
MODEL 2
REMARK VINA RESULT:     -12.5      3.238      5.628
REMARK  Name = 
REMARK  4 active torsions:
REMARK  status: ('A' for Active; 'I' for Inactive)
REMARK    1  A    between atoms: C_2  and  C_5
REMARK    2  A    between atoms: C_12  and  C_14
REMARK    3  A    between atoms: N_17  and  C_18
REMARK    4  A    between atoms: C_18  and  C_19
REMARK                            x       y       z     vdW  Elec       q    Type
REMARK                         _______ _______ _______ _____ _____    ______ ____
ROOT
ATOM      5  C   UNL     1      -3.679  -2.181  24.498  0.00  0.00    +0.073 A 
ATOM      6  C   UNL     1      -3.983  -1.531  24.094  0.00  0.00    +0.025 A 
ATOM      7  C   UNL     1      -4.046  -0.801  24.473  0.00  0.00    +0.100 A 
ATOM      8  C   UNL     1      -3.804  -0.722  25.258  0.00  0.00    +0.100 A 
ATOM      9  C   UNL     1      -3.499  -1.374  25.664  0.00  0.00    +0.021 A 
ATOM     10  C   UNL     1      -3.437  -2.103  25.283  0.00  0.00    +0.005 A 
ATOM     11  N   UNL     1      -3.931   0.060  25.487  0.00  0.00    -0.229 NA
ATOM     12  C   UNL     1      -4.252   0.465  24.844  0.00  0.00    +0.140 A 
ATOM     13  N   UNL     1      -4.323  -0.067  24.218  0.00  0.00    -0.229 NA
ENDROOT
BRANCH  12  14
ATOM     14  C   UNL     1      -4.464   1.262  24.830  0.00  0.00    +0.076 C 
ATOM     15  C   UNL     1      -5.206   1.570  25.016  0.00  0.00    +0.026 C 
ATOM     16  C   UNL     1      -5.173   2.389  24.928  0.00  0.00    +0.073 C 
ATOM     17  N   UNL     1      -4.409   2.588  24.688  0.00  0.00    -0.269 NA
ATOM     25  C   UNL     1      -3.971   1.891  24.627  0.00  0.00    +0.080 C 
BRANCH  17  18
ATOM     18  C   UNL     1      -4.132   3.350  24.534  0.00  0.00    +0.099 C 
BRANCH  18  19
ATOM     19  C   UNL     1      -3.516   3.664  24.985  0.00  0.00    -0.003 A 
ATOM     20  C   UNL     1      -3.661   3.936  25.750  0.00  0.00    +0.018 A 
ATOM     21  C   UNL     1      -3.045   4.249  26.200  0.00  0.00    +0.099 A 
ATOM     22  N   UNL     1      -2.283   4.291  25.886  0.00  0.00    -0.242 NA
ATOM     23  C   UNL     1      -2.138   4.018  25.120  0.00  0.00    +0.099 A 
ATOM     24  C   UNL     1      -2.754   3.704  24.670  0.00  0.00    +0.018 A 
ENDBRANCH  18  19
ENDBRANCH  17  18
ENDBRANCH  12  14
BRANCH   5   2
ATOM      1  F   UNL     1      -3.553  -3.641  23.739  0.00  0.00    -0.166 F 
ATOM      2  C   UNL     1      -3.616  -2.910  24.119  0.00  0.00    +0.419 C 
ATOM      3  F   UNL     1      -4.437  -2.941  24.041  0.00  0.00    -0.166 F 
ATOM      4  F   UNL     1      -2.795  -2.880  24.196  0.00  0.00    -0.166 F 
ENDBRANCH   5   2
TORSDOF 4
ENDMDL
MODEL 3
REMARK VINA RESULT:     -12.2      3.110      5.759
REMARK  Name = 
REMARK  4 active torsions:
REMARK  status: ('A' for Active; 'I' for Inactive)
REMARK    1  A    between atoms: C_2  and  C_5
REMARK    2  A    between atoms: C_12  and  C_14
REMARK    3  A    between atoms: N_17  and  C_18
REMARK    4  A    between atoms: C_18  and  C_19
REMARK                            x       y       z     vdW  Elec       q    Type
REMARK                         _______ _______ _______ _____ _____    ______ ____
ROOT
ATOM      5  C   UNL     1      -3.503  -1.898  24.559  0.00  0.00    +0.073 A 
ATOM      6  C   UNL     1      -2.772  -1.575  24.761  0.00  0.00    +0.025 A 
ATOM      7  C   UNL     1      -2.630  -0.770  24.649  0.00  0.00    +0.100 A 
ATOM      8  C   UNL     1      -3.221  -0.288  24.334  0.00  0.00    +0.100 A 
ATOM      9  C   UNL     1      -3.954  -0.611  24.132  0.00  0.00    +0.021 A 
ATOM     10  C   UNL     1      -4.094  -1.416  24.244  0.00  0.00    +0.005 A 
ATOM     11  N   UNL     1      -2.925   0.480  24.286  0.00  0.00    -0.229 NA
ATOM     12  C   UNL     1      -2.151   0.473  24.571  0.00  0.00    +0.140 A 
ATOM     13  N   UNL     1      -1.970  -0.299  24.795  0.00  0.00    -0.229 NA
ENDROOT
BRANCH  12  14
ATOM     14  C   UNL     1      -1.648   1.125  24.623  0.00  0.00    +0.076 C 
ATOM     15  C   UNL     1      -1.110   1.369  24.048  0.00  0.00    +0.026 C 
ATOM     16  C   UNL     1      -0.723   2.042  24.328  0.00  0.00    +0.073 C 
ATOM     17  N   UNL     1      -1.022   2.213  25.077  0.00  0.00    -0.269 NA
ATOM     25  C   UNL     1      -1.593   1.646  25.260  0.00  0.00    +0.080 C 
BRANCH  17  18
ATOM     18  C   UNL     1      -0.790   2.840  25.560  0.00  0.00    +0.099 C 
BRANCH  18  19
ATOM     19  C   UNL     1      -1.110   3.592  25.443  0.00  0.00    -0.003 A 
ATOM     20  C   UNL     1      -0.689   4.157  25.013  0.00  0.00    +0.018 A 
ATOM     21  C   UNL     1      -1.010   4.908  24.896  0.00  0.00    +0.099 A 
ATOM     22  N   UNL     1      -1.750   5.095  25.208  0.00  0.00    -0.242 NA
ATOM     23  C   UNL     1      -2.171   4.529  25.637  0.00  0.00    +0.099 A 
ATOM     24  C   UNL     1      -1.851   3.778  25.755  0.00  0.00    +0.018 A 
ENDBRANCH  18  19
ENDBRANCH  17  18
ENDBRANCH  12  14
BRANCH   5   2
ATOM      1  F   UNL     1      -3.784  -3.509  24.784  0.00  0.00    -0.166 F 
ATOM      2  C   UNL     1      -3.643  -2.703  24.671  0.00  0.00    +0.419 C 
ATOM      3  F   UNL     1      -3.667  -2.586  25.488  0.00  0.00    -0.166 F 
ATOM      4  F   UNL     1      -3.620  -2.821  23.855  0.00  0.00    -0.166 F 
ENDBRANCH   5   2
TORSDOF 4
ENDMDL
