MODEL 1
REMARK VINA RESULT:     -10.4      0.000      0.000
REMARK  Name = 
REMARK  8 active torsions:
REMARK  status: ('A' for Active; 'I' for Inactive)
REMARK    1  A    between atoms: O_2  and  C_3
REMARK    2  A    between atoms: C_6  and  C_9
REMARK    3  A    between atoms: N_11  and  C_12
REMARK    4  A    between atoms: C_12  and  C_13
REMARK    5  A    between atoms: C_20  and  C_21
REMARK    6  A    between atoms: C_23  and  C_27
REMARK    7  A    between atoms: C_30  and  O_31
REMARK    8  A    between atoms: C_33  and  O_34
REMARK                            x       y       z     vdW  Elec       q    Type
REMARK                         _______ _______ _______ _____ _____    ______ ____
ROOT
ATOM     13  C   UNL     1       0.459   0.037  23.262  0.00  0.00    +0.079 C 
ATOM     14  C   UNL     1      -0.034  -0.251  23.790  0.00  0.00    +0.018 C 
ATOM     15  C   UNL     1      -0.620   0.165  24.164  0.00  0.00    +0.010 C 
ATOM     16  C   UNL     1      -1.080  -0.349  24.737  0.00  0.00    +0.018 C 
ATOM     17  C   UNL     1      -0.620  -0.219  24.292  0.00  0.00    +0.072 C 
ATOM     18  N   UNL     1      -0.140   0.454  23.647  0.00  0.00    -0.272 NA
ATOM     19  C   UNL     1      -0.410   1.324  23.593  0.00  0.00    +0.078 C 
ATOM     20  C   UNL     1      -0.875   1.003  24.107  0.00  0.00    +0.056 C 
ENDROOT
BRANCH  20  21
ATOM     21  C   UNL     1      -1.488   1.367  24.521  0.00  0.00    +0.058 A 
ATOM     22  C   UNL     1      -2.292   1.309  24.348  0.00  0.00    +0.035 A 
ATOM     23  C   UNL     1      -2.706   1.759  24.901  0.00  0.00    +0.102 A 
ATOM     24  N   UNL     1      -2.157   2.096  25.417  0.00  0.00    -0.170 NA
ATOM     25  N   UNL     1      -1.404   1.854  25.182  0.00  0.00    -0.253 N 
ATOM     26  C   UNL     1      -0.692   2.062  25.544  0.00  0.00    +0.153 C 
BRANCH  23  27
ATOM     27  C   UNL     1      -3.524   1.856  24.934  0.00  0.00    +0.023 A 
ATOM     28  C   UNL     1      -4.019   1.196  24.918  0.00  0.00    +0.005 A 
ATOM     29  C   UNL     1      -4.838   1.293  24.951  0.00  0.00    +0.040 A 
ATOM     30  C   UNL     1      -5.162   2.050  24.999  0.00  0.00    +0.172 A 
ATOM     33  C   UNL     1      -4.667   2.710  25.015  0.00  0.00    +0.172 A 
ATOM     36  C   UNL     1      -3.849   2.613  24.982  0.00  0.00    +0.042 A 
BRANCH  30  31
ATOM     31  O   UNL     1      -5.981   2.146  25.032  0.00  0.00    -0.468 OA
ATOM     32  C   UNL     1      -6.476   1.491  24.958  0.00  0.00    +0.253 C 
ENDBRANCH  30  31
BRANCH  33  34
ATOM     34  O   UNL     1      -4.991   3.467  25.063  0.00  0.00    -0.468 OA
ATOM     35  C   UNL     1      -4.558   4.081  25.403  0.00  0.00    +0.253 C 
ENDBRANCH  33  34
ENDBRANCH  23  27
ENDBRANCH  20  21
BRANCH  13  12
ATOM     12  C   UNL     1       1.088  -0.025  22.732  0.00  0.00    +0.131 C 
BRANCH  12  11
ATOM      9  C   UNL     1       2.489   0.054  22.462  0.00  0.00    +0.265 C 
ATOM     10  O   UNL     1       2.340  -0.043  21.657  0.00  0.00    -0.268 OA
ATOM     11  N   UNL     1       1.864   0.063  23.000  0.00  0.00    -0.200 NA
BRANCH   9   6
ATOM      3  C   UNL     1       4.815   0.318  23.265  0.00  0.00    +0.139 A 
ATOM      4  C   UNL     1       4.439   0.942  22.878  0.00  0.00    +0.037 A 
ATOM      5  C   UNL     1       3.664   0.854  22.611  0.00  0.00    +0.008 A 
ATOM      6  C   UNL     1       3.264   0.142  22.729  0.00  0.00    +0.055 A 
ATOM      7  C   UNL     1       3.641  -0.482  23.116  0.00  0.00    +0.008 A 
ATOM      8  C   UNL     1       4.416  -0.394  23.384  0.00  0.00    +0.037 A 
BRANCH   3   2
ATOM      1  C   UNL     1       5.847  -0.013  24.195  0.00  0.00    +0.252 C 
ATOM      2  O   UNL     1       5.590   0.406  23.533  0.00  0.00    -0.471 OA
ENDBRANCH   3   2
ENDBRANCH   9   6
ENDBRANCH  12  11
ENDBRANCH  13  12
TORSDOF 8
ENDMDL
MODEL 2
REMARK VINA RESULT:      -8.0      0.993      7.580
REMARK  Name = 
REMARK  8 active torsions:
REMARK  status: ('A' for Active; 'I' for Inactive)
REMARK    1  A    between atoms: O_2  and  C_3
REMARK    2  A    between atoms: C_6  and  C_9
REMARK    3  A    between atoms: N_11  and  C_12
REMARK    4  A    between atoms: C_12  and  C_13
REMARK    5  A    between atoms: C_20  and  C_21
REMARK    6  A    between atoms: C_23  and  C_27
REMARK    7  A    between atoms: C_30  and  O_31
REMARK    8  A    between atoms: C_33  and  O_34
REMARK                            x       y       z     vdW  Elec       q    Type
REMARK                         _______ _______ _______ _____ _____    ______ ____
ROOT
ATOM     13  C   UNL     1      -1.236   0.430  24.208  0.00  0.00    +0.079 C 
ATOM     14  C   UNL     1      -0.646   0.935  24.173  0.00  0.00    +0.018 C 
ATOM     15  C   UNL     1       0.068   0.803  23.814  0.00  0.00    +0.010 C 
ATOM     16  C   UNL     1       0.613   1.511  23.884  0.00  0.00    +0.018 C 
ATOM     17  C   UNL     1       0.061   1.174  23.975  0.00  0.00    +0.072 C 
ATOM     18  N   UNL     1      -0.507   0.302  23.844  0.00  0.00    -0.272 NA
ATOM     19  C   UNL     1      -0.166  -0.415  23.394  0.00  0.00    +0.078 C 
ATOM     20  C   UNL     1       0.389   0.110  23.382  0.00  0.00    +0.056 C 
ENDROOT
BRANCH  20  21
ATOM     21  C   UNL     1       1.135   0.039  23.035  0.00  0.00    +0.058 A 
ATOM     22  C   UNL     1       1.858   0.141  23.418  0.00  0.00    +0.035 A 
ATOM     23  C   UNL     1       2.458   0.020  22.865  0.00  0.00    +0.102 A 
ATOM     24  N   UNL     1       2.105  -0.157  22.141  0.00  0.00    -0.170 NA
ATOM     25  N   UNL     1       1.287  -0.145  22.246  0.00  0.00    -0.253 N 
ATOM     26  C   UNL     1       0.720  -0.292  21.664  0.00  0.00    +0.153 C 
BRANCH  23  27
ATOM     27  C   UNL     1       3.268   0.067  23.010  0.00  0.00    +0.023 A 
ATOM     28  C   UNL     1       3.678   0.764  22.844  0.00  0.00    +0.005 A 
ATOM     29  C   UNL     1       4.488   0.811  22.989  0.00  0.00    +0.040 A 
ATOM     30  C   UNL     1       4.891   0.162  23.300  0.00  0.00    +0.172 A 
ATOM     33  C   UNL     1       4.481  -0.536  23.466  0.00  0.00    +0.172 A 
ATOM     36  C   UNL     1       3.671  -0.583  23.321  0.00  0.00    +0.042 A 
BRANCH  30  31
ATOM     31  O   UNL     1       5.702   0.210  23.444  0.00  0.00    -0.468 OA
ATOM     32  C   UNL     1       6.018   0.883  23.800  0.00  0.00    +0.253 C 
ENDBRANCH  30  31
BRANCH  33  34
ATOM     34  O   UNL     1       4.884  -1.186  23.777  0.00  0.00    -0.468 OA
ATOM     35  C   UNL     1       4.474  -1.880  23.950  0.00  0.00    +0.253 C 
ENDBRANCH  33  34
ENDBRANCH  23  27
ENDBRANCH  20  21
BRANCH  13  12
ATOM     12  C   UNL     1      -1.996   0.200  24.433  0.00  0.00    +0.131 C 
BRANCH  12  11
ATOM      9  C   UNL     1      -3.368   0.561  24.602  0.00  0.00    +0.265 C 
ATOM     10  O   UNL     1      -3.591  -0.219  24.456  0.00  0.00    -0.268 OA
ATOM     11  N   UNL     1      -2.570   0.771  24.591  0.00  0.00    -0.200 NA
BRANCH   9   6
ATOM      3  C   UNL     1      -5.090   2.274  25.075  0.00  0.00    +0.139 A 
ATOM      4  C   UNL     1      -5.224   1.487  25.282  0.00  0.00    +0.037 A 
ATOM      5  C   UNL     1      -4.650   0.916  25.124  0.00  0.00    +0.008 A 
ATOM      6  C   UNL     1      -3.942   1.132  24.760  0.00  0.00    +0.055 A 
ATOM      7  C   UNL     1      -3.808   1.919  24.554  0.00  0.00    +0.008 A 
ATOM      8  C   UNL     1      -4.382   2.490  24.711  0.00  0.00    +0.037 A 
BRANCH   3   2
ATOM      1  C   UNL     1      -5.442   3.580  25.536  0.00  0.00    +0.252 C 
ATOM      2  O   UNL     1      -5.665   2.845  25.234  0.00  0.00    -0.471 OA
ENDBRANCH   3   2
ENDBRANCH   9   6
ENDBRANCH  12  11
ENDBRANCH  13  12
TORSDOF 8
ENDMDL
