MODEL 1
REMARK VINA RESULT:     -10.1      0.000      0.000
REMARK  Name = 
REMARK  3 active torsions:
REMARK  status: ('A' for Active; 'I' for Inactive)
REMARK    1  A    between atoms: C_2  and  C_3
REMARK    2  A    between atoms: C_10  and  C_11
REMARK    3  A    between atoms: C_11  and  N_12
REMARK                            x       y       z     vdW  Elec       q    Type
REMARK                         _______ _______ _______ _____ _____    ______ ____
ROOT
ATOM      3  C   UNL     1      -3.829  -1.731  24.584  0.00  0.00    +0.016 C 
ATOM      4  C   UNL     1      -4.216  -1.395  23.998  0.00  0.00    +0.072 C 
ATOM      5  N   UNL     1      -3.991  -1.033  24.705  0.00  0.00    -0.272 NA
ATOM      6  C   UNL     1      -3.490  -1.754  25.277  0.00  0.00    +0.072 C 
ATOM      7  C   UNL     1      -3.174  -1.927  25.822  0.00  0.00    +0.017 C 
ATOM      8  C   UNL     1      -3.612  -1.368  25.275  0.00  0.00    +0.004 C 
ATOM      9  C   UNL     1      -3.728  -0.550  25.571  0.00  0.00    +0.018 C 
ATOM     10  C   UNL     1      -4.108  -0.184  25.019  0.00  0.00    +0.079 C 
ENDROOT
BRANCH   3   2
ATOM      1  C   UNL     1      -3.864  -2.941  23.825  0.00  0.00    +0.000 C 
ATOM      2  C   UNL     1      -3.621  -2.525  24.494  0.00  0.00    +0.001 C 
ENDBRANCH   3   2
BRANCH  10  11
ATOM     11  C   UNL     1      -4.433   0.548  24.824  0.00  0.00    +0.133 C 
BRANCH  11  12
ATOM     12  N   UNL     1      -3.966   1.227  24.849  0.00  0.00    -0.187 NA
ATOM     13  C   UNL     1      -4.299   1.963  24.680  0.00  0.00    +0.323 C 
ATOM     14  O   UNL     1      -5.098   2.019  24.485  0.00  0.00    -0.251 OA
ATOM     15  N   UNL     1      -3.831   2.642  24.706  0.00  0.00    -0.258 N 
ATOM     16  C   UNL     1      -4.164   3.378  24.536  0.00  0.00    +0.127 C 
ATOM     17  C   UNL     1      -3.697   4.058  24.562  0.00  0.00    +0.164 C 
ATOM     18  O   UNL     1      -2.897   4.001  24.757  0.00  0.00    -0.350 OA
ATOM     19  C   UNL     1      -2.565   3.265  24.927  0.00  0.00    +0.164 C 
ATOM     20  C   UNL     1      -3.031   2.586  24.901  0.00  0.00    +0.127 C 
ENDBRANCH  11  12
ENDBRANCH  10  11
TORSDOF 3
ENDMDL
MODEL 2
REMARK VINA RESULT:     -10.0      1.019      1.646
REMARK  Name = 
REMARK  3 active torsions:
REMARK  status: ('A' for Active; 'I' for Inactive)
REMARK    1  A    between atoms: C_2  and  C_3
REMARK    2  A    between atoms: C_10  and  C_11
REMARK    3  A    between atoms: C_11  and  N_12
REMARK                            x       y       z     vdW  Elec       q    Type
REMARK                         _______ _______ _______ _____ _____    ______ ____
ROOT
ATOM      3  C   UNL     1      -3.541  -1.695  24.767  0.00  0.00    +0.016 C 
ATOM      4  C   UNL     1      -3.131  -1.262  25.268  0.00  0.00    +0.072 C 
ATOM      5  N   UNL     1      -3.572  -0.982  24.629  0.00  0.00    -0.272 NA
ATOM      6  C   UNL     1      -4.000  -1.816  24.158  0.00  0.00    +0.072 C 
ATOM      7  C   UNL     1      -4.371  -2.074  23.687  0.00  0.00    +0.017 C 
ATOM      8  C   UNL     1      -3.972  -1.413  24.143  0.00  0.00    +0.004 C 
ATOM      9  C   UNL     1      -4.111  -0.599  23.844  0.00  0.00    +0.018 C 
ATOM     10  C   UNL     1      -3.722  -0.139  24.313  0.00  0.00    +0.079 C 
ENDROOT
BRANCH   3   2
ATOM      1  C   UNL     1      -3.125  -2.836  25.520  0.00  0.00    +0.000 C 
ATOM      2  C   UNL     1      -3.536  -2.513  24.883  0.00  0.00    +0.001 C 
ENDBRANCH   3   2
BRANCH  10  11
ATOM     11  C   UNL     1      -3.542   0.653  24.451  0.00  0.00    +0.133 C 
BRANCH  11  12
ATOM     12  N   UNL     1      -4.116   1.159  24.761  0.00  0.00    -0.187 NA
ATOM     13  C   UNL     1      -3.949   1.960  24.860  0.00  0.00    +0.323 C 
ATOM     14  O   UNL     1      -3.208   2.257  24.649  0.00  0.00    -0.251 OA
ATOM     15  N   UNL     1      -4.522   2.466  25.170  0.00  0.00    -0.258 N 
ATOM     16  C   UNL     1      -4.356   3.268  25.268  0.00  0.00    +0.127 C 
ATOM     17  C   UNL     1      -4.929   3.774  25.578  0.00  0.00    +0.164 C 
ATOM     18  O   UNL     1      -5.670   3.477  25.789  0.00  0.00    -0.350 OA
ATOM     19  C   UNL     1      -5.836   2.675  25.690  0.00  0.00    +0.164 C 
ATOM     20  C   UNL     1      -5.263   2.170  25.381  0.00  0.00    +0.127 C 
ENDBRANCH  11  12
ENDBRANCH  10  11
TORSDOF 3
ENDMDL
MODEL 3
REMARK VINA RESULT:      -9.3      1.440      4.788
REMARK  Name = 
REMARK  3 active torsions:
REMARK  status: ('A' for Active; 'I' for Inactive)
REMARK    1  A    between atoms: C_2  and  C_3
REMARK    2  A    between atoms: C_10  and  C_11
REMARK    3  A    between atoms: C_11  and  N_12
REMARK                            x       y       z     vdW  Elec       q    Type
REMARK                         _______ _______ _______ _____ _____    ______ ____
ROOT
ATOM      3  C   UNL     1      -2.110   3.800  25.132  0.00  0.00    +0.016 C 
ATOM      4  C   UNL     1      -1.780   3.406  24.547  0.00  0.00    +0.072 C 
ATOM      5  N   UNL     1      -2.494   3.221  24.918  0.00  0.00    -0.272 NA
ATOM      6  C   UNL     1      -2.654   3.945  25.660  0.00  0.00    +0.072 C 
ATOM      7  C   UNL     1      -3.017   4.192  26.143  0.00  0.00    +0.017 C 
ATOM      8  C   UNL     1      -2.811   3.613  25.491  0.00  0.00    +0.004 C 
ATOM      9  C   UNL     1      -3.385   2.963  25.356  0.00  0.00    +0.018 C 
ATOM     10  C   UNL     1      -3.096   2.548  24.784  0.00  0.00    +0.079 C 
ENDROOT
BRANCH   3   2
ATOM      1  C   UNL     1      -1.012   4.711  25.047  0.00  0.00    +0.000 C 
ATOM      2  C   UNL     1      -1.710   4.467  25.410  0.00  0.00    +0.001 C 
ENDBRANCH   3   2
BRANCH  10  11
ATOM     11  C   UNL     1      -3.242   1.883  24.319  0.00  0.00    +0.133 C 
BRANCH  11  12
ATOM     12  N   UNL     1      -3.314   1.141  24.671  0.00  0.00    -0.187 NA
ATOM     13  C   UNL     1      -3.496   0.482  24.209  0.00  0.00    +0.323 C 
ATOM     14  O   UNL     1      -3.606   0.565  23.396  0.00  0.00    -0.251 OA
ATOM     15  N   UNL     1      -3.569  -0.261  24.561  0.00  0.00    -0.258 N 
ATOM     16  C   UNL     1      -3.751  -0.920  24.100  0.00  0.00    +0.127 C 
ATOM     17  C   UNL     1      -3.824  -1.663  24.452  0.00  0.00    +0.164 C 
ATOM     18  O   UNL     1      -3.714  -1.746  25.265  0.00  0.00    -0.350 OA
ATOM     19  C   UNL     1      -3.531  -1.086  25.727  0.00  0.00    +0.164 C 
ATOM     20  C   UNL     1      -3.459  -0.345  25.375  0.00  0.00    +0.127 C 
ENDBRANCH  11  12
ENDBRANCH  10  11
TORSDOF 3
ENDMDL
MODEL 4
REMARK VINA RESULT:      -9.3      1.842      4.489
REMARK  Name = 
REMARK  3 active torsions:
REMARK  status: ('A' for Active; 'I' for Inactive)
REMARK    1  A    between atoms: C_2  and  C_3
REMARK    2  A    between atoms: C_10  and  C_11
REMARK    3  A    between atoms: C_11  and  N_12
REMARK                            x       y       z     vdW  Elec       q    Type
REMARK                         _______ _______ _______ _____ _____    ______ ____
ROOT
ATOM      3  C   UNL     1      -4.720   2.479  24.928  0.00  0.00    +0.016 C 
ATOM      4  C   UNL     1      -5.120   1.909  25.275  0.00  0.00    +0.072 C 
ATOM      5  N   UNL     1      -4.509   1.813  24.728  0.00  0.00    -0.272 NA
ATOM      6  C   UNL     1      -4.184   2.772  24.455  0.00  0.00    +0.072 C 
ATOM      7  C   UNL     1      -3.789   3.161  24.110  0.00  0.00    +0.017 C 
ATOM      8  C   UNL     1      -4.122   2.377  24.392  0.00  0.00    +0.004 C 
ATOM      9  C   UNL     1      -3.754   1.657  24.051  0.00  0.00    +0.018 C 
ATOM     10  C   UNL     1      -4.122   1.068  24.369  0.00  0.00    +0.079 C 
ENDROOT
BRANCH   3   2
ATOM      1  C   UNL     1      -5.539   3.400  25.652  0.00  0.00    +0.000 C 
ATOM      2  C   UNL     1      -4.923   3.256  25.123  0.00  0.00    +0.001 C 
ENDBRANCH   3   2
BRANCH  10  11
ATOM     11  C   UNL     1      -4.152   0.245  24.381  0.00  0.00    +0.133 C 
BRANCH  11  12
ATOM     12  N   UNL     1      -3.459  -0.192  24.483  0.00  0.00    -0.187 NA
ATOM     13  C   UNL     1      -3.478  -1.014  24.420  0.00  0.00    +0.323 C 
ATOM     14  O   UNL     1      -4.189  -1.400  24.255  0.00  0.00    -0.251 OA
ATOM     15  N   UNL     1      -2.786  -1.451  24.521  0.00  0.00    -0.258 N 
ATOM     16  C   UNL     1      -2.804  -2.274  24.458  0.00  0.00    +0.127 C 
ATOM     17  C   UNL     1      -2.112  -2.711  24.560  0.00  0.00    +0.164 C 
ATOM     18  O   UNL     1      -1.401  -2.325  24.724  0.00  0.00    -0.350 OA
ATOM     19  C   UNL     1      -1.383  -1.503  24.787  0.00  0.00    +0.164 C 
ATOM     20  C   UNL     1      -2.075  -1.066  24.686  0.00  0.00    +0.127 C 
ENDBRANCH  11  12
ENDBRANCH  10  11
TORSDOF 3
ENDMDL
