MODEL 1
REMARK VINA RESULT:      -7.2      0.000      0.000
REMARK  Name = 
REMARK  5 active torsions:
REMARK  status: ('A' for Active; 'I' for Inactive)
REMARK    1  A    between atoms: O_2  and  C_3
REMARK    2  A    between atoms: C_3  and  C_4
REMARK    3  A    between atoms: C_4  and  O_5
REMARK    4  A    between atoms: O_5  and  C_6
REMARK    5  A    between atoms: N_11  and  C_13
REMARK                            x       y       z     vdW  Elec       q    Type
REMARK                         _______ _______ _______ _____ _____    ______ ____
ROOT
ATOM      6  C   UNL     1      -3.742   2.160  24.631  0.00  0.00    +0.161 C 
ATOM      7  C   UNL     1      -4.390   2.657  24.754  0.00  0.00    +0.173 C 
ATOM      8  O   UNL     1      -5.167   2.452  24.939  0.00  0.00    -0.350 OA
ATOM      9  C   UNL     1      -5.489   1.700  25.047  0.00  0.00    +0.160 C 
ATOM     10  C   UNL     1      -5.114   0.968  24.996  0.00  0.00    +0.105 C 
ATOM     11  N   UNL     1      -4.323   0.805  24.825  0.00  0.00    -0.270 NA
ATOM     12  C   UNL     1      -3.713   1.336  24.663  0.00  0.00    +0.105 C 
ENDROOT
BRANCH  11  13
ATOM     13  C   UNL     1      -4.115   0.007  24.815  0.00  0.00    +0.063 C 
ATOM     14  C   UNL     1      -3.833  -0.353  25.501  0.00  0.00    +0.048 C 
ATOM     15  C   UNL     1      -3.624  -1.152  25.492  0.00  0.00    +0.144 C 
ATOM     16  O   UNL     1      -3.699  -1.590  24.796  0.00  0.00    -0.354 OA
ATOM     17  C   UNL     1      -3.981  -1.228  24.110  0.00  0.00    +0.144 C 
ATOM     18  C   UNL     1      -4.189  -0.430  24.120  0.00  0.00    +0.048 C 
ENDBRANCH  11  13
BRANCH   6   5
ATOM      5  O   UNL     1      -3.031   2.538  24.453  0.00  0.00    -0.350 OA
BRANCH   5   4
ATOM      4  C   UNL     1      -2.729   3.111  24.962  0.00  0.00    +0.174 C 
BRANCH   4   3
ATOM      3  C   UNL     1      -1.990   3.446  24.815  0.00  0.00    +0.174 C 
BRANCH   3   2
ATOM      1  C   UNL     1      -1.072   4.508  25.079  0.00  0.00    +0.174 C 
ATOM      2  O   UNL     1      -1.685   4.017  25.327  0.00  0.00    -0.348 OA
ENDBRANCH   3   2
ENDBRANCH   4   3
ENDBRANCH   5   4
ENDBRANCH   6   5
TORSDOF 5
ENDMDL
MODEL 2
REMARK VINA RESULT:      -7.0      1.090      3.918
REMARK  Name = 
REMARK  5 active torsions:
REMARK  status: ('A' for Active; 'I' for Inactive)
REMARK    1  A    between atoms: O_2  and  C_3
REMARK    2  A    between atoms: C_3  and  C_4
REMARK    3  A    between atoms: C_4  and  O_5
REMARK    4  A    between atoms: O_5  and  C_6
REMARK    5  A    between atoms: N_11  and  C_13
REMARK                            x       y       z     vdW  Elec       q    Type
REMARK                         _______ _______ _______ _____ _____    ______ ____
ROOT
ATOM      6  C   UNL     1      -4.612   1.564  24.926  0.00  0.00    +0.161 C 
ATOM      7  C   UNL     1      -5.425   1.576  25.070  0.00  0.00    +0.173 C 
ATOM      8  O   UNL     1      -5.891   2.203  25.337  0.00  0.00    -0.350 OA
ATOM      9  C   UNL     1      -5.659   2.973  25.525  0.00  0.00    +0.160 C 
ATOM     10  C   UNL     1      -4.905   3.305  25.493  0.00  0.00    +0.105 C 
ATOM     11  N   UNL     1      -4.196   2.951  25.265  0.00  0.00    -0.270 NA
ATOM     12  C   UNL     1      -4.066   2.176  25.013  0.00  0.00    +0.105 C 
ENDROOT
BRANCH  11  13
ATOM     13  C   UNL     1      -3.529   3.435  25.293  0.00  0.00    +0.063 C 
ATOM     14  C   UNL     1      -3.202   3.644  26.021  0.00  0.00    +0.048 C 
ATOM     15  C   UNL     1      -2.534   4.128  26.049  0.00  0.00    +0.144 C 
ATOM     16  O   UNL     1      -2.193   4.403  25.349  0.00  0.00    -0.354 OA
ATOM     17  C   UNL     1      -2.521   4.193  24.621  0.00  0.00    +0.144 C 
ATOM     18  C   UNL     1      -3.188   3.709  24.594  0.00  0.00    +0.048 C 
ENDBRANCH  11  13
BRANCH   6   5
ATOM      5  O   UNL     1      -4.307   0.845  24.660  0.00  0.00    -0.350 OA
BRANCH   5   4
ATOM      4  C   UNL     1      -4.274   0.197  25.169  0.00  0.00    +0.174 C 
BRANCH   4   3
ATOM      3  C   UNL     1      -3.917  -0.503  24.922  0.00  0.00    +0.174 C 
BRANCH   3   2
ATOM      1  C   UNL     1      -3.466  -1.829  25.205  0.00  0.00    +0.174 C 
ATOM      2  O   UNL     1      -3.817  -1.126  25.454  0.00  0.00    -0.348 OA
ENDBRANCH   3   2
ENDBRANCH   4   3
ENDBRANCH   5   4
ENDBRANCH   6   5
TORSDOF 5
ENDMDL
MODEL 3
REMARK VINA RESULT:      -6.8      2.045      3.405
REMARK  Name = 
REMARK  5 active torsions:
REMARK  status: ('A' for Active; 'I' for Inactive)
REMARK    1  A    between atoms: O_2  and  C_3
REMARK    2  A    between atoms: C_3  and  C_4
REMARK    3  A    between atoms: C_4  and  O_5
REMARK    4  A    between atoms: O_5  and  C_6
REMARK    5  A    between atoms: N_11  and  C_13
REMARK                            x       y       z     vdW  Elec       q    Type
REMARK                         _______ _______ _______ _____ _____    ______ ____
ROOT
ATOM      6  C   UNL     1      -2.339   1.514  24.429  0.00  0.00    +0.161 C 
ATOM      7  C   UNL     1      -2.010   1.658  23.686  0.00  0.00    +0.173 C 
ATOM      8  O   UNL     1      -2.334   2.074  23.052  0.00  0.00    -0.350 OA
ATOM      9  C   UNL     1      -3.069   2.448  23.003  0.00  0.00    +0.160 C 
ATOM     10  C   UNL     1      -3.658   2.498  23.577  0.00  0.00    +0.105 C 
ATOM     11  N   UNL     1      -3.661   2.188  24.341  0.00  0.00    -0.270 NA
ATOM     12  C   UNL     1      -3.074   1.750  24.720  0.00  0.00    +0.105 C 
ENDROOT
BRANCH  11  13
ATOM     13  C   UNL     1      -4.341   2.335  24.785  0.00  0.00    +0.063 C 
ATOM     14  C   UNL     1      -4.397   3.023  25.236  0.00  0.00    +0.048 C 
ATOM     15  C   UNL     1      -5.077   3.170  25.680  0.00  0.00    +0.144 C 
ATOM     16  O   UNL     1      -5.700   2.628  25.673  0.00  0.00    -0.354 OA
ATOM     17  C   UNL     1      -5.643   1.940  25.222  0.00  0.00    +0.144 C 
ATOM     18  C   UNL     1      -4.963   1.794  24.778  0.00  0.00    +0.048 C 
ENDBRANCH  11  13
BRANCH   6   5
ATOM      5  O   UNL     1      -1.871   1.077  24.949  0.00  0.00    -0.350 OA
BRANCH   5   4
ATOM      4  C   UNL     1      -1.548   0.357  24.708  0.00  0.00    +0.174 C 
BRANCH   4   3
ATOM      3  C   UNL     1      -1.198  -0.144  25.261  0.00  0.00    +0.174 C 
BRANCH   3   2
ATOM      1  C   UNL     1      -0.664  -1.468  25.328  0.00  0.00    +0.174 C 
ATOM      2  O   UNL     1      -0.643  -0.704  25.018  0.00  0.00    -0.348 OA
ENDBRANCH   3   2
ENDBRANCH   4   3
ENDBRANCH   5   4
ENDBRANCH   6   5
TORSDOF 5
ENDMDL
MODEL 4
REMARK VINA RESULT:      -6.7      1.574      2.436
REMARK  Name = 
REMARK  5 active torsions:
REMARK  status: ('A' for Active; 'I' for Inactive)
REMARK    1  A    between atoms: O_2  and  C_3
REMARK    2  A    between atoms: C_3  and  C_4
REMARK    3  A    between atoms: C_4  and  O_5
REMARK    4  A    between atoms: O_5  and  C_6
REMARK    5  A    between atoms: N_11  and  C_13
REMARK                            x       y       z     vdW  Elec       q    Type
REMARK                         _______ _______ _______ _____ _____    ______ ____
ROOT
ATOM      6  C   UNL     1      -3.229   1.107  24.313  0.00  0.00    +0.161 C 
ATOM      7  C   UNL     1      -2.494   1.478  24.256  0.00  0.00    +0.173 C 
ATOM      8  O   UNL     1      -1.743   1.137  24.281  0.00  0.00    -0.350 OA
ATOM      9  C   UNL     1      -1.541   0.342  24.369  0.00  0.00    +0.160 C 
ATOM     10  C   UNL     1      -2.040  -0.309  24.454  0.00  0.00    +0.105 C 
ATOM     11  N   UNL     1      -2.865  -0.326  24.471  0.00  0.00    -0.270 NA
ATOM     12  C   UNL     1      -3.393   0.304  24.409  0.00  0.00    +0.105 C 
ENDROOT
BRANCH  11  13
ATOM     13  C   UNL     1      -3.206  -1.071  24.564  0.00  0.00    +0.063 C 
ATOM     14  C   UNL     1      -3.114  -1.481  25.273  0.00  0.00    +0.048 C 
ATOM     15  C   UNL     1      -3.455  -2.227  25.366  0.00  0.00    +0.144 C 
ATOM     16  O   UNL     1      -3.889  -2.562  24.748  0.00  0.00    -0.354 OA
ATOM     17  C   UNL     1      -3.981  -2.152  24.039  0.00  0.00    +0.144 C 
ATOM     18  C   UNL     1      -3.639  -1.406  23.947  0.00  0.00    +0.048 C 
ENDBRANCH  11  13
BRANCH   6   5
ATOM      5  O   UNL     1      -3.885   1.605  24.268  0.00  0.00    -0.350 OA
BRANCH   5   4
ATOM      4  C   UNL     1      -4.011   2.175  24.851  0.00  0.00    +0.174 C 
BRANCH   4   3
ATOM      3  C   UNL     1      -4.713   2.608  24.858  0.00  0.00    +0.174 C 
BRANCH   3   2
ATOM      1  C   UNL     1      -5.551   3.479  25.619  0.00  0.00    +0.174 C 
ATOM      2  O   UNL     1      -4.800   3.244  25.377  0.00  0.00    -0.348 OA
ENDBRANCH   3   2
ENDBRANCH   4   3
ENDBRANCH   5   4
ENDBRANCH   6   5
TORSDOF 5
ENDMDL
MODEL 5
REMARK VINA RESULT:      -6.7      1.156      3.941
REMARK  Name = 
REMARK  5 active torsions:
REMARK  status: ('A' for Active; 'I' for Inactive)
REMARK    1  A    between atoms: O_2  and  C_3
REMARK    2  A    between atoms: C_3  and  C_4
REMARK    3  A    between atoms: C_4  and  O_5
REMARK    4  A    between atoms: O_5  and  C_6
REMARK    5  A    between atoms: N_11  and  C_13
REMARK                            x       y       z     vdW  Elec       q    Type
REMARK                         _______ _______ _______ _____ _____    ______ ____
ROOT
ATOM      6  C   UNL     1      -3.780   1.513  24.785  0.00  0.00    +0.161 C 
ATOM      7  C   UNL     1      -4.494   1.864  24.565  0.00  0.00    +0.173 C 
ATOM      8  O   UNL     1      -4.637   2.650  24.357  0.00  0.00    -0.350 OA
ATOM      9  C   UNL     1      -4.103   3.278  24.318  0.00  0.00    +0.160 C 
ATOM     10  C   UNL     1      -3.294   3.275  24.477  0.00  0.00    +0.105 C 
ATOM     11  N   UNL     1      -2.819   2.644  24.715  0.00  0.00    -0.270 NA
ATOM     12  C   UNL     1      -3.035   1.861  24.852  0.00  0.00    +0.105 C 
ENDROOT
BRANCH  11  13
ATOM     13  C   UNL     1      -2.021   2.821  24.831  0.00  0.00    +0.063 C 
ATOM     14  C   UNL     1      -1.766   3.111  25.559  0.00  0.00    +0.048 C 
ATOM     15  C   UNL     1      -0.968   3.288  25.675  0.00  0.00    +0.144 C 
ATOM     16  O   UNL     1      -0.426   3.173  25.063  0.00  0.00    -0.354 OA
ATOM     17  C   UNL     1      -0.682   2.883  24.335  0.00  0.00    +0.144 C 
ATOM     18  C   UNL     1      -1.480   2.706  24.219  0.00  0.00    +0.048 C 
ENDBRANCH  11  13
BRANCH   6   5
ATOM      5  O   UNL     1      -3.819   0.708  24.962  0.00  0.00    -0.350 OA
BRANCH   5   4
ATOM      4  C   UNL     1      -4.054   0.169  24.385  0.00  0.00    +0.174 C 
BRANCH   4   3
ATOM      3  C   UNL     1      -4.000  -0.641  24.530  0.00  0.00    +0.174 C 
BRANCH   3   2
ATOM      1  C   UNL     1      -4.078  -1.973  24.018  0.00  0.00    +0.174 C 
ATOM      2  O   UNL     1      -4.301  -1.180  23.982  0.00  0.00    -0.348 OA
ENDBRANCH   3   2
ENDBRANCH   4   3
ENDBRANCH   5   4
ENDBRANCH   6   5
TORSDOF 5
ENDMDL
MODEL 6
REMARK VINA RESULT:      -6.6      2.133      3.331
REMARK  Name = 
REMARK  5 active torsions:
REMARK  status: ('A' for Active; 'I' for Inactive)
REMARK    1  A    between atoms: O_2  and  C_3
REMARK    2  A    between atoms: C_3  and  C_4
REMARK    3  A    between atoms: C_4  and  O_5
REMARK    4  A    between atoms: O_5  and  C_6
REMARK    5  A    between atoms: N_11  and  C_13
REMARK                            x       y       z     vdW  Elec       q    Type
REMARK                         _______ _______ _______ _____ _____    ______ ____
ROOT
ATOM      6  C   UNL     1      -2.308   2.103  24.913  0.00  0.00    +0.161 C 
ATOM      7  C   UNL     1      -2.029   2.803  25.249  0.00  0.00    +0.173 C 
ATOM      8  O   UNL     1      -1.318   2.934  25.647  0.00  0.00    -0.350 OA
ATOM      9  C   UNL     1      -0.712   2.398  25.808  0.00  0.00    +0.160 C 
ATOM     10  C   UNL     1      -0.667   1.599  25.611  0.00  0.00    +0.105 C 
ATOM     11  N   UNL     1      -1.216   1.137  25.203  0.00  0.00    -0.270 NA
ATOM     12  C   UNL     1      -1.946   1.362  24.893  0.00  0.00    +0.105 C 
ENDROOT
BRANCH  11  13
ATOM     13  C   UNL     1      -1.007   0.347  25.091  0.00  0.00    +0.063 C 
ATOM     14  C   UNL     1      -0.564   0.128  24.431  0.00  0.00    +0.048 C 
ATOM     15  C   UNL     1      -0.355  -0.663  24.319  0.00  0.00    +0.144 C 
ATOM     16  O   UNL     1      -0.590  -1.234  24.868  0.00  0.00    -0.354 OA
ATOM     17  C   UNL     1      -1.033  -1.014  25.527  0.00  0.00    +0.144 C 
ATOM     18  C   UNL     1      -1.241  -0.223  25.639  0.00  0.00    +0.048 C 
ENDBRANCH  11  13
BRANCH   6   5
ATOM      5  O   UNL     1      -3.048   2.151  24.550  0.00  0.00    -0.350 OA
BRANCH   5   4
ATOM      4  C   UNL     1      -3.719   2.315  24.999  0.00  0.00    +0.174 C 
BRANCH   4   3
ATOM      3  C   UNL     1      -4.469   2.220  24.670  0.00  0.00    +0.174 C 
BRANCH   3   2
ATOM      1  C   UNL     1      -5.845   2.028  25.005  0.00  0.00    +0.174 C 
ATOM      2  O   UNL     1      -5.139   2.444  25.097  0.00  0.00    -0.348 OA
ENDBRANCH   3   2
ENDBRANCH   4   3
ENDBRANCH   5   4
ENDBRANCH   6   5
TORSDOF 5
ENDMDL
