MODEL 1
REMARK VINA RESULT:      -9.6      0.000      0.000
REMARK  Name = 
REMARK  7 active torsions:
REMARK  status: ('A' for Active; 'I' for Inactive)
REMARK    1  A    between atoms: O_2  and  C_3
REMARK    2  A    between atoms: C_3  and  C_4
REMARK    3  A    between atoms: C_6  and  C_7
REMARK    4  A    between atoms: C_7  and  C_8
REMARK    5  A    between atoms: C_13  and  C_14
REMARK    6  A    between atoms: C_14  and  N_15
REMARK    7  A    between atoms: N_15  and  C_16
REMARK                            x       y       z     vdW  Elec       q    Type
REMARK                         _______ _______ _______ _____ _____    ______ ____
ROOT
ATOM      8  C   UNL     1      -4.244   2.899  24.832  0.00  0.00    +0.121 C 
ATOM      9  C   UNL     1      -4.923   3.242  25.152  0.00  0.00    +0.033 C 
ATOM     10  C   UNL     1      -5.537   2.763  25.425  0.00  0.00    +0.038 C 
ATOM     11  C   UNL     1      -5.472   1.942  25.379  0.00  0.00    +0.180 C 
ATOM     12  O   UNL     1      -6.085   1.463  25.652  0.00  0.00    -0.220 OA
ATOM     13  C   UNL     1      -4.792   1.600  25.059  0.00  0.00    +0.163 C 
ATOM     22  O   UNL     1      -4.179   2.079  24.786  0.00  0.00    -0.354 OA
ENDROOT
BRANCH   8   7
ATOM      7  C   UNL     1      -3.630   3.379  24.559  0.00  0.00    +0.079 C 
BRANCH   7   6
ATOM      4  C   UNL     1      -1.734   3.509  25.530  0.00  0.00    +0.184 A 
ATOM      5  C   UNL     1      -2.214   3.225  24.923  0.00  0.00    +0.056 A 
ATOM      6  C   UNL     1      -2.975   3.524  25.039  0.00  0.00    +0.103 A 
ATOM     23  N   UNL     1      -2.964   3.992  25.717  0.00  0.00    -0.082 NA
ATOM     24  O   UNL     1      -2.197   3.983  26.022  0.00  0.00    -0.356 OA
BRANCH   4   3
ATOM      3  C   UNL     1      -0.931   3.347  25.630  0.00  0.00    +0.209 C 
BRANCH   3   2
ATOM      1  C   UNL     1       0.100   2.524  26.179  0.00  0.00    +0.175 C 
ATOM      2  O   UNL     1      -0.690   2.757  26.155  0.00  0.00    -0.343 OA
ENDBRANCH   3   2
ENDBRANCH   4   3
ENDBRANCH   7   6
ENDBRANCH   8   7
BRANCH  13  14
ATOM     14  C   UNL     1      -4.727   0.779  25.012  0.00  0.00    +0.121 C 
BRANCH  14  15
ATOM     15  N   UNL     1      -4.036   0.435  24.720  0.00  0.00    -0.217 NA
BRANCH  15  16
ATOM     16  C   UNL     1      -3.954  -0.386  24.717  0.00  0.00    +0.076 C 
ATOM     17  C   UNL     1      -3.622  -0.769  25.368  0.00  0.00    +0.036 C 
ATOM     18  C   UNL     1      -3.540  -1.590  25.365  0.00  0.00    +0.090 C 
ATOM     19  N   UNL     1      -3.790  -2.028  24.711  0.00  0.00    -0.218 NA
ATOM     20  C   UNL     1      -4.121  -1.644  24.061  0.00  0.00    +0.090 C 
ATOM     21  C   UNL     1      -4.203  -0.823  24.064  0.00  0.00    +0.036 C 
ENDBRANCH  15  16
ENDBRANCH  14  15
ENDBRANCH  13  14
TORSDOF 7
ENDMDL
MODEL 2
REMARK VINA RESULT:      -8.8      1.482      4.063
REMARK  Name = 
REMARK  7 active torsions:
REMARK  status: ('A' for Active; 'I' for Inactive)
REMARK    1  A    between atoms: O_2  and  C_3
REMARK    2  A    between atoms: C_3  and  C_4
REMARK    3  A    between atoms: C_6  and  C_7
REMARK    4  A    between atoms: C_7  and  C_8
REMARK    5  A    between atoms: C_13  and  C_14
REMARK    6  A    between atoms: C_14  and  N_15
REMARK    7  A    between atoms: N_15  and  C_16
REMARK                            x       y       z     vdW  Elec       q    Type
REMARK                         _______ _______ _______ _____ _____    ______ ____
ROOT
ATOM      8  C   UNL     1      -4.514   1.356  24.705  0.00  0.00    +0.121 C 
ATOM      9  C   UNL     1      -5.258   1.505  25.028  0.00  0.00    +0.033 C 
ATOM     10  C   UNL     1      -5.421   2.240  25.366  0.00  0.00    +0.038 C 
ATOM     11  C   UNL     1      -4.840   2.826  25.380  0.00  0.00    +0.180 C 
ATOM     12  O   UNL     1      -5.003   3.560  25.718  0.00  0.00    -0.220 OA
ATOM     13  C   UNL     1      -4.096   2.676  25.057  0.00  0.00    +0.163 C 
ATOM     22  O   UNL     1      -3.933   1.941  24.719  0.00  0.00    -0.354 OA
ENDROOT
BRANCH   8   7
ATOM      7  C   UNL     1      -4.351   0.621  24.367  0.00  0.00    +0.079 C 
BRANCH   7   6
ATOM      4  C   UNL     1      -2.916  -0.768  25.122  0.00  0.00    +0.184 A 
ATOM      5  C   UNL     1      -3.166  -0.231  24.549  0.00  0.00    +0.056 A 
ATOM      6  C   UNL     1      -3.900   0.067  24.780  0.00  0.00    +0.103 A 
ATOM     23  N   UNL     1      -4.104  -0.286  25.497  0.00  0.00    -0.082 NA
ATOM     24  O   UNL     1      -3.496  -0.802  25.709  0.00  0.00    -0.356 OA
BRANCH   4   3
ATOM      3  C   UNL     1      -2.211  -1.196  25.112  0.00  0.00    +0.209 C 
BRANCH   3   2
ATOM      1  C   UNL     1      -0.807  -1.269  25.368  0.00  0.00    +0.175 C 
ATOM      2  O   UNL     1      -1.524  -0.866  25.430  0.00  0.00    -0.343 OA
ENDBRANCH   3   2
ENDBRANCH   4   3
ENDBRANCH   7   6
ENDBRANCH   8   7
BRANCH  13  14
ATOM     14  C   UNL     1      -3.515   3.261  25.071  0.00  0.00    +0.121 C 
BRANCH  14  15
ATOM     15  N   UNL     1      -2.781   3.107  25.414  0.00  0.00    -0.217 NA
BRANCH  15  16
ATOM     16  C   UNL     1      -2.142   3.607  25.264  0.00  0.00    +0.076 C 
ATOM     17  C   UNL     1      -2.206   4.414  25.426  0.00  0.00    +0.036 C 
ATOM     18  C   UNL     1      -1.567   4.916  25.276  0.00  0.00    +0.090 C 
ATOM     19  N   UNL     1      -0.867   4.610  24.964  0.00  0.00    -0.218 NA
ATOM     20  C   UNL     1      -0.804   3.804  24.803  0.00  0.00    +0.090 C 
ATOM     21  C   UNL     1      -1.443   3.303  24.953  0.00  0.00    +0.036 C 
ENDBRANCH  15  16
ENDBRANCH  14  15
ENDBRANCH  13  14
TORSDOF 7
ENDMDL
MODEL 3
REMARK VINA RESULT:      -8.7      2.047      3.866
REMARK  Name = 
REMARK  7 active torsions:
REMARK  status: ('A' for Active; 'I' for Inactive)
REMARK    1  A    between atoms: O_2  and  C_3
REMARK    2  A    between atoms: C_3  and  C_4
REMARK    3  A    between atoms: C_6  and  C_7
REMARK    4  A    between atoms: C_7  and  C_8
REMARK    5  A    between atoms: C_13  and  C_14
REMARK    6  A    between atoms: C_14  and  N_15
REMARK    7  A    between atoms: N_15  and  C_16
REMARK                            x       y       z     vdW  Elec       q    Type
REMARK                         _______ _______ _______ _____ _____    ______ ____
ROOT
ATOM      8  C   UNL     1      -2.463  -1.359  24.980  0.00  0.00    +0.121 C 
ATOM      9  C   UNL     1      -2.671  -2.089  24.657  0.00  0.00    +0.033 C 
ATOM     10  C   UNL     1      -3.414  -2.190  24.312  0.00  0.00    +0.038 C 
ATOM     11  C   UNL     1      -3.948  -1.562  24.290  0.00  0.00    +0.180 C 
ATOM     12  O   UNL     1      -4.690  -1.663  23.945  0.00  0.00    -0.220 OA
ATOM     13  C   UNL     1      -3.739  -0.832  24.614  0.00  0.00    +0.163 C 
ATOM     22  O   UNL     1      -2.996  -0.731  24.959  0.00  0.00    -0.354 OA
ENDROOT
BRANCH   8   7
ATOM      7  C   UNL     1      -1.720  -1.258  25.326  0.00  0.00    +0.079 C 
BRANCH   7   6
ATOM      4  C   UNL     1      -0.345   0.215  24.621  0.00  0.00    +0.184 A 
ATOM      5  C   UNL     1      -0.939  -0.027  25.139  0.00  0.00    +0.056 A 
ATOM      6  C   UNL     1      -1.147  -0.802  24.947  0.00  0.00    +0.103 A 
ATOM     23  N   UNL     1      -0.681  -1.040  24.309  0.00  0.00    -0.082 NA
ATOM     24  O   UNL     1      -0.185  -0.411  24.107  0.00  0.00    -0.356 OA
BRANCH   4   3
ATOM      3  C   UNL     1       0.025   0.952  24.616  0.00  0.00    +0.209 C 
BRANCH   3   2
ATOM      1  C   UNL     1      -0.023   2.356  24.357  0.00  0.00    +0.175 C 
ATOM      2  O   UNL     1      -0.371   1.611  24.314  0.00  0.00    -0.343 OA
ENDBRANCH   3   2
ENDBRANCH   4   3
ENDBRANCH   7   6
ENDBRANCH   8   7
BRANCH  13  14
ATOM     14  C   UNL     1      -4.272  -0.204  24.592  0.00  0.00    +0.121 C 
BRANCH  14  15
ATOM     15  N   UNL     1      -4.206   0.414  25.135  0.00  0.00    -0.217 NA
BRANCH  15  16
ATOM     16  C   UNL     1      -4.627   1.114  25.017  0.00  0.00    +0.076 C 
ATOM     17  C   UNL     1      -4.292   1.726  24.575  0.00  0.00    +0.036 C 
ATOM     18  C   UNL     1      -4.712   2.426  24.456  0.00  0.00    +0.090 C 
ATOM     19  N   UNL     1      -5.467   2.514  24.779  0.00  0.00    -0.218 NA
ATOM     20  C   UNL     1      -5.801   1.903  25.220  0.00  0.00    +0.090 C 
ATOM     21  C   UNL     1      -5.380   1.202  25.339  0.00  0.00    +0.036 C 
ENDBRANCH  15  16
ENDBRANCH  14  15
ENDBRANCH  13  14
TORSDOF 7
ENDMDL
MODEL 4
REMARK VINA RESULT:      -8.5      1.765      3.605
REMARK  Name = 
REMARK  7 active torsions:
REMARK  status: ('A' for Active; 'I' for Inactive)
REMARK    1  A    between atoms: O_2  and  C_3
REMARK    2  A    between atoms: C_3  and  C_4
REMARK    3  A    between atoms: C_6  and  C_7
REMARK    4  A    between atoms: C_7  and  C_8
REMARK    5  A    between atoms: C_13  and  C_14
REMARK    6  A    between atoms: C_14  and  N_15
REMARK    7  A    between atoms: N_15  and  C_16
REMARK                            x       y       z     vdW  Elec       q    Type
REMARK                         _______ _______ _______ _____ _____    ______ ____
ROOT
ATOM      8  C   UNL     1      -1.935   3.322  25.009  0.00  0.00    +0.121 C 
ATOM      9  C   UNL     1      -1.427   3.883  25.338  0.00  0.00    +0.033 C 
ATOM     10  C   UNL     1      -0.726   3.642  25.701  0.00  0.00    +0.038 C 
ATOM     11  C   UNL     1      -0.534   2.841  25.734  0.00  0.00    +0.180 C 
ATOM     12  O   UNL     1       0.166   2.600  26.097  0.00  0.00    -0.220 OA
ATOM     13  C   UNL     1      -1.042   2.280  25.405  0.00  0.00    +0.163 C 
ATOM     22  O   UNL     1      -1.742   2.521  25.042  0.00  0.00    -0.354 OA
ENDROOT
BRANCH   8   7
ATOM      7  C   UNL     1      -2.636   3.564  24.646  0.00  0.00    +0.079 C 
BRANCH   7   6
ATOM      4  C   UNL     1      -4.599   3.211  25.406  0.00  0.00    +0.184 A 
ATOM      5  C   UNL     1      -4.015   3.090  24.836  0.00  0.00    +0.056 A 
ATOM      6  C   UNL     1      -3.349   3.525  25.058  0.00  0.00    +0.103 A 
ATOM     23  N   UNL     1      -3.523   3.914  25.765  0.00  0.00    -0.082 NA
ATOM     24  O   UNL     1      -4.296   3.720  25.980  0.00  0.00    -0.356 OA
BRANCH   4   3
ATOM      3  C   UNL     1      -5.355   2.880  25.402  0.00  0.00    +0.209 C 
BRANCH   3   2
ATOM      1  C   UNL     1      -6.213   1.758  25.615  0.00  0.00    +0.175 C 
ATOM      2  O   UNL     1      -5.469   2.107  25.669  0.00  0.00    -0.343 OA
ENDBRANCH   3   2
ENDBRANCH   4   3
ENDBRANCH   7   6
ENDBRANCH   8   7
BRANCH  13  14
ATOM     14  C   UNL     1      -0.849   1.479  25.438  0.00  0.00    +0.121 C 
BRANCH  14  15
ATOM     15  N   UNL     1      -1.278   0.932  24.993  0.00  0.00    -0.217 NA
BRANCH  15  16
ATOM     16  C   UNL     1      -1.083   0.131  25.027  0.00  0.00    +0.076 C 
ATOM     17  C   UNL     1      -1.373  -0.337  25.642  0.00  0.00    +0.036 C 
ATOM     18  C   UNL     1      -1.179  -1.139  25.676  0.00  0.00    +0.090 C 
ATOM     19  N   UNL     1      -0.695  -1.472  25.096  0.00  0.00    -0.218 NA
ATOM     20  C   UNL     1      -0.406  -1.003  24.482  0.00  0.00    +0.090 C 
ATOM     21  C   UNL     1      -0.601  -0.202  24.447  0.00  0.00    +0.036 C 
ENDBRANCH  15  16
ENDBRANCH  14  15
ENDBRANCH  13  14
TORSDOF 7
ENDMDL
MODEL 5
REMARK VINA RESULT:      -8.4      2.158      3.643
REMARK  Name = 
REMARK  7 active torsions:
REMARK  status: ('A' for Active; 'I' for Inactive)
REMARK    1  A    between atoms: O_2  and  C_3
REMARK    2  A    between atoms: C_3  and  C_4
REMARK    3  A    between atoms: C_6  and  C_7
REMARK    4  A    between atoms: C_7  and  C_8
REMARK    5  A    between atoms: C_13  and  C_14
REMARK    6  A    between atoms: C_14  and  N_15
REMARK    7  A    between atoms: N_15  and  C_16
REMARK                            x       y       z     vdW  Elec       q    Type
REMARK                         _______ _______ _______ _____ _____    ______ ____
ROOT
ATOM      8  C   UNL     1      -1.302   3.197  24.479  0.00  0.00    +0.121 C 
ATOM      9  C   UNL     1      -0.931   3.848  24.823  0.00  0.00    +0.033 C 
ATOM     10  C   UNL     1      -1.352   4.337  25.338  0.00  0.00    +0.038 C 
ATOM     11  C   UNL     1      -2.143   4.175  25.508  0.00  0.00    +0.180 C 
ATOM     12  O   UNL     1      -2.563   4.664  26.023  0.00  0.00    -0.220 OA
ATOM     13  C   UNL     1      -2.513   3.523  25.164  0.00  0.00    +0.163 C 
ATOM     22  O   UNL     1      -2.093   3.034  24.649  0.00  0.00    -0.354 OA
ENDROOT
BRANCH   8   7
ATOM      7  C   UNL     1      -0.881   2.707  23.964  0.00  0.00    +0.079 C 
BRANCH   7   6
ATOM      4  C   UNL     1      -0.393   0.680  24.418  0.00  0.00    +0.184 A 
ATOM      5  C   UNL     1      -0.853   1.239  24.023  0.00  0.00    +0.056 A 
ATOM      6  C   UNL     1      -0.579   1.989  24.233  0.00  0.00    +0.103 A 
ATOM     23  N   UNL     1       0.051   1.893  24.757  0.00  0.00    -0.082 NA
ATOM     24  O   UNL     1       0.166   1.084  24.872  0.00  0.00    -0.356 OA
BRANCH   4   3
ATOM      3  C   UNL     1      -0.477  -0.140  24.368  0.00  0.00    +0.209 C 
BRANCH   3   2
ATOM      1  C   UNL     1      -0.743  -1.395  24.995  0.00  0.00    +0.175 C 
ATOM      2  O   UNL     1      -0.626  -0.582  25.050  0.00  0.00    -0.343 OA
ENDBRANCH   3   2
ENDBRANCH   4   3
ENDBRANCH   7   6
ENDBRANCH   8   7
BRANCH  13  14
ATOM     14  C   UNL     1      -3.303   3.360  25.334  0.00  0.00    +0.121 C 
BRANCH  14  15
ATOM     15  N   UNL     1      -3.789   3.021  24.759  0.00  0.00    -0.217 NA
BRANCH  15  16
ATOM     16  C   UNL     1      -4.512   2.688  24.974  0.00  0.00    +0.076 C 
ATOM     17  C   UNL     1      -4.659   1.890  24.822  0.00  0.00    +0.036 C 
ATOM     18  C   UNL     1      -5.382   1.555  25.037  0.00  0.00    +0.090 C 
ATOM     19  N   UNL     1      -5.958   2.019  25.405  0.00  0.00    -0.218 NA
ATOM     20  C   UNL     1      -5.810   2.816  25.558  0.00  0.00    +0.090 C 
ATOM     21  C   UNL     1      -5.087   3.150  25.342  0.00  0.00    +0.036 C 
ENDBRANCH  15  16
ENDBRANCH  14  15
ENDBRANCH  13  14
TORSDOF 7
ENDMDL
MODEL 6
REMARK VINA RESULT:      -8.3      1.500      3.100
REMARK  Name = 
REMARK  7 active torsions:
REMARK  status: ('A' for Active; 'I' for Inactive)
REMARK    1  A    between atoms: O_2  and  C_3
REMARK    2  A    between atoms: C_3  and  C_4
REMARK    3  A    between atoms: C_6  and  C_7
REMARK    4  A    between atoms: C_7  and  C_8
REMARK    5  A    between atoms: C_13  and  C_14
REMARK    6  A    between atoms: C_14  and  N_15
REMARK    7  A    between atoms: N_15  and  C_16
REMARK                            x       y       z     vdW  Elec       q    Type
REMARK                         _______ _______ _______ _____ _____    ______ ____
ROOT
ATOM      8  C   UNL     1      -1.683   1.745  24.414  0.00  0.00    +0.121 C 
ATOM      9  C   UNL     1      -0.934   1.810  24.754  0.00  0.00    +0.033 C 
ATOM     10  C   UNL     1      -0.555   1.138  25.048  0.00  0.00    +0.038 C 
ATOM     11  C   UNL     1      -0.925   0.402  25.001  0.00  0.00    +0.180 C 
ATOM     12  O   UNL     1      -0.546  -0.269  25.295  0.00  0.00    -0.220 OA
ATOM     13  C   UNL     1      -1.674   0.338  24.661  0.00  0.00    +0.163 C 
ATOM     22  O   UNL     1      -2.052   1.009  24.368  0.00  0.00    -0.354 OA
ENDROOT
BRANCH   8   7
ATOM      7  C   UNL     1      -2.062   2.417  24.121  0.00  0.00    +0.079 C 
BRANCH   7   6
ATOM      4  C   UNL     1      -3.727   3.332  25.094  0.00  0.00    +0.184 A 
ATOM      5  C   UNL     1      -3.413   2.853  24.500  0.00  0.00    +0.056 A 
ATOM      6  C   UNL     1      -2.594   2.831  24.595  0.00  0.00    +0.103 A 
ATOM     23  N   UNL     1      -2.401   3.296  25.248  0.00  0.00    -0.082 NA
ATOM     24  O   UNL     1      -3.101   3.606  25.557  0.00  0.00    -0.356 OA
BRANCH   4   3
ATOM      3  C   UNL     1      -4.525   3.506  25.205  0.00  0.00    +0.209 C 
BRANCH   3   2
ATOM      1  C   UNL     1      -5.799   3.148  25.746  0.00  0.00    +0.175 C 
ATOM      2  O   UNL     1      -4.982   3.042  25.713  0.00  0.00    -0.343 OA
ENDBRANCH   3   2
ENDBRANCH   4   3
ENDBRANCH   7   6
ENDBRANCH   8   7
BRANCH  13  14
ATOM     14  C   UNL     1      -2.043  -0.398  24.615  0.00  0.00    +0.121 C 
BRANCH  14  15
ATOM     15  N   UNL     1      -2.847  -0.468  24.788  0.00  0.00    -0.217 NA
BRANCH  15  16
ATOM     16  C   UNL     1      -3.245  -1.171  24.619  0.00  0.00    +0.076 C 
ATOM     17  C   UNL     1      -3.817  -1.187  24.024  0.00  0.00    +0.036 C 
ATOM     18  C   UNL     1      -4.216  -1.890  23.854  0.00  0.00    +0.090 C 
ATOM     19  N   UNL     1      -4.042  -2.575  24.280  0.00  0.00    -0.218 NA
ATOM     20  C   UNL     1      -3.471  -2.559  24.874  0.00  0.00    +0.090 C 
ATOM     21  C   UNL     1      -3.073  -1.856  25.044  0.00  0.00    +0.036 C 
ENDBRANCH  15  16
ENDBRANCH  14  15
ENDBRANCH  13  14
TORSDOF 7
ENDMDL
MODEL 7
REMARK VINA RESULT:      -7.1     16.383     19.229
REMARK  Name = 
REMARK  7 active torsions:
REMARK  status: ('A' for Active; 'I' for Inactive)
REMARK    1  A    between atoms: O_2  and  C_3
REMARK    2  A    between atoms: C_3  and  C_4
REMARK    3  A    between atoms: C_6  and  C_7
REMARK    4  A    between atoms: C_7  and  C_8
REMARK    5  A    between atoms: C_13  and  C_14
REMARK    6  A    between atoms: C_14  and  N_15
REMARK    7  A    between atoms: N_15  and  C_16
REMARK                            x       y       z     vdW  Elec       q    Type
REMARK                         _______ _______ _______ _____ _____    ______ ____
ROOT
ATOM      8  C   UNL     1      12.833   8.626  18.458  0.00  0.00    +0.121 C 
ATOM      9  C   UNL     1      12.662   8.512  17.659  0.00  0.00    +0.033 C 
ATOM     10  C   UNL     1      13.158   8.044  17.193  0.00  0.00    +0.038 C 
ATOM     11  C   UNL     1      13.824   7.690  17.527  0.00  0.00    +0.180 C 
ATOM     12  O   UNL     1      14.319   7.222  17.063  0.00  0.00    -0.220 OA
ATOM     13  C   UNL     1      13.994   7.804  18.327  0.00  0.00    +0.163 C 
ATOM     22  O   UNL     1      13.499   8.272  18.791  0.00  0.00    -0.354 OA
ENDROOT
BRANCH   8   7
ATOM      7  C   UNL     1      12.337   9.094  18.923  0.00  0.00    +0.079 C 
BRANCH   7   6
ATOM      4  C   UNL     1      11.009   8.326  20.407  0.00  0.00    +0.184 A 
ATOM      5  C   UNL     1      11.694   8.733  20.195  0.00  0.00    +0.056 A 
ATOM      6  C   UNL     1      11.740   8.744  19.371  0.00  0.00    +0.103 A 
ATOM     23  N   UNL     1      11.083   8.343  19.074  0.00  0.00    -0.082 NA
ATOM     24  O   UNL     1      10.631   8.084  19.715  0.00  0.00    -0.356 OA
BRANCH   4   3
ATOM      3  C   UNL     1      10.748   8.185  21.177  0.00  0.00    +0.209 C 
BRANCH   3   2
ATOM      1  C   UNL     1      10.306   7.264  22.176  0.00  0.00    +0.175 C 
ATOM      2  O   UNL     1      10.464   7.439  21.386  0.00  0.00    -0.343 OA
ENDBRANCH   3   2
ENDBRANCH   4   3
ENDBRANCH   7   6
ENDBRANCH   8   7
BRANCH  13  14
ATOM     14  C   UNL     1      14.660   7.450  18.660  0.00  0.00    +0.121 C 
BRANCH  14  15
ATOM     15  N   UNL     1      14.851   7.591  19.451  0.00  0.00    -0.217 NA
BRANCH  15  16
ATOM     16  C   UNL     1      15.512   7.228  19.786  0.00  0.00    +0.076 C 
ATOM     17  C   UNL     1      16.240   7.617  19.786  0.00  0.00    +0.036 C 
ATOM     18  C   UNL     1      16.901   7.254  20.122  0.00  0.00    +0.090 C 
ATOM     19  N   UNL     1      16.834   6.503  20.457  0.00  0.00    -0.218 NA
ATOM     20  C   UNL     1      16.106   6.115  20.457  0.00  0.00    +0.090 C 
ATOM     21  C   UNL     1      15.445   6.478  20.121  0.00  0.00    +0.036 C 
ENDBRANCH  15  16
ENDBRANCH  14  15
ENDBRANCH  13  14
TORSDOF 7
ENDMDL
MODEL 8
REMARK VINA RESULT:      -7.0     16.031     18.745
REMARK  Name = 
REMARK  7 active torsions:
REMARK  status: ('A' for Active; 'I' for Inactive)
REMARK    1  A    between atoms: O_2  and  C_3
REMARK    2  A    between atoms: C_3  and  C_4
REMARK    3  A    between atoms: C_6  and  C_7
REMARK    4  A    between atoms: C_7  and  C_8
REMARK    5  A    between atoms: C_13  and  C_14
REMARK    6  A    between atoms: C_14  and  N_15
REMARK    7  A    between atoms: N_15  and  C_16
REMARK                            x       y       z     vdW  Elec       q    Type
REMARK                         _______ _______ _______ _____ _____    ______ ____
ROOT
ATOM      8  C   UNL     1      13.105   8.692  18.319  0.00  0.00    +0.121 C 
ATOM      9  C   UNL     1      12.744   8.694  17.577  0.00  0.00    +0.033 C 
ATOM     10  C   UNL     1      11.924   8.620  17.517  0.00  0.00    +0.038 C 
ATOM     11  C   UNL     1      11.466   8.543  18.198  0.00  0.00    +0.180 C 
ATOM     12  O   UNL     1      10.647   8.468  18.138  0.00  0.00    -0.220 OA
ATOM     13  C   UNL     1      11.827   8.541  18.940  0.00  0.00    +0.163 C 
ATOM     22  O   UNL     1      12.646   8.615  19.001  0.00  0.00    -0.354 OA
ENDROOT
BRANCH   8   7
ATOM      7  C   UNL     1      13.925   8.767  18.380  0.00  0.00    +0.079 C 
BRANCH   7   6
ATOM      4  C   UNL     1      15.250   7.175  18.895  0.00  0.00    +0.184 A 
ATOM      5  C   UNL     1      14.876   7.888  19.074  0.00  0.00    +0.056 A 
ATOM      6  C   UNL     1      14.398   8.094  18.434  0.00  0.00    +0.103 A 
ATOM     23  N   UNL     1      14.476   7.508  17.858  0.00  0.00    -0.082 NA
ATOM     24  O   UNL     1      15.003   6.940  18.143  0.00  0.00    -0.356 OA
BRANCH   4   3
ATOM      3  C   UNL     1      15.778   6.768  19.380  0.00  0.00    +0.209 C 
BRANCH   3   2
ATOM      1  C   UNL     1      17.063   6.179  19.587  0.00  0.00    +0.175 C 
ATOM      2  O   UNL     1      16.516   6.539  19.088  0.00  0.00    -0.343 OA
ENDBRANCH   3   2
ENDBRANCH   4   3
ENDBRANCH   7   6
ENDBRANCH   8   7
BRANCH  13  14
ATOM     14  C   UNL     1      11.369   8.464  19.621  0.00  0.00    +0.121 C 
BRANCH  14  15
ATOM     15  N   UNL     1      11.726   8.275  20.341  0.00  0.00    -0.217 NA
BRANCH  15  16
ATOM     16  C   UNL     1      11.265   8.189  21.020  0.00  0.00    +0.076 C 
ATOM     17  C   UNL     1      11.013   7.438  21.253  0.00  0.00    +0.036 C 
ATOM     18  C   UNL     1      10.552   7.351  21.932  0.00  0.00    +0.090 C 
ATOM     19  N   UNL     1      10.342   8.014  22.377  0.00  0.00    -0.218 NA
ATOM     20  C   UNL     1      10.594   8.764  22.143  0.00  0.00    +0.090 C 
ATOM     21  C   UNL     1      11.056   8.851  21.464  0.00  0.00    +0.036 C 
ENDBRANCH  15  16
ENDBRANCH  14  15
ENDBRANCH  13  14
TORSDOF 7
ENDMDL
MODEL 9
REMARK VINA RESULT:      -6.8     16.479     18.546
REMARK  Name = 
REMARK  7 active torsions:
REMARK  status: ('A' for Active; 'I' for Inactive)
REMARK    1  A    between atoms: O_2  and  C_3
REMARK    2  A    between atoms: C_3  and  C_4
REMARK    3  A    between atoms: C_6  and  C_7
REMARK    4  A    between atoms: C_7  and  C_8
REMARK    5  A    between atoms: C_13  and  C_14
REMARK    6  A    between atoms: C_14  and  N_15
REMARK    7  A    between atoms: N_15  and  C_16
REMARK                            x       y       z     vdW  Elec       q    Type
REMARK                         _______ _______ _______ _____ _____    ______ ____
ROOT
ATOM      8  C   UNL     1      11.510   8.226  20.251  0.00  0.00    +0.121 C 
ATOM      9  C   UNL     1      10.874   7.875  20.642  0.00  0.00    +0.033 C 
ATOM     10  C   UNL     1      11.005   7.242  21.156  0.00  0.00    +0.038 C 
ATOM     11  C   UNL     1      11.771   6.961  21.277  0.00  0.00    +0.180 C 
ATOM     12  O   UNL     1      11.902   6.329  21.790  0.00  0.00    -0.220 OA
ATOM     13  C   UNL     1      12.407   7.314  20.886  0.00  0.00    +0.163 C 
ATOM     22  O   UNL     1      12.276   7.946  20.373  0.00  0.00    -0.354 OA
ENDROOT
BRANCH   8   7
ATOM      7  C   UNL     1      11.379   8.859  19.738  0.00  0.00    +0.079 C 
BRANCH   7   6
ATOM      4  C   UNL     1      11.799   8.822  17.645  0.00  0.00    +0.184 A 
ATOM      5  C   UNL     1      11.963   9.088  18.408  0.00  0.00    +0.056 A 
ATOM      6  C   UNL     1      11.416   8.744  18.922  0.00  0.00    +0.103 A 
ATOM     23  N   UNL     1      10.914   8.265  18.476  0.00  0.00    -0.082 NA
ATOM     24  O   UNL     1      11.150   8.313  17.687  0.00  0.00    -0.356 OA
BRANCH   4   3
ATOM      3  C   UNL     1      12.210   9.028  16.961  0.00  0.00    +0.209 C 
BRANCH   3   2
ATOM      1  C   UNL     1      13.254   8.736  16.030  0.00  0.00    +0.175 C 
ATOM      2  O   UNL     1      12.723   8.485  16.608  0.00  0.00    -0.343 OA
ENDBRANCH   3   2
ENDBRANCH   4   3
ENDBRANCH   7   6
ENDBRANCH   8   7
BRANCH  13  14
ATOM     14  C   UNL     1      13.173   7.033  21.008  0.00  0.00    +0.121 C 
BRANCH  14  15
ATOM     15  N   UNL     1      13.815   7.426  20.670  0.00  0.00    -0.217 NA
BRANCH  15  16
ATOM     16  C   UNL     1      14.576   7.118  20.753  0.00  0.00    +0.076 C 
ATOM     17  C   UNL     1      15.013   7.280  21.435  0.00  0.00    +0.036 C 
ATOM     18  C   UNL     1      15.774   6.972  21.519  0.00  0.00    +0.090 C 
ATOM     19  N   UNL     1      16.098   6.503  20.922  0.00  0.00    -0.218 NA
ATOM     20  C   UNL     1      15.661   6.342  20.242  0.00  0.00    +0.090 C 
ATOM     21  C   UNL     1      14.900   6.650  20.158  0.00  0.00    +0.036 C 
ENDBRANCH  15  16
ENDBRANCH  14  15
ENDBRANCH  13  14
TORSDOF 7
ENDMDL
MODEL 10
REMARK VINA RESULT:      -6.5     16.322     18.872
REMARK  Name = 
REMARK  7 active torsions:
REMARK  status: ('A' for Active; 'I' for Inactive)
REMARK    1  A    between atoms: O_2  and  C_3
REMARK    2  A    between atoms: C_3  and  C_4
REMARK    3  A    between atoms: C_6  and  C_7
REMARK    4  A    between atoms: C_7  and  C_8
REMARK    5  A    between atoms: C_13  and  C_14
REMARK    6  A    between atoms: C_14  and  N_15
REMARK    7  A    between atoms: N_15  and  C_16
REMARK                            x       y       z     vdW  Elec       q    Type
REMARK                         _______ _______ _______ _____ _____    ______ ____
ROOT
ATOM      8  C   UNL     1      14.340   7.983  18.997  0.00  0.00    +0.121 C 
ATOM      9  C   UNL     1      14.946   7.426  19.049  0.00  0.00    +0.033 C 
ATOM     10  C   UNL     1      14.981   6.913  19.695  0.00  0.00    +0.038 C 
ATOM     11  C   UNL     1      14.410   6.958  20.289  0.00  0.00    +0.180 C 
ATOM     12  O   UNL     1      14.445   6.446  20.934  0.00  0.00    -0.220 OA
ATOM     13  C   UNL     1      13.804   7.515  20.236  0.00  0.00    +0.163 C 
ATOM     22  O   UNL     1      13.769   8.027  19.591  0.00  0.00    -0.354 OA
ENDROOT
BRANCH   8   7
ATOM      7  C   UNL     1      14.305   8.495  18.351  0.00  0.00    +0.079 C 
BRANCH   7   6
ATOM      4  C   UNL     1      12.720   8.506  16.920  0.00  0.00    +0.184 A 
ATOM      5  C   UNL     1      13.119   8.847  17.557  0.00  0.00    +0.056 A 
ATOM      6  C   UNL     1      13.758   8.362  17.748  0.00  0.00    +0.103 A 
ATOM     23  N   UNL     1      13.756   7.721  17.229  0.00  0.00    -0.082 NA
ATOM     24  O   UNL     1      13.114   7.809  16.717  0.00  0.00    -0.356 OA
BRANCH   4   3
ATOM      3  C   UNL     1      12.047   8.808  16.552  0.00  0.00    +0.209 C 
BRANCH   3   2
ATOM      1  C   UNL     1      10.655   8.707  16.244  0.00  0.00    +0.175 C 
ATOM      2  O   UNL     1      11.327   8.408  16.616  0.00  0.00    -0.343 OA
ENDBRANCH   3   2
ENDBRANCH   4   3
ENDBRANCH   7   6
ENDBRANCH   8   7
BRANCH  13  14
ATOM     14  C   UNL     1      13.233   7.560  20.830  0.00  0.00    +0.121 C 
BRANCH  14  15
ATOM     15  N   UNL     1      12.431   7.540  20.635  0.00  0.00    -0.217 NA
BRANCH  15  16
ATOM     16  C   UNL     1      11.862   7.655  21.221  0.00  0.00    +0.076 C 
ATOM     17  C   UNL     1      11.199   7.163  21.252  0.00  0.00    +0.036 C 
ATOM     18  C   UNL     1      10.629   7.277  21.838  0.00  0.00    +0.090 C 
ATOM     19  N   UNL     1      10.722   7.882  22.392  0.00  0.00    -0.218 NA
ATOM     20  C   UNL     1      11.383   8.373  22.359  0.00  0.00    +0.090 C 
ATOM     21  C   UNL     1      11.954   8.259  21.774  0.00  0.00    +0.036 C 
ENDBRANCH  15  16
ENDBRANCH  14  15
ENDBRANCH  13  14
TORSDOF 7
ENDMDL
