MODEL 1
REMARK VINA RESULT:     -12.0      0.000      0.000
REMARK  Name = 
REMARK  6 active torsions:
REMARK  status: ('A' for Active; 'I' for Inactive)
REMARK    1  A    between atoms: C_4  and  C_26
REMARK    2  A    between atoms: C_6  and  C_7
REMARK    3  A    between atoms: C_14  and  C_15
REMARK    4  A    between atoms: C_15  and  N_16
REMARK    5  A    between atoms: N_16  and  S_17
REMARK    6  A    between atoms: S_17  and  C_20
REMARK                            x       y       z     vdW  Elec       q    Type
REMARK                         _______ _______ _______ _____ _____    ______ ____
ROOT
ATOM      7  C   UNL     1      -0.544   0.038  24.200  0.00  0.00    +0.056 C 
ATOM      8  C   UNL     1      -0.200  -0.651  24.096  0.00  0.00    +0.078 C 
ATOM      9  N   UNL     1       0.091   0.080  23.849  0.00  0.00    -0.272 NA
ATOM     10  C   UNL     1      -0.607   0.805  24.142  0.00  0.00    +0.072 C 
ATOM     11  C   UNL     1      -0.799   1.429  24.172  0.00  0.00    +0.018 C 
ATOM     12  C   UNL     1      -0.252   0.752  23.955  0.00  0.00    +0.010 C 
ATOM     13  C   UNL     1       0.484   0.973  23.529  0.00  0.00    +0.018 C 
ATOM     14  C   UNL     1       0.853   0.317  23.407  0.00  0.00    +0.077 C 
ENDROOT
BRANCH   7   6
ATOM      1  C   UNL     1      -0.889  -0.738  25.780  0.00  0.00    +0.153 C 
ATOM      2  N   UNL     1      -1.428  -0.314  25.320  0.00  0.00    -0.253 N 
ATOM      3  N   UNL     1      -2.219  -0.174  25.506  0.00  0.00    -0.170 NA
ATOM      4  C   UNL     1      -2.550   0.269  24.894  0.00  0.00    +0.102 A 
ATOM      5  C   UNL     1      -1.963   0.403  24.331  0.00  0.00    +0.035 A 
ATOM      6  C   UNL     1      -1.270   0.042  24.594  0.00  0.00    +0.058 A 
BRANCH   4  26
ATOM     26  C   UNL     1      -3.330   0.533  24.853  0.00  0.00    +0.019 A 
ATOM     27  C   UNL     1      -3.514   1.312  25.056  0.00  0.00    +0.002 A 
ATOM     28  C   UNL     1      -4.295   1.576  25.015  0.00  0.00    +0.000 A 
ATOM     29  C   UNL     1      -4.892   1.060  24.771  0.00  0.00    +0.000 A 
ATOM     30  C   UNL     1      -5.672   1.324  24.730  0.00  0.00    +0.000 A 
ATOM     31  C   UNL     1      -5.856   2.103  24.933  0.00  0.00    +0.000 A 
ATOM     32  C   UNL     1      -5.259   2.617  25.177  0.00  0.00    +0.000 A 
ATOM     33  C   UNL     1      -4.478   2.353  25.217  0.00  0.00    +0.000 A 
ATOM     34  C   UNL     1      -4.709   0.282  24.569  0.00  0.00    +0.000 A 
ATOM     35  C   UNL     1      -3.927   0.018  24.610  0.00  0.00    +0.002 A 
ENDBRANCH   4  26
ENDBRANCH   7   6
BRANCH  14  15
ATOM     15  C   UNL     1       1.539   0.005  23.071  0.00  0.00    +0.131 C 
BRANCH  15  16
ATOM     16  N   UNL     1       2.121   0.511  22.777  0.00  0.00    -0.076 NA
BRANCH  16  17
ATOM     17  S   UNL     1       2.918   0.354  22.928  0.00  0.00    +0.077 S 
ATOM     18  O   UNL     1       2.810  -0.427  22.685  0.00  0.00    -0.152 OA
ATOM     19  O   UNL     1       3.024   1.136  23.170  0.00  0.00    -0.152 OA
BRANCH  17  20
ATOM     20  C   UNL     1       3.714   0.199  23.079  0.00  0.00    +0.124 A 
ATOM     21  C   UNL     1       4.284   0.770  22.907  0.00  0.00    +0.020 A 
ATOM     22  C   UNL     1       5.081   0.615  23.058  0.00  0.00    +0.001 A 
ATOM     23  C   UNL     1       5.306  -0.110  23.380  0.00  0.00    +0.000 A 
ATOM     24  C   UNL     1       4.735  -0.680  23.552  0.00  0.00    +0.001 A 
ATOM     25  C   UNL     1       3.939  -0.526  23.401  0.00  0.00    +0.020 A 
ENDBRANCH  17  20
ENDBRANCH  16  17
ENDBRANCH  15  16
ENDBRANCH  14  15
TORSDOF 6
ENDMDL
MODEL 2
REMARK VINA RESULT:     -11.4      1.201      1.890
REMARK  Name = 
REMARK  6 active torsions:
REMARK  status: ('A' for Active; 'I' for Inactive)
REMARK    1  A    between atoms: C_4  and  C_26
REMARK    2  A    between atoms: C_6  and  C_7
REMARK    3  A    between atoms: C_14  and  C_15
REMARK    4  A    between atoms: C_15  and  N_16
REMARK    5  A    between atoms: N_16  and  S_17
REMARK    6  A    between atoms: S_17  and  C_20
REMARK                            x       y       z     vdW  Elec       q    Type
REMARK                         _______ _______ _______ _____ _____    ______ ____
ROOT
ATOM      7  C   UNL     1      -1.183   1.552  23.660  0.00  0.00    +0.056 C 
ATOM      8  C   UNL     1      -0.651   2.073  23.435  0.00  0.00    +0.078 C 
ATOM      9  N   UNL     1      -0.502   1.298  23.676  0.00  0.00    -0.272 NA
ATOM     10  C   UNL     1      -1.428   0.865  23.911  0.00  0.00    +0.072 C 
ATOM     11  C   UNL     1      -1.779   0.353  24.115  0.00  0.00    +0.018 C 
ATOM     12  C   UNL     1      -1.029   0.793  23.895  0.00  0.00    +0.010 C 
ATOM     13  C   UNL     1      -0.281   0.340  23.969  0.00  0.00    +0.018 C 
ATOM     14  C   UNL     1       0.271   0.820  23.756  0.00  0.00    +0.077 C 
ENDROOT
BRANCH   7   6
ATOM      1  C   UNL     1      -2.178   1.897  22.207  0.00  0.00    +0.153 C 
ATOM      2  N   UNL     1      -2.429   1.954  22.992  0.00  0.00    -0.253 N 
ATOM      3  N   UNL     1      -3.181   2.178  23.245  0.00  0.00    -0.170 NA
ATOM      4  C   UNL     1      -3.189   2.159  24.069  0.00  0.00    +0.102 A 
ATOM      5  C   UNL     1      -2.441   1.922  24.325  0.00  0.00    +0.035 A 
ATOM      6  C   UNL     1      -1.972   1.795  23.659  0.00  0.00    +0.058 A 
BRANCH   4  26
ATOM     26  C   UNL     1      -3.831   2.344  24.553  0.00  0.00    +0.019 A 
ATOM     27  C   UNL     1      -4.408   1.774  24.707  0.00  0.00    +0.002 A 
ATOM     28  C   UNL     1      -5.051   1.959  25.192  0.00  0.00    +0.000 A 
ATOM     29  C   UNL     1      -5.115   2.714  25.520  0.00  0.00    +0.000 A 
ATOM     30  C   UNL     1      -5.758   2.899  26.004  0.00  0.00    +0.000 A 
ATOM     31  C   UNL     1      -6.335   2.329  26.159  0.00  0.00    +0.000 A 
ATOM     32  C   UNL     1      -6.270   1.576  25.830  0.00  0.00    +0.000 A 
ATOM     33  C   UNL     1      -5.627   1.391  25.346  0.00  0.00    +0.000 A 
ATOM     34  C   UNL     1      -4.539   3.283  25.366  0.00  0.00    +0.000 A 
ATOM     35  C   UNL     1      -3.896   3.098  24.881  0.00  0.00    +0.002 A 
ENDBRANCH   4  26
ENDBRANCH   7   6
BRANCH  14  15
ATOM     15  C   UNL     1       1.088   0.876  23.656  0.00  0.00    +0.131 C 
BRANCH  15  16
ATOM     16  N   UNL     1       1.461   0.442  23.061  0.00  0.00    -0.076 NA
BRANCH  16  17
ATOM     17  S   UNL     1       2.286   0.421  23.022  0.00  0.00    +0.077 S 
ATOM     18  O   UNL     1       2.324   1.135  23.432  0.00  0.00    -0.152 OA
ATOM     19  O   UNL     1       2.247  -0.294  22.612  0.00  0.00    -0.152 OA
BRANCH  17  20
ATOM     20  C   UNL     1       3.109   0.399  22.982  0.00  0.00    +0.124 A 
ATOM     21  C   UNL     1       3.524   1.039  22.667  0.00  0.00    +0.020 A 
ATOM     22  C   UNL     1       4.347   1.017  22.627  0.00  0.00    +0.001 A 
ATOM     23  C   UNL     1       4.756   0.356  22.902  0.00  0.00    +0.000 A 
ATOM     24  C   UNL     1       4.342  -0.284  23.217  0.00  0.00    +0.001 A 
ATOM     25  C   UNL     1       3.518  -0.263  23.257  0.00  0.00    +0.020 A 
ENDBRANCH  17  20
ENDBRANCH  16  17
ENDBRANCH  15  16
ENDBRANCH  14  15
TORSDOF 6
ENDMDL
MODEL 3
REMARK VINA RESULT:     -10.8      2.062      7.121
REMARK  Name = 
REMARK  6 active torsions:
REMARK  status: ('A' for Active; 'I' for Inactive)
REMARK    1  A    between atoms: C_4  and  C_26
REMARK    2  A    between atoms: C_6  and  C_7
REMARK    3  A    between atoms: C_14  and  C_15
REMARK    4  A    between atoms: C_15  and  N_16
REMARK    5  A    between atoms: N_16  and  S_17
REMARK    6  A    between atoms: S_17  and  C_20
REMARK                            x       y       z     vdW  Elec       q    Type
REMARK                         _______ _______ _______ _____ _____    ______ ____
ROOT
ATOM      7  C   UNL     1       0.155   0.402  23.398  0.00  0.00    +0.056 C 
ATOM      8  C   UNL     1      -0.214   1.038  23.144  0.00  0.00    +0.078 C 
ATOM      9  N   UNL     1      -0.488   0.513  23.719  0.00  0.00    -0.272 NA
ATOM     10  C   UNL     1       0.242  -0.232  23.830  0.00  0.00    +0.072 C 
ATOM     11  C   UNL     1       0.455  -0.779  24.115  0.00  0.00    +0.018 C 
ATOM     12  C   UNL     1      -0.120  -0.108  23.963  0.00  0.00    +0.010 C 
ATOM     13  C   UNL     1      -0.859  -0.119  24.437  0.00  0.00    +0.018 C 
ATOM     14  C   UNL     1      -1.253   0.495  24.215  0.00  0.00    +0.077 C 
ENDROOT
BRANCH   7   6
ATOM      1  C   UNL     1       0.436  -0.422  21.829  0.00  0.00    +0.153 C 
ATOM      2  N   UNL     1       1.020  -0.144  22.342  0.00  0.00    -0.253 N 
ATOM      3  N   UNL     1       1.834  -0.197  22.224  0.00  0.00    -0.170 NA
ATOM      4  C   UNL     1       2.209   0.149  22.872  0.00  0.00    +0.102 A 
ATOM      5  C   UNL     1       1.625   0.415  23.391  0.00  0.00    +0.035 A 
ATOM      6  C   UNL     1       0.891   0.234  23.063  0.00  0.00    +0.058 A 
BRANCH   4  26
ATOM     26  C   UNL     1       3.024   0.217  22.982  0.00  0.00    +0.019 A 
ATOM     27  C   UNL     1       3.440  -0.388  23.359  0.00  0.00    +0.002 A 
ATOM     28  C   UNL     1       4.256  -0.320  23.469  0.00  0.00    +0.000 A 
ATOM     29  C   UNL     1       4.653   0.352  23.202  0.00  0.00    +0.000 A 
ATOM     30  C   UNL     1       5.468   0.419  23.312  0.00  0.00    +0.000 A 
ATOM     31  C   UNL     1       5.885  -0.185  23.690  0.00  0.00    +0.000 A 
ATOM     32  C   UNL     1       5.487  -0.856  23.956  0.00  0.00    +0.000 A 
ATOM     33  C   UNL     1       4.672  -0.924  23.846  0.00  0.00    +0.000 A 
ATOM     34  C   UNL     1       4.237   0.956  22.825  0.00  0.00    +0.000 A 
ATOM     35  C   UNL     1       3.421   0.889  22.715  0.00  0.00    +0.002 A 
ENDBRANCH   4  26
ENDBRANCH   7   6
BRANCH  14  15
ATOM     15  C   UNL     1      -1.958   0.903  24.347  0.00  0.00    +0.131 C 
BRANCH  15  16
ATOM     16  N   UNL     1      -2.664   0.486  24.444  0.00  0.00    -0.076 NA
BRANCH  16  17
ATOM     17  S   UNL     1      -3.373   0.896  24.547  0.00  0.00    +0.077 S 
ATOM     18  O   UNL     1      -3.659   0.578  23.842  0.00  0.00    -0.152 OA
ATOM     19  O   UNL     1      -3.086   1.214  25.252  0.00  0.00    -0.152 OA
BRANCH  17  20
ATOM     20  C   UNL     1      -4.082   1.306  24.650  0.00  0.00    +0.124 A 
ATOM     21  C   UNL     1      -4.720   0.937  25.022  0.00  0.00    +0.020 A 
ATOM     22  C   UNL     1      -5.428   1.347  25.126  0.00  0.00    +0.001 A 
ATOM     23  C   UNL     1      -5.499   2.124  24.857  0.00  0.00    +0.000 A 
ATOM     24  C   UNL     1      -4.861   2.491  24.486  0.00  0.00    +0.001 A 
ATOM     25  C   UNL     1      -4.152   2.082  24.382  0.00  0.00    +0.020 A 
ENDBRANCH  17  20
ENDBRANCH  16  17
ENDBRANCH  15  16
ENDBRANCH  14  15
TORSDOF 6
ENDMDL
