REMARK  Name = 
REMARK  7 active torsions:
REMARK  status: ('A' for Active; 'I' for Inactive)
REMARK    1  A    between atoms: N_2  and  C_4
REMARK    2  A    between atoms: C_7  and  C_8
REMARK    3  A    between atoms: C_8  and  N_9
REMARK    4  A    between atoms: N_9  and  C_10
REMARK    5  A    between atoms: C_14  and  O_18
REMARK    6  A    between atoms: O_18  and  C_19
REMARK    7  A    between atoms: N_21  and  C_22
REMARK                            x       y       z     vdW  Elec       q    Type
REMARK                         _______ _______ _______ _____ _____    ______ ____
ROOT
ATOM     10  C   UNL     1       1.270  -0.922   0.000  0.00  0.00    +0.132 C 
ATOM     11  C   UNL     1       0.785  -0.255   0.000  0.00  0.00    +0.162 C 
ATOM     12  O   UNL     1       1.270   0.412   0.000  0.00  0.00    -0.348 OA
ATOM     13  C   UNL     1       2.054   0.158   0.000  0.00  0.00    +0.186 C 
ATOM     14  C   UNL     1       2.839   0.412   0.000  0.00  0.00    +0.229 C 
ATOM     15  C   UNL     1       3.324  -0.255   0.000  0.00  0.00    +0.188 C 
ATOM     16  O   UNL     1       2.839  -0.922   0.000  0.00  0.00    -0.348 OA
ATOM     17  C   UNL     1       2.054  -0.667   0.000  0.00  0.00    +0.164 C 
ENDROOT
BRANCH  10   9
ATOM      9  N   UNL     1       1.015  -1.707   0.000  0.00  0.00    -0.210 NA
BRANCH   9   8
ATOM      8  C   UNL     1       0.208  -1.879   0.000  0.00  0.00    +0.115 C 
BRANCH   8   7
ATOM      4  C   UNL     1      -0.557  -4.232   0.000  0.00  0.00    +0.048 A 
ATOM      5  C   UNL     1      -1.109  -3.619   0.000  0.00  0.00    +0.014 A 
ATOM      6  C   UNL     1      -0.854  -2.835   0.000  0.00  0.00    -0.002 A 
ATOM      7  C   UNL     1      -0.047  -2.663   0.000  0.00  0.00    -0.005 A 
ATOM     28  C   UNL     1       0.505  -3.276   0.000  0.00  0.00    -0.002 A 
ATOM     29  C   UNL     1       0.250  -4.061   0.000  0.00  0.00    +0.014 A 
BRANCH   4   2
ATOM      1  C   UNL     1      -0.260  -5.630   0.000  0.00  0.00    +0.112 C 
ATOM      2  N   UNL     1      -0.812  -5.017   0.000  0.00  0.00    -0.304 N 
ATOM      3  C   UNL     1      -1.619  -5.189   0.000  0.00  0.00    +0.112 C 
ENDBRANCH   4   2
ENDBRANCH   8   7
ENDBRANCH   9   8
ENDBRANCH  10   9
BRANCH  14  18
ATOM     18  O   UNL     1       3.094   1.197   0.000  0.00  0.00    -0.432 OA
BRANCH  18  19
ATOM     19  C   UNL     1       3.901   1.369   0.000  0.00  0.00    +0.421 C 
ATOM     20  O   UNL     1       4.453   0.756   0.000  0.00  0.00    -0.225 OA
ATOM     21  N   UNL     1       4.156   2.153   0.000  0.00  0.00    -0.170 NA
BRANCH  21  22
ATOM     22  C   UNL     1       4.963   2.325   0.000  0.00  0.00    +0.099 C 
ATOM     23  C   UNL     1       5.218   3.109   0.000  0.00  0.00    +0.022 C 
ATOM     24  C   UNL     1       6.024   3.281   0.000  0.00  0.00    +0.002 C 
ATOM     25  C   UNL     1       6.577   2.668   0.000  0.00  0.00    +0.000 C 
ATOM     26  C   UNL     1       6.322   1.883   0.000  0.00  0.00    +0.002 C 
ATOM     27  C   UNL     1       5.515   1.712   0.000  0.00  0.00    +0.022 C 
ENDBRANCH  21  22
ENDBRANCH  18  19
ENDBRANCH  14  18
TORSDOF 7
