REMARK  Name = 
REMARK  7 active torsions:
REMARK  status: ('A' for Active; 'I' for Inactive)
REMARK    1  A    between atoms: O_2  and  C_3
REMARK    2  A    between atoms: C_6  and  C_11
REMARK    3  A    between atoms: C_8  and  O_9
REMARK    4  A    between atoms: C_16  and  C_18
REMARK    5  A    between atoms: C_25  and  C_26
REMARK    6  A    between atoms: C_26  and  N_27
REMARK    7  A    between atoms: C_28  and  C_30
REMARK                            x       y       z     vdW  Elec       q    Type
REMARK                         _______ _______ _______ _____ _____    ______ ____
ROOT
ATOM     11  C   UNL     1       2.829   0.501   0.000  0.00  0.00    +0.084 A 
ATOM     12  N   UNL     1       3.597   0.200   0.000  0.00  0.00    -0.231 NA
ATOM     13  C   UNL     1       3.720  -0.616   0.000  0.00  0.00    +0.139 A 
ATOM     14  C   UNL     1       4.488  -0.918   0.000  0.00  0.00    +0.074 C 
ATOM     15  N   UNL     1       3.075  -1.130   0.000  0.00  0.00    -0.235 NA
ATOM     16  C   UNL     1       2.307  -0.828   0.000  0.00  0.00    +0.063 A 
ATOM     17  C   UNL     1       2.184  -0.013   0.000  0.00  0.00    +0.034 A 
ENDROOT
BRANCH  16  18
ATOM     18  C   UNL     1       1.661  -1.343   0.000  0.00  0.00    +0.056 C 
ATOM     19  C   UNL     1       1.814  -2.106   0.000  0.00  0.00    +0.078 C 
ATOM     20  N   UNL     1       1.065  -1.759   0.000  0.00  0.00    -0.272 NA
ATOM     21  C   UNL     1       1.205  -0.720   0.000  0.00  0.00    +0.072 C 
ATOM     22  C   UNL     1       0.961  -0.114   0.000  0.00  0.00    +0.018 C 
ATOM     23  C   UNL     1       0.923  -1.010   0.000  0.00  0.00    +0.010 C 
ATOM     24  C   UNL     1       0.119  -1.362   0.000  0.00  0.00    +0.018 C 
ATOM     25  C   UNL     1       0.226  -2.118   0.000  0.00  0.00    +0.079 C 
BRANCH  25  26
ATOM     26  C   UNL     1      -0.179  -2.836   0.000  0.00  0.00    +0.131 C 
BRANCH  26  27
ATOM     27  N   UNL     1      -1.004  -2.845   0.000  0.00  0.00    -0.204 NA
ATOM     28  C   UNL     1      -1.408  -3.564   0.000  0.00  0.00    +0.241 C 
ATOM     29  O   UNL     1      -0.988  -4.274   0.000  0.00  0.00    -0.273 OA
BRANCH  28  30
ATOM     30  C   UNL     1      -2.233  -3.573   0.000  0.00  0.00    +0.078 C 
ATOM     31  C   UNL     1      -2.810  -4.162   0.000  0.00  0.00    +0.009 C 
ATOM     32  C   UNL     1      -3.400  -3.585   0.000  0.00  0.00    +0.001 C 
ATOM     33  C   UNL     1      -2.823  -2.996   0.000  0.00  0.00    +0.009 C 
ENDBRANCH  28  30
ENDBRANCH  26  27
ENDBRANCH  25  26
ENDBRANCH  16  18
BRANCH  11   6
ATOM      3  C   UNL     1       2.462   2.949   0.000  0.00  0.00    +0.172 A 
ATOM      4  C   UNL     1       3.229   2.647   0.000  0.00  0.00    +0.040 A 
ATOM      5  C   UNL     1       3.352   1.831   0.000  0.00  0.00    +0.005 A 
ATOM      6  C   UNL     1       2.707   1.317   0.000  0.00  0.00    +0.021 A 
ATOM      7  C   UNL     1       1.939   1.619   0.000  0.00  0.00    +0.042 A 
ATOM      8  C   UNL     1       1.816   2.435   0.000  0.00  0.00    +0.172 A 
BRANCH   3   2
ATOM      1  C   UNL     1       1.571   4.067   0.000  0.00  0.00    +0.253 C 
ATOM      2  O   UNL     1       2.339   3.765   0.000  0.00  0.00    -0.468 OA
ENDBRANCH   3   2
BRANCH   8   9
ATOM      9  O   UNL     1       1.049   2.737   0.000  0.00  0.00    -0.468 OA
ATOM     10  C   UNL     1       0.926   3.553   0.000  0.00  0.00    +0.253 C 
ENDBRANCH   8   9
ENDBRANCH  11   6
TORSDOF 7
