MODEL 1
REMARK VINA RESULT:     -12.7      0.000      0.000
REMARK  Name = 
REMARK  7 active torsions:
REMARK  status: ('A' for Active; 'I' for Inactive)
REMARK    1  A    between atoms: O_2  and  C_3
REMARK    2  A    between atoms: C_3  and  C_5
REMARK    3  A    between atoms: C_18  and  N_28
REMARK    4  A    between atoms: C_20  and  C_22
REMARK    5  A    between atoms: N_28  and  C_29
REMARK    6  A    between atoms: C_29  and  C_30
REMARK    7  A    between atoms: C_30  and  N_31
REMARK                            x       y       z     vdW  Elec       q    Type
REMARK                         _______ _______ _______ _____ _____    ______ ____
ROOT
ATOM      5  C   UNL     1      -2.901   1.464  24.848  0.00  0.00    +0.162 C 
ATOM      6  C   UNL     1      -2.911   2.273  25.005  0.00  0.00    +0.055 C 
ATOM      7  C   UNL     1      -2.215   2.713  24.942  0.00  0.00    -0.004 A 
ATOM      8  C   UNL     1      -1.511   2.344  24.722  0.00  0.00    +0.070 A 
ATOM      9  N   UNL     1      -0.918   2.916  24.705  0.00  0.00    -0.249 NA
ATOM     10  C   UNL     1      -1.254   3.640  24.915  0.00  0.00    +0.081 A 
ATOM     11  C   UNL     1      -2.057   3.514  25.062  0.00  0.00    +0.015 A 
ATOM     12  C   UNL     1      -2.539   4.145  25.285  0.00  0.00    +0.001 A 
ATOM     13  C   UNL     1      -2.218   4.902  25.362  0.00  0.00    +0.000 A 
ATOM     14  C   UNL     1      -1.415   5.027  25.215  0.00  0.00    +0.002 A 
ATOM     15  C   UNL     1      -0.933   4.396  24.992  0.00  0.00    +0.019 A 
ATOM     16  C   UNL     1      -1.502   1.534  24.564  0.00  0.00    +0.100 C 
ATOM     17  C   UNL     1      -0.799   1.164  24.344  0.00  0.00    +0.040 C 
ATOM     18  C   UNL     1      -0.790   0.355  24.187  0.00  0.00    +0.076 C 
ATOM     19  C   UNL     1      -1.485  -0.085  24.250  0.00  0.00    +0.038 C 
ATOM     20  C   UNL     1      -2.188   0.285  24.471  0.00  0.00    +0.082 C 
ATOM     21  N   UNL     1      -2.197   1.094  24.628  0.00  0.00    -0.258 NA
ENDROOT
BRANCH  20  22
ATOM     22  C   UNL     1      -2.883  -0.156  24.534  0.00  0.00    -0.008 A 
ATOM     23  C   UNL     1      -3.084  -0.510  25.251  0.00  0.00    -0.003 A 
ATOM     24  C   UNL     1      -3.779  -0.951  25.313  0.00  0.00    -0.000 A 
ATOM     25  C   UNL     1      -4.273  -1.037  24.658  0.00  0.00    -0.000 A 
ATOM     26  C   UNL     1      -4.072  -0.683  23.941  0.00  0.00    -0.000 A 
ATOM     27  C   UNL     1      -3.377  -0.243  23.878  0.00  0.00    -0.003 A 
ENDBRANCH  20  22
BRANCH   5   3
ATOM      3  C   UNL     1      -3.597   1.024  24.912  0.00  0.00    +0.332 C 
ATOM      4  O   UNL     1      -4.059   0.370  25.110  0.00  0.00    -0.249 OA
BRANCH   3   2
ATOM      1  C   UNL     1      -4.860   1.632  25.184  0.00  0.00    +0.256 C 
ATOM      2  O   UNL     1      -4.311   1.339  24.644  0.00  0.00    -0.443 OA
ENDBRANCH   3   2
ENDBRANCH   5   3
BRANCH  18  28
ATOM     28  N   UNL     1      -0.086  -0.015  23.967  0.00  0.00    -0.217 NA
BRANCH  28  29
ATOM     29  C   UNL     1       0.435   0.364  23.451  0.00  0.00    +0.112 C 
BRANCH  29  30
ATOM     30  C   UNL     1       1.006  -0.074  23.046  0.00  0.00    +0.134 C 
BRANCH  30  31
ATOM     31  N   UNL     1       1.795   0.165  23.061  0.00  0.00    -0.204 NA
ATOM     32  C   UNL     1       2.267   0.068  22.391  0.00  0.00    +0.242 C 
ATOM     33  C   UNL     1       3.057   0.307  22.405  0.00  0.00    +0.096 C 
ATOM     34  O   UNL     1       1.949  -0.268  21.707  0.00  0.00    -0.273 OA
ENDBRANCH  30  31
ENDBRANCH  29  30
ENDBRANCH  28  29
ENDBRANCH  18  28
TORSDOF 7
ENDMDL
MODEL 2
REMARK VINA RESULT:     -12.2      2.348      3.107
REMARK  Name = 
REMARK  7 active torsions:
REMARK  status: ('A' for Active; 'I' for Inactive)
REMARK    1  A    between atoms: O_2  and  C_3
REMARK    2  A    between atoms: C_3  and  C_5
REMARK    3  A    between atoms: C_18  and  N_28
REMARK    4  A    between atoms: C_20  and  C_22
REMARK    5  A    between atoms: N_28  and  C_29
REMARK    6  A    between atoms: C_29  and  C_30
REMARK    7  A    between atoms: C_30  and  N_31
REMARK                            x       y       z     vdW  Elec       q    Type
REMARK                         _______ _______ _______ _____ _____    ______ ____
ROOT
ATOM      5  C   UNL     1      -3.957   3.038  25.196  0.00  0.00    +0.162 C 
ATOM      6  C   UNL     1      -3.452   3.688  25.237  0.00  0.00    +0.055 C 
ATOM      7  C   UNL     1      -2.654   3.602  25.048  0.00  0.00    -0.004 A 
ATOM      8  C   UNL     1      -2.360   2.866  24.819  0.00  0.00    +0.070 A 
ATOM      9  N   UNL     1      -1.554   2.949  24.667  0.00  0.00    -0.249 NA
ATOM     10  C   UNL     1      -1.348   3.736  24.801  0.00  0.00    +0.081 A 
ATOM     11  C   UNL     1      -2.028   4.140  25.037  0.00  0.00    +0.015 A 
ATOM     12  C   UNL     1      -1.990   4.946  25.212  0.00  0.00    +0.001 A 
ATOM     13  C   UNL     1      -1.271   5.348  25.150  0.00  0.00    +0.000 A 
ATOM     14  C   UNL     1      -0.591   4.943  24.914  0.00  0.00    +0.002 A 
ATOM     15  C   UNL     1      -0.630   4.138  24.740  0.00  0.00    +0.019 A 
ATOM     16  C   UNL     1      -2.866   2.215  24.779  0.00  0.00    +0.100 C 
ATOM     17  C   UNL     1      -2.573   1.479  24.550  0.00  0.00    +0.040 C 
ATOM     18  C   UNL     1      -3.078   0.828  24.510  0.00  0.00    +0.076 C 
ATOM     19  C   UNL     1      -3.877   0.914  24.698  0.00  0.00    +0.038 C 
ATOM     20  C   UNL     1      -4.169   1.650  24.927  0.00  0.00    +0.082 C 
ATOM     21  N   UNL     1      -3.664   2.301  24.967  0.00  0.00    -0.258 NA
ENDROOT
BRANCH  20  22
ATOM     22  C   UNL     1      -4.968   1.735  25.116  0.00  0.00    -0.008 A 
ATOM     23  C   UNL     1      -5.221   1.642  25.895  0.00  0.00    -0.003 A 
ATOM     24  C   UNL     1      -6.020   1.727  26.083  0.00  0.00    -0.000 A 
ATOM     25  C   UNL     1      -6.566   1.906  25.490  0.00  0.00    -0.000 A 
ATOM     26  C   UNL     1      -6.314   1.999  24.711  0.00  0.00    -0.000 A 
ATOM     27  C   UNL     1      -5.515   1.914  24.524  0.00  0.00    -0.003 A 
ENDBRANCH  20  22
BRANCH   5   3
ATOM      3  C   UNL     1      -4.756   3.123  25.385  0.00  0.00    +0.332 C 
ATOM      4  O   UNL     1      -5.478   2.908  25.722  0.00  0.00    -0.249 OA
BRANCH   3   2
ATOM      1  C   UNL     1      -5.363   4.385  25.668  0.00  0.00    +0.256 C 
ATOM      2  O   UNL     1      -5.171   3.789  25.131  0.00  0.00    -0.443 OA
ENDBRANCH   3   2
ENDBRANCH   5   3
BRANCH  18  28
ATOM     28  N   UNL     1      -2.785   0.092  24.281  0.00  0.00    -0.217 NA
BRANCH  28  29
ATOM     29  C   UNL     1      -2.740  -0.523  24.829  0.00  0.00    +0.112 C 
BRANCH  29  30
ATOM     30  C   UNL     1      -2.512  -1.278  24.585  0.00  0.00    +0.134 C 
BRANCH  30  31
ATOM     31  N   UNL     1      -3.022  -1.917  24.696  0.00  0.00    -0.204 NA
ATOM     32  C   UNL     1      -2.764  -2.683  24.528  0.00  0.00    +0.242 C 
ATOM     33  C   UNL     1      -3.273  -3.323  24.639  0.00  0.00    +0.096 C 
ATOM     34  O   UNL     1      -1.998  -2.809  24.250  0.00  0.00    -0.273 OA
ENDBRANCH  30  31
ENDBRANCH  29  30
ENDBRANCH  28  29
ENDBRANCH  18  28
TORSDOF 7
ENDMDL
MODEL 3
REMARK VINA RESULT:     -12.1      1.139      3.579
REMARK  Name = 
REMARK  7 active torsions:
REMARK  status: ('A' for Active; 'I' for Inactive)
REMARK    1  A    between atoms: O_2  and  C_3
REMARK    2  A    between atoms: C_3  and  C_5
REMARK    3  A    between atoms: C_18  and  N_28
REMARK    4  A    between atoms: C_20  and  C_22
REMARK    5  A    between atoms: N_28  and  C_29
REMARK    6  A    between atoms: C_29  and  C_30
REMARK    7  A    between atoms: C_30  and  N_31
REMARK                            x       y       z     vdW  Elec       q    Type
REMARK                         _______ _______ _______ _____ _____    ______ ____
ROOT
ATOM      5  C   UNL     1      -3.374   0.919  24.566  0.00  0.00    +0.162 C 
ATOM      6  C   UNL     1      -3.702   0.164  24.594  0.00  0.00    +0.055 C 
ATOM      7  C   UNL     1      -3.214  -0.500  24.548  0.00  0.00    -0.004 A 
ATOM      8  C   UNL     1      -2.397  -0.407  24.474  0.00  0.00    +0.070 A 
ATOM      9  N   UNL     1      -2.058  -1.158  24.441  0.00  0.00    -0.249 NA
ATOM     10  C   UNL     1      -2.663  -1.716  24.495  0.00  0.00    +0.081 A 
ATOM     11  C   UNL     1      -3.379  -1.308  24.561  0.00  0.00    +0.015 A 
ATOM     12  C   UNL     1      -4.087  -1.727  24.624  0.00  0.00    +0.001 A 
ATOM     13  C   UNL     1      -4.080  -2.552  24.621  0.00  0.00    +0.000 A 
ATOM     14  C   UNL     1      -3.365  -2.959  24.555  0.00  0.00    +0.002 A 
ATOM     15  C   UNL     1      -2.656  -2.541  24.492  0.00  0.00    +0.019 A 
ATOM     16  C   UNL     1      -2.069   0.349  24.446  0.00  0.00    +0.100 C 
ATOM     17  C   UNL     1      -1.253   0.443  24.372  0.00  0.00    +0.040 C 
ATOM     18  C   UNL     1      -0.925   1.199  24.345  0.00  0.00    +0.076 C 
ATOM     19  C   UNL     1      -1.414   1.862  24.391  0.00  0.00    +0.038 C 
ATOM     20  C   UNL     1      -2.230   1.768  24.464  0.00  0.00    +0.082 C 
ATOM     21  N   UNL     1      -2.558   1.013  24.492  0.00  0.00    -0.258 NA
ENDROOT
BRANCH  20  22
ATOM     22  C   UNL     1      -2.718   2.433  24.510  0.00  0.00    -0.008 A 
ATOM     23  C   UNL     1      -3.052   2.747  23.826  0.00  0.00    -0.003 A 
ATOM     24  C   UNL     1      -3.540   3.411  23.873  0.00  0.00    -0.000 A 
ATOM     25  C   UNL     1      -3.692   3.760  24.605  0.00  0.00    -0.000 A 
ATOM     26  C   UNL     1      -3.358   3.446  25.290  0.00  0.00    -0.000 A 
ATOM     27  C   UNL     1      -2.870   2.782  25.243  0.00  0.00    -0.003 A 
ENDBRANCH  20  22
BRANCH   5   3
ATOM      3  C   UNL     1      -3.863   1.583  24.612  0.00  0.00    +0.332 C 
ATOM      4  O   UNL     1      -4.117   2.346  24.428  0.00  0.00    -0.249 OA
BRANCH   3   2
ATOM      1  C   UNL     1      -5.274   1.481  24.809  0.00  0.00    +0.256 C 
ATOM      2  O   UNL     1      -4.516   1.581  25.116  0.00  0.00    -0.443 OA
ENDBRANCH   3   2
ENDBRANCH   5   3
BRANCH  18  28
ATOM     28  N   UNL     1      -0.108   1.292  24.271  0.00  0.00    -0.217 NA
BRANCH  28  29
ATOM     29  C   UNL     1       0.297   0.909  23.663  0.00  0.00    +0.112 C 
BRANCH  29  30
ATOM     30  C   UNL     1       1.115   0.994  23.595  0.00  0.00    +0.134 C 
BRANCH  30  31
ATOM     31  N   UNL     1       1.541   0.493  23.097  0.00  0.00    -0.204 NA
ATOM     32  C   UNL     1       2.337   0.646  22.942  0.00  0.00    +0.242 C 
ATOM     33  C   UNL     1       2.764   0.146  22.443  0.00  0.00    +0.096 C 
ATOM     34  O   UNL     1       2.706   1.299  23.286  0.00  0.00    -0.273 OA
ENDBRANCH  30  31
ENDBRANCH  29  30
ENDBRANCH  28  29
ENDBRANCH  18  28
TORSDOF 7
ENDMDL
MODEL 4
REMARK VINA RESULT:     -11.5      2.054      4.451
REMARK  Name = 
REMARK  7 active torsions:
REMARK  status: ('A' for Active; 'I' for Inactive)
REMARK    1  A    between atoms: O_2  and  C_3
REMARK    2  A    between atoms: C_3  and  C_5
REMARK    3  A    between atoms: C_18  and  N_28
REMARK    4  A    between atoms: C_20  and  C_22
REMARK    5  A    between atoms: N_28  and  C_29
REMARK    6  A    between atoms: C_29  and  C_30
REMARK    7  A    between atoms: C_30  and  N_31
REMARK                            x       y       z     vdW  Elec       q    Type
REMARK                         _______ _______ _______ _____ _____    ______ ____
ROOT
ATOM      5  C   UNL     1      -2.130  -0.636  24.600  0.00  0.00    +0.162 C 
ATOM      6  C   UNL     1      -1.419  -0.226  24.521  0.00  0.00    +0.055 C 
ATOM      7  C   UNL     1      -1.411   0.598  24.559  0.00  0.00    -0.004 A 
ATOM      8  C   UNL     1      -2.114   1.013  24.676  0.00  0.00    +0.070 A 
ATOM      9  N   UNL     1      -1.937   1.818  24.690  0.00  0.00    -0.249 NA
ATOM     10  C   UNL     1      -1.123   1.902  24.581  0.00  0.00    +0.081 A 
ATOM     11  C   UNL     1      -0.798   1.147  24.500  0.00  0.00    +0.015 A 
ATOM     12  C   UNL     1       0.014   1.059  24.384  0.00  0.00    +0.001 A 
ATOM     13  C   UNL     1       0.501   1.724  24.348  0.00  0.00    +0.000 A 
ATOM     14  C   UNL     1       0.175   2.479  24.429  0.00  0.00    +0.002 A 
ATOM     15  C   UNL     1      -0.637   2.567  24.545  0.00  0.00    +0.019 A 
ATOM     16  C   UNL     1      -2.826   0.603  24.755  0.00  0.00    +0.100 C 
ATOM     17  C   UNL     1      -3.530   1.016  24.872  0.00  0.00    +0.040 C 
ATOM     18  C   UNL     1      -4.241   0.607  24.951  0.00  0.00    +0.076 C 
ATOM     19  C   UNL     1      -4.249  -0.217  24.913  0.00  0.00    +0.038 C 
ATOM     20  C   UNL     1      -3.545  -0.631  24.796  0.00  0.00    +0.082 C 
ATOM     21  N   UNL     1      -2.834  -0.221  24.717  0.00  0.00    -0.258 NA
ENDROOT
BRANCH  20  22
ATOM     22  C   UNL     1      -3.554  -1.455  24.759  0.00  0.00    -0.008 A 
ATOM     23  C   UNL     1      -3.418  -1.901  25.438  0.00  0.00    -0.003 A 
ATOM     24  C   UNL     1      -3.427  -2.725  25.400  0.00  0.00    -0.000 A 
ATOM     25  C   UNL     1      -3.571  -3.103  24.680  0.00  0.00    -0.000 A 
ATOM     26  C   UNL     1      -3.707  -2.657  24.000  0.00  0.00    -0.000 A 
ATOM     27  C   UNL     1      -3.699  -1.833  24.039  0.00  0.00    -0.003 A 
ENDBRANCH  20  22
BRANCH   5   3
ATOM      3  C   UNL     1      -2.137  -1.460  24.562  0.00  0.00    +0.332 C 
ATOM      4  O   UNL     1      -2.435  -2.202  24.358  0.00  0.00    -0.249 OA
BRANCH   3   2
ATOM      1  C   UNL     1      -0.940  -2.226  24.427  0.00  0.00    +0.256 C 
ATOM      2  O   UNL     1      -1.525  -1.895  24.903  0.00  0.00    -0.443 OA
ENDBRANCH   3   2
ENDBRANCH   5   3
BRANCH  18  28
ATOM     28  N   UNL     1      -4.945   1.021  25.068  0.00  0.00    -0.217 NA
BRANCH  28  29
ATOM     29  C   UNL     1      -4.989   1.823  24.878  0.00  0.00    +0.112 C 
BRANCH  29  30
ATOM     30  C   UNL     1      -5.536   2.309  25.261  0.00  0.00    +0.134 C 
BRANCH  30  31
ATOM     31  N   UNL     1      -5.565   3.114  25.083  0.00  0.00    -0.204 NA
ATOM     32  C   UNL     1      -5.718   3.661  25.682  0.00  0.00    +0.242 C 
ATOM     33  C   UNL     1      -5.748   4.467  25.506  0.00  0.00    +0.096 C 
ATOM     34  O   UNL     1      -5.840   3.403  26.456  0.00  0.00    -0.273 OA
ENDBRANCH  30  31
ENDBRANCH  29  30
ENDBRANCH  28  29
ENDBRANCH  18  28
TORSDOF 7
ENDMDL
MODEL 5
REMARK VINA RESULT:     -10.9      2.100      5.533
REMARK  Name = 
REMARK  7 active torsions:
REMARK  status: ('A' for Active; 'I' for Inactive)
REMARK    1  A    between atoms: O_2  and  C_3
REMARK    2  A    between atoms: C_3  and  C_5
REMARK    3  A    between atoms: C_18  and  N_28
REMARK    4  A    between atoms: C_20  and  C_22
REMARK    5  A    between atoms: N_28  and  C_29
REMARK    6  A    between atoms: C_29  and  C_30
REMARK    7  A    between atoms: C_30  and  N_31
REMARK                            x       y       z     vdW  Elec       q    Type
REMARK                         _______ _______ _______ _____ _____    ______ ____
ROOT
ATOM      5  C   UNL     1      -1.727   0.055  24.614  0.00  0.00    +0.162 C 
ATOM      6  C   UNL     1      -1.956  -0.735  24.560  0.00  0.00    +0.055 C 
ATOM      7  C   UNL     1      -2.744  -0.926  24.410  0.00  0.00    -0.004 A 
ATOM      8  C   UNL     1      -3.304  -0.328  24.314  0.00  0.00    +0.070 A 
ATOM      9  N   UNL     1      -4.034  -0.682  24.173  0.00  0.00    -0.249 NA
ATOM     10  C   UNL     1      -3.928  -1.500  24.181  0.00  0.00    +0.081 A 
ATOM     11  C   UNL     1      -3.130  -1.651  24.328  0.00  0.00    +0.015 A 
ATOM     12  C   UNL     1      -2.858  -2.429  24.368  0.00  0.00    +0.001 A 
ATOM     13  C   UNL     1      -3.384  -3.056  24.261  0.00  0.00    +0.000 A 
ATOM     14  C   UNL     1      -4.182  -2.905  24.114  0.00  0.00    +0.002 A 
ATOM     15  C   UNL     1      -4.454  -2.127  24.074  0.00  0.00    +0.019 A 
ATOM     16  C   UNL     1      -3.074   0.463  24.368  0.00  0.00    +0.100 C 
ATOM     17  C   UNL     1      -3.633   1.062  24.273  0.00  0.00    +0.040 C 
ATOM     18  C   UNL     1      -3.404   1.852  24.327  0.00  0.00    +0.076 C 
ATOM     19  C   UNL     1      -2.615   2.044  24.477  0.00  0.00    +0.038 C 
ATOM     20  C   UNL     1      -2.057   1.445  24.572  0.00  0.00    +0.082 C 
ATOM     21  N   UNL     1      -2.286   0.655  24.518  0.00  0.00    -0.258 NA
ENDROOT
BRANCH  20  22
ATOM     22  C   UNL     1      -1.268   1.637  24.722  0.00  0.00    -0.008 A 
ATOM     23  C   UNL     1      -0.744   1.745  24.095  0.00  0.00    -0.003 A 
ATOM     24  C   UNL     1       0.045   1.937  24.246  0.00  0.00    -0.000 A 
ATOM     25  C   UNL     1       0.307   2.022  25.024  0.00  0.00    -0.000 A 
ATOM     26  C   UNL     1      -0.218   1.915  25.650  0.00  0.00    -0.000 A 
ATOM     27  C   UNL     1      -1.006   1.722  25.500  0.00  0.00    -0.003 A 
ENDBRANCH  20  22
BRANCH   5   3
ATOM      3  C   UNL     1      -0.938   0.247  24.763  0.00  0.00    +0.332 C 
ATOM      4  O   UNL     1      -0.317   0.655  25.121  0.00  0.00    -0.249 OA
BRANCH   3   2
ATOM      1  C   UNL     1       0.021  -0.810  24.716  0.00  0.00    +0.256 C 
ATOM      2  O   UNL     1      -0.334  -0.152  24.369  0.00  0.00    -0.443 OA
ENDBRANCH   3   2
ENDBRANCH   5   3
BRANCH  18  28
ATOM     28  N   UNL     1      -3.963   2.452  24.231  0.00  0.00    -0.217 NA
BRANCH  28  29
ATOM     29  C   UNL     1      -4.150   2.947  24.865  0.00  0.00    +0.112 C 
BRANCH  29  30
ATOM     30  C   UNL     1      -4.934   3.167  24.999  0.00  0.00    +0.134 C 
BRANCH  30  31
ATOM     31  N   UNL     1      -5.121   3.957  25.140  0.00  0.00    -0.204 NA
ATOM     32  C   UNL     1      -5.803   4.150  25.562  0.00  0.00    +0.242 C 
ATOM     33  C   UNL     1      -5.991   4.941  25.705  0.00  0.00    +0.096 C 
ATOM     34  O   UNL     1      -6.298   3.552  25.842  0.00  0.00    -0.273 OA
ENDBRANCH  30  31
ENDBRANCH  29  30
ENDBRANCH  28  29
ENDBRANCH  18  28
TORSDOF 7
ENDMDL
MODEL 6
REMARK VINA RESULT:     -10.7      2.020      3.725
REMARK  Name = 
REMARK  7 active torsions:
REMARK  status: ('A' for Active; 'I' for Inactive)
REMARK    1  A    between atoms: O_2  and  C_3
REMARK    2  A    between atoms: C_3  and  C_5
REMARK    3  A    between atoms: C_18  and  N_28
REMARK    4  A    between atoms: C_20  and  C_22
REMARK    5  A    between atoms: N_28  and  C_29
REMARK    6  A    between atoms: C_29  and  C_30
REMARK    7  A    between atoms: C_30  and  N_31
REMARK                            x       y       z     vdW  Elec       q    Type
REMARK                         _______ _______ _______ _____ _____    ______ ____
ROOT
ATOM      5  C   UNL     1      -3.002  -0.141  25.012  0.00  0.00    +0.162 C 
ATOM      6  C   UNL     1      -3.809   0.025  25.029  0.00  0.00    +0.055 C 
ATOM      7  C   UNL     1      -4.070   0.807  25.001  0.00  0.00    -0.004 A 
ATOM      8  C   UNL     1      -3.523   1.424  24.956  0.00  0.00    +0.070 A 
ATOM      9  N   UNL     1      -3.941   2.134  24.936  0.00  0.00    -0.249 NA
ATOM     10  C   UNL     1      -4.747   1.959  24.969  0.00  0.00    +0.081 A 
ATOM     11  C   UNL     1      -4.826   1.137  25.009  0.00  0.00    +0.015 A 
ATOM     12  C   UNL     1      -5.576   0.797  25.048  0.00  0.00    +0.001 A 
ATOM     13  C   UNL     1      -6.248   1.278  25.047  0.00  0.00    +0.000 A 
ATOM     14  C   UNL     1      -6.168   2.099  25.006  0.00  0.00    +0.002 A 
ATOM     15  C   UNL     1      -5.417   2.439  24.967  0.00  0.00    +0.019 A 
ATOM     16  C   UNL     1      -2.715   1.257  24.938  0.00  0.00    +0.100 C 
ATOM     17  C   UNL     1      -2.168   1.873  24.893  0.00  0.00    +0.040 C 
ATOM     18  C   UNL     1      -1.361   1.707  24.875  0.00  0.00    +0.076 C 
ATOM     19  C   UNL     1      -1.100   0.924  24.904  0.00  0.00    +0.038 C 
ATOM     20  C   UNL     1      -1.647   0.309  24.949  0.00  0.00    +0.082 C 
ATOM     21  N   UNL     1      -2.454   0.475  24.966  0.00  0.00    -0.258 NA
ENDROOT
BRANCH  20  22
ATOM     22  C   UNL     1      -1.385  -0.473  24.977  0.00  0.00    -0.008 A 
ATOM     23  C   UNL     1      -1.290  -0.902  24.279  0.00  0.00    -0.003 A 
ATOM     24  C   UNL     1      -1.028  -1.684  24.308  0.00  0.00    -0.000 A 
ATOM     25  C   UNL     1      -0.862  -2.037  25.036  0.00  0.00    -0.000 A 
ATOM     26  C   UNL     1      -0.957  -1.608  25.733  0.00  0.00    -0.000 A 
ATOM     27  C   UNL     1      -1.219  -0.826  25.704  0.00  0.00    -0.003 A 
ENDBRANCH  20  22
BRANCH   5   3
ATOM      3  C   UNL     1      -2.741  -0.923  25.040  0.00  0.00    +0.332 C 
ATOM      4  O   UNL     1      -2.260  -1.565  24.844  0.00  0.00    -0.249 OA
BRANCH   3   2
ATOM      1  C   UNL     1      -3.626  -2.033  25.191  0.00  0.00    +0.256 C 
ATOM      2  O   UNL     1      -3.125  -1.470  25.523  0.00  0.00    -0.443 OA
ENDBRANCH   3   2
ENDBRANCH   5   3
BRANCH  18  28
ATOM     28  N   UNL     1      -0.813   2.323  24.830  0.00  0.00    -0.217 NA
BRANCH  28  29
ATOM     29  C   UNL     1      -0.896   2.984  25.316  0.00  0.00    +0.112 C 
BRANCH  29  30
ATOM     30  C   UNL     1      -0.652   3.726  25.048  0.00  0.00    +0.134 C 
BRANCH  30  31
ATOM     31  N   UNL     1      -1.091   4.397  25.240  0.00  0.00    -0.204 NA
ATOM     32  C   UNL     1      -0.929   5.115  24.866  0.00  0.00    +0.242 C 
ATOM     33  C   UNL     1      -1.368   5.788  25.057  0.00  0.00    +0.096 C 
ATOM     34  O   UNL     1      -0.329   5.161  24.302  0.00  0.00    -0.273 OA
ENDBRANCH  30  31
ENDBRANCH  29  30
ENDBRANCH  28  29
ENDBRANCH  18  28
TORSDOF 7
ENDMDL
MODEL 7
REMARK VINA RESULT:     -10.7      2.236      4.049
REMARK  Name = 
REMARK  7 active torsions:
REMARK  status: ('A' for Active; 'I' for Inactive)
REMARK    1  A    between atoms: O_2  and  C_3
REMARK    2  A    between atoms: C_3  and  C_5
REMARK    3  A    between atoms: C_18  and  N_28
REMARK    4  A    between atoms: C_20  and  C_22
REMARK    5  A    between atoms: N_28  and  C_29
REMARK    6  A    between atoms: C_29  and  C_30
REMARK    7  A    between atoms: C_30  and  N_31
REMARK                            x       y       z     vdW  Elec       q    Type
REMARK                         _______ _______ _______ _____ _____    ______ ____
ROOT
ATOM      5  C   UNL     1      -2.604   2.952  25.173  0.00  0.00    +0.162 C 
ATOM      6  C   UNL     1      -3.387   3.174  25.303  0.00  0.00    +0.055 C 
ATOM      7  C   UNL     1      -3.992   2.619  25.218  0.00  0.00    -0.004 A 
ATOM      8  C   UNL     1      -3.814   1.843  25.002  0.00  0.00    +0.070 A 
ATOM      9  N   UNL     1      -4.521   1.421  24.961  0.00  0.00    -0.249 NA
ATOM     10  C   UNL     1      -5.138   1.936  25.150  0.00  0.00    +0.081 A 
ATOM     11  C   UNL     1      -4.810   2.677  25.309  0.00  0.00    +0.015 A 
ATOM     12  C   UNL     1      -5.300   3.308  25.516  0.00  0.00    +0.001 A 
ATOM     13  C   UNL     1      -6.117   3.199  25.564  0.00  0.00    +0.000 A 
ATOM     14  C   UNL     1      -6.444   2.457  25.405  0.00  0.00    +0.002 A 
ATOM     15  C   UNL     1      -5.954   1.826  25.198  0.00  0.00    +0.019 A 
ATOM     16  C   UNL     1      -3.030   1.621  24.873  0.00  0.00    +0.100 C 
ATOM     17  C   UNL     1      -2.851   0.845  24.658  0.00  0.00    +0.040 C 
ATOM     18  C   UNL     1      -2.068   0.623  24.528  0.00  0.00    +0.076 C 
ATOM     19  C   UNL     1      -1.462   1.178  24.613  0.00  0.00    +0.038 C 
ATOM     20  C   UNL     1      -1.642   1.953  24.828  0.00  0.00    +0.082 C 
ATOM     21  N   UNL     1      -2.425   2.175  24.958  0.00  0.00    -0.258 NA
ENDROOT
BRANCH  20  22
ATOM     22  C   UNL     1      -1.036   2.507  24.913  0.00  0.00    -0.008 A 
ATOM     23  C   UNL     1      -0.801   2.965  24.269  0.00  0.00    -0.003 A 
ATOM     24  C   UNL     1      -0.195   3.518  24.355  0.00  0.00    -0.000 A 
ATOM     25  C   UNL     1       0.176   3.614  25.086  0.00  0.00    -0.000 A 
ATOM     26  C   UNL     1      -0.059   3.157  25.730  0.00  0.00    -0.000 A 
ATOM     27  C   UNL     1      -0.665   2.603  25.644  0.00  0.00    -0.003 A 
ENDBRANCH  20  22
BRANCH   5   3
ATOM      3  C   UNL     1      -1.999   3.506  25.258  0.00  0.00    +0.332 C 
ATOM      4  O   UNL     1      -1.253   3.779  25.482  0.00  0.00    -0.249 OA
BRANCH   3   2
ATOM      1  C   UNL     1      -2.245   4.887  25.530  0.00  0.00    +0.256 C 
ATOM      2  O   UNL     1      -2.106   4.279  24.990  0.00  0.00    -0.443 OA
ENDBRANCH   3   2
ENDBRANCH   5   3
BRANCH  18  28
ATOM     28  N   UNL     1      -1.889  -0.153  24.313  0.00  0.00    -0.217 NA
BRANCH  28  29
ATOM     29  C   UNL     1      -2.042  -0.772  24.836  0.00  0.00    +0.112 C 
BRANCH  29  30
ATOM     30  C   UNL     1      -2.066  -1.550  24.560  0.00  0.00    +0.134 C 
BRANCH  30  31
ATOM     31  N   UNL     1      -2.725  -2.021  24.716  0.00  0.00    -0.204 NA
ATOM     32  C   UNL     1      -2.736  -2.807  24.465  0.00  0.00    +0.242 C 
ATOM     33  C   UNL     1      -3.394  -3.280  24.621  0.00  0.00    +0.096 C 
ATOM     34  O   UNL     1      -2.090  -3.121  24.059  0.00  0.00    -0.273 OA
ENDBRANCH  30  31
ENDBRANCH  29  30
ENDBRANCH  28  29
ENDBRANCH  18  28
TORSDOF 7
ENDMDL
