MODEL 1
REMARK VINA RESULT:     -13.6      0.000      0.000
REMARK  Name = 
REMARK  5 active torsions:
REMARK  status: ('A' for Active; 'I' for Inactive)
REMARK    1  A    between atoms: N_4  and  C_5
REMARK    2  A    between atoms: C_5  and  C_6
REMARK    3  A    between atoms: C_14  and  C_15
REMARK    4  A    between atoms: C_17  and  N_18
REMARK    5  A    between atoms: C_19  and  C_21
REMARK                            x       y       z     vdW  Elec       q    Type
REMARK                         _______ _______ _______ _____ _____    ______ ____
ROOT
ATOM      1  C   UNL     1      -4.092   3.195  23.388  0.00  0.00    +0.054 C 
ATOM      2  C   UNL     1      -3.724   3.268  24.122  0.00  0.00    +0.076 A 
ATOM      3  N   UNL     1      -3.293   3.920  24.386  0.00  0.00    -0.174 NA
ATOM      4  N   UNL     1      -3.025   3.757  25.150  0.00  0.00    -0.251 N 
ATOM     12  C   UNL     1      -3.289   3.005  25.357  0.00  0.00    +0.054 A 
ATOM     13  C   UNL     1      -3.147   2.621  26.073  0.00  0.00    +0.051 C 
ATOM     14  C   UNL     1      -3.721   2.702  24.722  0.00  0.00    +0.010 A 
ENDROOT
BRANCH  14  15
ATOM     15  C   UNL     1      -4.087   1.963  24.693  0.00  0.00    +0.048 C 
ATOM     16  C   UNL     1      -3.747   1.264  24.414  0.00  0.00    +0.035 C 
ATOM     17  C   UNL     1      -4.307   0.662  24.486  0.00  0.00    +0.118 C 
ATOM     27  C   UNL     1      -4.993   0.989  24.809  0.00  0.00    -0.009 C 
ATOM     28  C   UNL     1      -4.857   1.792  24.937  0.00  0.00    -0.025 C 
BRANCH  17  18
ATOM     18  N   UNL     1      -4.200  -0.128  24.273  0.00  0.00    -0.203 NA
ATOM     19  C   UNL     1      -4.023  -0.690  24.850  0.00  0.00    +0.241 C 
ATOM     20  O   UNL     1      -3.954  -0.464  25.640  0.00  0.00    -0.273 OA
BRANCH  19  21
ATOM     21  C   UNL     1      -3.916  -1.480  24.636  0.00  0.00    +0.078 C 
ATOM     22  C   UNL     1      -3.461  -1.977  25.111  0.00  0.00    +0.009 C 
ATOM     23  C   UNL     1      -3.353  -2.767  24.897  0.00  0.00    +0.000 C 
ATOM     24  C   UNL     1      -3.702  -3.059  24.209  0.00  0.00    +0.000 C 
ATOM     25  C   UNL     1      -4.158  -2.561  23.734  0.00  0.00    +0.000 C 
ATOM     26  C   UNL     1      -4.265  -1.772  23.948  0.00  0.00    +0.009 C 
ENDBRANCH  19  21
ENDBRANCH  17  18
ENDBRANCH  14  15
BRANCH   4   5
ATOM      5  C   UNL     1      -2.571   4.259  25.621  0.00  0.00    +0.153 C 
BRANCH   5   6
ATOM      6  C   UNL     1      -1.876   4.590  25.324  0.00  0.00    +0.002 A 
ATOM      7  C   UNL     1      -1.857   5.388  25.115  0.00  0.00    -0.002 A 
ATOM      8  C   UNL     1      -1.162   5.720  24.817  0.00  0.00    -0.000 A 
ATOM      9  C   UNL     1      -0.488   5.253  24.728  0.00  0.00    -0.000 A 
ATOM     10  C   UNL     1      -0.508   4.455  24.937  0.00  0.00    -0.000 A 
ATOM     11  C   UNL     1      -1.202   4.124  25.235  0.00  0.00    -0.002 A 
ENDBRANCH   5   6
ENDBRANCH   4   5
TORSDOF 5
ENDMDL
MODEL 2
REMARK VINA RESULT:     -12.6      1.018      5.695
REMARK  Name = 
REMARK  5 active torsions:
REMARK  status: ('A' for Active; 'I' for Inactive)
REMARK    1  A    between atoms: N_4  and  C_5
REMARK    2  A    between atoms: C_5  and  C_6
REMARK    3  A    between atoms: C_14  and  C_15
REMARK    4  A    between atoms: C_17  and  N_18
REMARK    5  A    between atoms: C_19  and  C_21
REMARK                            x       y       z     vdW  Elec       q    Type
REMARK                         _______ _______ _______ _____ _____    ______ ____
ROOT
ATOM      1  C   UNL     1      -5.032   0.761  25.550  0.00  0.00    +0.054 C 
ATOM      2  C   UNL     1      -4.580   0.477  24.921  0.00  0.00    +0.076 A 
ATOM      3  N   UNL     1      -4.513  -0.311  24.689  0.00  0.00    -0.174 NA
ATOM      4  N   UNL     1      -4.006  -0.344  24.038  0.00  0.00    -0.251 N 
ATOM     12  C   UNL     1      -3.760   0.424  23.868  0.00  0.00    +0.054 A 
ATOM     13  C   UNL     1      -3.250   0.646  23.260  0.00  0.00    +0.051 C 
ATOM     14  C   UNL     1      -4.114   0.932  24.414  0.00  0.00    +0.010 A 
ENDROOT
BRANCH  14  15
ATOM     15  C   UNL     1      -4.020   1.751  24.446  0.00  0.00    +0.048 C 
ATOM     16  C   UNL     1      -3.305   2.160  24.389  0.00  0.00    +0.035 C 
ATOM     17  C   UNL     1      -3.467   2.966  24.449  0.00  0.00    +0.118 C 
ATOM     27  C   UNL     1      -4.282   3.057  24.544  0.00  0.00    -0.009 C 
ATOM     28  C   UNL     1      -4.623   2.306  24.542  0.00  0.00    -0.025 C 
BRANCH  17  18
ATOM     18  N   UNL     1      -2.911   3.576  24.420  0.00  0.00    -0.203 NA
ATOM     19  C   UNL     1      -2.399   3.697  25.055  0.00  0.00    +0.241 C 
ATOM     20  O   UNL     1      -2.442   3.210  25.719  0.00  0.00    -0.273 OA
BRANCH  19  21
ATOM     21  C   UNL     1      -1.844   4.307  25.026  0.00  0.00    +0.078 C 
ATOM     22  C   UNL     1      -2.080   5.087  25.157  0.00  0.00    +0.009 C 
ATOM     23  C   UNL     1      -1.524   5.696  25.128  0.00  0.00    +0.000 C 
ATOM     24  C   UNL     1      -0.733   5.526  24.968  0.00  0.00    +0.000 C 
ATOM     25  C   UNL     1      -0.498   4.746  24.837  0.00  0.00    +0.000 C 
ATOM     26  C   UNL     1      -1.053   4.137  24.866  0.00  0.00    +0.009 C 
ENDBRANCH  19  21
ENDBRANCH  17  18
ENDBRANCH  14  15
BRANCH   4   5
ATOM      5  C   UNL     1      -3.786  -1.026  23.629  0.00  0.00    +0.153 C 
BRANCH   5   6
ATOM      6  C   UNL     1      -3.607  -1.716  24.044  0.00  0.00    +0.002 A 
ATOM      7  C   UNL     1      -4.144  -2.343  24.050  0.00  0.00    -0.002 A 
ATOM      8  C   UNL     1      -3.966  -3.034  24.465  0.00  0.00    -0.000 A 
ATOM      9  C   UNL     1      -3.252  -3.098  24.874  0.00  0.00    -0.000 A 
ATOM     10  C   UNL     1      -2.716  -2.471  24.867  0.00  0.00    -0.000 A 
ATOM     11  C   UNL     1      -2.894  -1.780  24.453  0.00  0.00    -0.002 A 
ENDBRANCH   5   6
ENDBRANCH   4   5
TORSDOF 5
ENDMDL
MODEL 3
REMARK VINA RESULT:     -12.3      1.927      6.123
REMARK  Name = 
REMARK  5 active torsions:
REMARK  status: ('A' for Active; 'I' for Inactive)
REMARK    1  A    between atoms: N_4  and  C_5
REMARK    2  A    between atoms: C_5  and  C_6
REMARK    3  A    between atoms: C_14  and  C_15
REMARK    4  A    between atoms: C_17  and  N_18
REMARK    5  A    between atoms: C_19  and  C_21
REMARK                            x       y       z     vdW  Elec       q    Type
REMARK                         _______ _______ _______ _____ _____    ______ ____
ROOT
ATOM      1  C   UNL     1      -0.563  -0.691  24.241  0.00  0.00    +0.054 C 
ATOM      2  C   UNL     1      -1.272  -0.713  24.662  0.00  0.00    +0.076 A 
ATOM      3  N   UNL     1      -1.793  -1.351  24.703  0.00  0.00    -0.174 NA
ATOM      4  N   UNL     1      -2.427  -1.132  25.183  0.00  0.00    -0.251 N 
ATOM     12  C   UNL     1      -2.299  -0.360  25.440  0.00  0.00    +0.054 A 
ATOM     13  C   UNL     1      -2.796   0.077  25.931  0.00  0.00    +0.051 C 
ATOM     14  C   UNL     1      -1.584  -0.100  25.118  0.00  0.00    +0.010 A 
ENDROOT
BRANCH  14  15
ATOM     15  C   UNL     1      -1.243   0.643  25.231  0.00  0.00    +0.048 C 
ATOM     16  C   UNL     1      -1.485   1.348  24.877  0.00  0.00    +0.035 C 
ATOM     17  C   UNL     1      -0.991   1.951  25.146  0.00  0.00    +0.118 C 
ATOM     27  C   UNL     1      -0.443   1.619  25.667  0.00  0.00    -0.009 C 
ATOM     28  C   UNL     1      -0.599   0.811  25.719  0.00  0.00    -0.025 C 
BRANCH  17  18
ATOM     18  N   UNL     1      -1.037   2.747  24.933  0.00  0.00    -0.203 NA
ATOM     19  C   UNL     1      -1.215   3.317  25.502  0.00  0.00    +0.241 C 
ATOM     20  O   UNL     1      -1.346   3.092  26.285  0.00  0.00    -0.273 OA
BRANCH  19  21
ATOM     21  C   UNL     1      -1.260   4.113  25.288  0.00  0.00    +0.078 C 
ATOM     22  C   UNL     1      -1.946   4.543  25.446  0.00  0.00    +0.009 C 
ATOM     23  C   UNL     1      -1.992   5.339  25.233  0.00  0.00    +0.000 C 
ATOM     24  C   UNL     1      -1.352   5.704  24.861  0.00  0.00    +0.000 C 
ATOM     25  C   UNL     1      -0.666   5.272  24.704  0.00  0.00    +0.000 C 
ATOM     26  C   UNL     1      -0.620   4.477  24.917  0.00  0.00    +0.009 C 
ENDBRANCH  19  21
ENDBRANCH  17  18
ENDBRANCH  14  15
BRANCH   4   5
ATOM      5  C   UNL     1      -3.076  -1.605  25.373  0.00  0.00    +0.153 C 
BRANCH   5   6
ATOM      6  C   UNL     1      -3.486  -2.003  24.778  0.00  0.00    +0.002 A 
ATOM      7  C   UNL     1      -3.340  -2.804  24.642  0.00  0.00    -0.002 A 
ATOM      8  C   UNL     1      -3.750  -3.202  24.046  0.00  0.00    -0.000 A 
ATOM      9  C   UNL     1      -4.305  -2.800  23.587  0.00  0.00    -0.000 A 
ATOM     10  C   UNL     1      -4.450  -1.999  23.724  0.00  0.00    -0.000 A 
ATOM     11  C   UNL     1      -4.041  -1.601  24.319  0.00  0.00    -0.002 A 
ENDBRANCH   5   6
ENDBRANCH   4   5
TORSDOF 5
ENDMDL
MODEL 4
REMARK VINA RESULT:     -11.7      1.910      2.390
REMARK  Name = 
REMARK  5 active torsions:
REMARK  status: ('A' for Active; 'I' for Inactive)
REMARK    1  A    between atoms: N_4  and  C_5
REMARK    2  A    between atoms: C_5  and  C_6
REMARK    3  A    between atoms: C_14  and  C_15
REMARK    4  A    between atoms: C_17  and  N_18
REMARK    5  A    between atoms: C_19  and  C_21
REMARK                            x       y       z     vdW  Elec       q    Type
REMARK                         _______ _______ _______ _____ _____    ______ ____
ROOT
ATOM      1  C   UNL     1      -0.941   1.773  23.168  0.00  0.00    +0.054 C 
ATOM      2  C   UNL     1      -0.850   2.029  23.946  0.00  0.00    +0.076 A 
ATOM      3  N   UNL     1      -0.731   2.808  24.190  0.00  0.00    -0.174 NA
ATOM      4  N   UNL     1      -0.671   2.812  25.013  0.00  0.00    -0.251 N 
ATOM     12  C   UNL     1      -0.752   2.036  25.278  0.00  0.00    +0.054 A 
ATOM     13  C   UNL     1      -0.728   1.787  26.064  0.00  0.00    +0.051 C 
ATOM     14  C   UNL     1      -0.864   1.552  24.619  0.00  0.00    +0.010 A 
ENDROOT
BRANCH  14  15
ATOM     15  C   UNL     1      -0.969   0.734  24.631  0.00  0.00    +0.048 C 
ATOM     16  C   UNL     1      -1.626   0.325  24.342  0.00  0.00    +0.035 C 
ATOM     17  C   UNL     1      -1.499  -0.481  24.466  0.00  0.00    +0.118 C 
ATOM     27  C   UNL     1      -0.765  -0.570  24.832  0.00  0.00    -0.009 C 
ATOM     28  C   UNL     1      -0.437   0.180  24.933  0.00  0.00    -0.025 C 
BRANCH  17  18
ATOM     18  N   UNL     1      -2.016  -1.090  24.261  0.00  0.00    -0.203 NA
ATOM     19  C   UNL     1      -2.668  -1.256  24.739  0.00  0.00    +0.241 C 
ATOM     20  O   UNL     1      -2.802  -0.814  25.422  0.00  0.00    -0.273 OA
BRANCH  19  21
ATOM     21  C   UNL     1      -3.185  -1.866  24.533  0.00  0.00    +0.078 C 
ATOM     22  C   UNL     1      -3.837  -1.709  24.052  0.00  0.00    +0.009 C 
ATOM     23  C   UNL     1      -4.354  -2.318  23.847  0.00  0.00    +0.000 C 
ATOM     24  C   UNL     1      -4.219  -3.084  24.123  0.00  0.00    +0.000 C 
ATOM     25  C   UNL     1      -3.567  -3.240  24.604  0.00  0.00    +0.000 C 
ATOM     26  C   UNL     1      -3.050  -2.632  24.809  0.00  0.00    +0.009 C 
ENDBRANCH  19  21
ENDBRANCH  17  18
ENDBRANCH  14  15
BRANCH   4   5
ATOM      5  C   UNL     1      -0.550   3.476  25.487  0.00  0.00    +0.153 C 
BRANCH   5   6
ATOM      6  C   UNL     1      -0.979   4.168  25.347  0.00  0.00    +0.002 A 
ATOM      7  C   UNL     1      -1.753   4.234  25.623  0.00  0.00    -0.002 A 
ATOM      8  C   UNL     1      -2.182   4.925  25.483  0.00  0.00    -0.000 A 
ATOM      9  C   UNL     1      -1.837   5.549  25.068  0.00  0.00    -0.000 A 
ATOM     10  C   UNL     1      -1.062   5.481  24.792  0.00  0.00    -0.000 A 
ATOM     11  C   UNL     1      -0.633   4.791  24.932  0.00  0.00    -0.002 A 
ENDBRANCH   5   6
ENDBRANCH   4   5
TORSDOF 5
ENDMDL
