MODEL 1
REMARK VINA RESULT:     -10.6      0.000      0.000
REMARK  Name = 
REMARK  9 active torsions:
REMARK  status: ('A' for Active; 'I' for Inactive)
REMARK    1  A    between atoms: O_2  and  C_3
REMARK    2  A    between atoms: C_3  and  C_4
REMARK    3  A    between atoms: C_4  and  O_5
REMARK    4  A    between atoms: O_5  and  C_6
REMARK    5  A    between atoms: C_8  and  C_12
REMARK    6  A    between atoms: C_15  and  C_17
REMARK    7  A    between atoms: N_21  and  C_22
REMARK    8  A    between atoms: C_22  and  C_23
REMARK    9  A    between atoms: C_25  and  O_26
REMARK                            x       y       z     vdW  Elec       q    Type
REMARK                         _______ _______ _______ _____ _____    ______ ____
ROOT
ATOM     12  C   UNL     1      -3.138   3.410  24.683  0.00  0.00    +0.221 A 
ATOM     13  N   UNL     1      -3.592   3.563  24.011  0.00  0.00    -0.054 NA
ATOM     14  O   UNL     1      -4.266   3.088  24.045  0.00  0.00    -0.336 OA
ATOM     15  C   UNL     1      -4.230   2.643  24.739  0.00  0.00    +0.251 A 
ATOM     16  N   UNL     1      -3.532   2.843  25.133  0.00  0.00    -0.188 NA
ENDROOT
BRANCH  12   8
ATOM      6  C   UNL     1      -1.015   3.657  25.125  0.00  0.00    +0.142 A 
ATOM      7  C   UNL     1      -1.736   3.303  24.936  0.00  0.00    +0.059 A 
ATOM      8  C   UNL     1      -2.417   3.764  24.873  0.00  0.00    +0.123 A 
ATOM      9  N   UNL     1      -2.378   4.578  24.998  0.00  0.00    -0.240 NA
ATOM     10  C   UNL     1      -1.658   4.932  25.187  0.00  0.00    +0.102 A 
ATOM     11  C   UNL     1      -0.976   4.472  25.251  0.00  0.00    +0.058 A 
BRANCH   6   5
ATOM      5  O   UNL     1      -0.333   3.198  25.188  0.00  0.00    -0.473 OA
BRANCH   5   4
ATOM      4  C   UNL     1      -0.108   2.705  24.566  0.00  0.00    +0.237 C 
BRANCH   4   3
ATOM      3  C   UNL     1       0.416   2.082  24.703  0.00  0.00    +0.189 C 
BRANCH   3   2
ATOM      1  C   UNL     1       0.930   1.081  23.822  0.00  0.00    +0.174 C 
ATOM      2  O   UNL     1       0.945   1.852  24.113  0.00  0.00    -0.347 OA
ENDBRANCH   3   2
ENDBRANCH   4   3
ENDBRANCH   5   4
ENDBRANCH   6   5
ENDBRANCH  12   8
BRANCH  15  17
ATOM     17  C   UNL     1      -4.791   2.095  24.994  0.00  0.00    +0.138 C 
ATOM     18  C   UNL     1      -5.498   2.270  25.381  0.00  0.00    +0.027 C 
ATOM     19  C   UNL     1      -5.889   1.559  25.533  0.00  0.00    +0.019 C 
ATOM     20  C   UNL     1      -5.422   0.945  25.240  0.00  0.00    +0.073 C 
ATOM     21  N   UNL     1      -4.744   1.276  24.907  0.00  0.00    -0.263 NA
BRANCH  21  22
ATOM     22  C   UNL     1      -4.127   0.861  24.549  0.00  0.00    +0.100 C 
BRANCH  22  23
ATOM     23  C   UNL     1      -4.027   0.057  24.704  0.00  0.00    -0.003 A 
ATOM     24  C   UNL     1      -4.263  -0.503  24.145  0.00  0.00    +0.034 A 
ATOM     25  C   UNL     1      -4.162  -1.306  24.299  0.00  0.00    +0.138 A 
ATOM     28  C   UNL     1      -3.827  -1.551  25.012  0.00  0.00    +0.037 A 
ATOM     29  C   UNL     1      -3.591  -0.992  25.571  0.00  0.00    +0.003 A 
ATOM     30  C   UNL     1      -3.691  -0.187  25.416  0.00  0.00    -0.003 A 
BRANCH  25  26
ATOM     26  O   UNL     1      -4.398  -1.866  23.741  0.00  0.00    -0.471 OA
ATOM     27  C   UNL     1      -4.105  -2.637  23.781  0.00  0.00    +0.252 C 
ENDBRANCH  25  26
ENDBRANCH  22  23
ENDBRANCH  21  22
ENDBRANCH  15  17
TORSDOF 9
ENDMDL
MODEL 2
REMARK VINA RESULT:     -10.5      1.786      3.752
REMARK  Name = 
REMARK  9 active torsions:
REMARK  status: ('A' for Active; 'I' for Inactive)
REMARK    1  A    between atoms: O_2  and  C_3
REMARK    2  A    between atoms: C_3  and  C_4
REMARK    3  A    between atoms: C_4  and  O_5
REMARK    4  A    between atoms: O_5  and  C_6
REMARK    5  A    between atoms: C_8  and  C_12
REMARK    6  A    between atoms: C_15  and  C_17
REMARK    7  A    between atoms: N_21  and  C_22
REMARK    8  A    between atoms: C_22  and  C_23
REMARK    9  A    between atoms: C_25  and  O_26
REMARK                            x       y       z     vdW  Elec       q    Type
REMARK                         _______ _______ _______ _____ _____    ______ ____
ROOT
ATOM     12  C   UNL     1      -0.783   2.564  25.278  0.00  0.00    +0.221 A 
ATOM     13  N   UNL     1      -0.300   2.242  25.866  0.00  0.00    -0.054 NA
ATOM     14  O   UNL     1      -0.015   1.517  25.593  0.00  0.00    -0.336 OA
ATOM     15  C   UNL     1      -0.322   1.390  24.838  0.00  0.00    +0.251 A 
ATOM     16  N   UNL     1      -0.797   2.037  24.643  0.00  0.00    -0.188 NA
ENDROOT
BRANCH  12   8
ATOM      6  C   UNL     1      -2.352   4.034  25.652  0.00  0.00    +0.142 A 
ATOM      7  C   UNL     1      -1.953   3.313  25.611  0.00  0.00    +0.059 A 
ATOM      8  C   UNL     1      -1.182   3.285  25.320  0.00  0.00    +0.123 A 
ATOM      9  N   UNL     1      -0.809   3.976  25.070  0.00  0.00    -0.240 NA
ATOM     10  C   UNL     1      -1.208   4.697  25.111  0.00  0.00    +0.102 A 
ATOM     11  C   UNL     1      -1.979   4.727  25.402  0.00  0.00    +0.058 A 
BRANCH   6   5
ATOM      5  O   UNL     1      -3.123   4.063  25.943  0.00  0.00    -0.473 OA
BRANCH   5   4
ATOM      4  C   UNL     1      -3.746   3.761  25.494  0.00  0.00    +0.237 C 
BRANCH   4   3
ATOM      3  C   UNL     1      -4.491   3.665  25.835  0.00  0.00    +0.189 C 
BRANCH   3   2
ATOM      1  C   UNL     1      -5.679   2.913  25.579  0.00  0.00    +0.174 C 
ATOM      2  O   UNL     1      -5.144   3.501  25.358  0.00  0.00    -0.347 OA
ENDBRANCH   3   2
ENDBRANCH   4   3
ENDBRANCH   5   4
ENDBRANCH   6   5
ENDBRANCH  12   8
BRANCH  15  17
ATOM     17  C   UNL     1      -0.180   0.733  24.360  0.00  0.00    +0.138 C 
ATOM     18  C   UNL     1       0.341   0.701  23.722  0.00  0.00    +0.027 C 
ATOM     19  C   UNL     1       0.309  -0.060  23.404  0.00  0.00    +0.019 C 
ATOM     20  C   UNL     1      -0.232  -0.498  23.846  0.00  0.00    +0.073 C 
ATOM     21  N   UNL     1      -0.535  -0.008  24.437  0.00  0.00    -0.263 NA
BRANCH  21  22
ATOM     22  C   UNL     1      -1.093  -0.222  25.005  0.00  0.00    +0.100 C 
BRANCH  22  23
ATOM     23  C   UNL     1      -1.593  -0.864  24.871  0.00  0.00    -0.003 A 
ATOM     24  C   UNL     1      -2.369  -0.737  24.618  0.00  0.00    +0.034 A 
ATOM     25  C   UNL     1      -2.869  -1.379  24.484  0.00  0.00    +0.138 A 
ATOM     28  C   UNL     1      -2.595  -2.148  24.602  0.00  0.00    +0.037 A 
ATOM     29  C   UNL     1      -1.819  -2.275  24.854  0.00  0.00    +0.003 A 
ATOM     30  C   UNL     1      -1.319  -1.632  24.989  0.00  0.00    -0.003 A 
BRANCH  25  26
ATOM     26  O   UNL     1      -3.645  -1.252  24.232  0.00  0.00    -0.471 OA
ATOM     27  C   UNL     1      -4.106  -1.889  23.984  0.00  0.00    +0.252 C 
ENDBRANCH  25  26
ENDBRANCH  22  23
ENDBRANCH  21  22
ENDBRANCH  15  17
TORSDOF 9
ENDMDL
MODEL 3
REMARK VINA RESULT:     -10.2      1.806      4.468
REMARK  Name = 
REMARK  9 active torsions:
REMARK  status: ('A' for Active; 'I' for Inactive)
REMARK    1  A    between atoms: O_2  and  C_3
REMARK    2  A    between atoms: C_3  and  C_4
REMARK    3  A    between atoms: C_4  and  O_5
REMARK    4  A    between atoms: O_5  and  C_6
REMARK    5  A    between atoms: C_8  and  C_12
REMARK    6  A    between atoms: C_15  and  C_17
REMARK    7  A    between atoms: N_21  and  C_22
REMARK    8  A    between atoms: C_22  and  C_23
REMARK    9  A    between atoms: C_25  and  O_26
REMARK                            x       y       z     vdW  Elec       q    Type
REMARK                         _______ _______ _______ _____ _____    ______ ____
ROOT
ATOM     12  C   UNL     1      -0.333   1.702  24.967  0.00  0.00    +0.221 A 
ATOM     13  N   UNL     1       0.004   1.922  25.687  0.00  0.00    -0.054 NA
ATOM     14  O   UNL     1      -0.250   2.687  25.865  0.00  0.00    -0.336 OA
ATOM     15  C   UNL     1      -0.744   2.940  25.254  0.00  0.00    +0.251 A 
ATOM     16  N   UNL     1      -0.795   2.331  24.699  0.00  0.00    -0.188 NA
ENDROOT
BRANCH  12   8
ATOM      6  C   UNL     1      -0.491  -0.421  24.485  0.00  0.00    +0.142 A 
ATOM      7  C   UNL     1      -0.597   0.301  24.870  0.00  0.00    +0.059 A 
ATOM      8  C   UNL     1      -0.227   0.980  24.582  0.00  0.00    +0.123 A 
ATOM      9  N   UNL     1       0.249   0.937  23.910  0.00  0.00    -0.240 NA
ATOM     10  C   UNL     1       0.355   0.215  23.525  0.00  0.00    +0.102 A 
ATOM     11  C   UNL     1      -0.014  -0.464  23.812  0.00  0.00    +0.058 A 
BRANCH   6   5
ATOM      5  O   UNL     1      -0.860  -1.100  24.772  0.00  0.00    -0.473 OA
BRANCH   5   4
ATOM      4  C   UNL     1      -1.571  -1.355  24.441  0.00  0.00    +0.237 C 
BRANCH   4   3
ATOM      3  C   UNL     1      -1.971  -1.999  24.768  0.00  0.00    +0.189 C 
BRANCH   3   2
ATOM      1  C   UNL     1      -3.277  -2.577  24.797  0.00  0.00    +0.174 C 
ATOM      2  O   UNL     1      -2.616  -2.327  24.372  0.00  0.00    -0.347 OA
ENDBRANCH   3   2
ENDBRANCH   4   3
ENDBRANCH   5   4
ENDBRANCH   6   5
ENDBRANCH  12   8
BRANCH  15  17
ATOM     17  C   UNL     1      -1.120   3.672  25.206  0.00  0.00    +0.138 C 
ATOM     18  C   UNL     1      -0.788   4.369  24.915  0.00  0.00    +0.027 C 
ATOM     19  C   UNL     1      -1.358   4.965  24.969  0.00  0.00    +0.019 C 
ATOM     20  C   UNL     1      -2.040   4.635  25.294  0.00  0.00    +0.073 C 
ATOM     21  N   UNL     1      -1.894   3.836  25.440  0.00  0.00    -0.263 NA
BRANCH  21  22
ATOM     22  C   UNL     1      -2.427   3.297  25.764  0.00  0.00    +0.100 C 
BRANCH  22  23
ATOM     23  C   UNL     1      -3.238   3.407  25.662  0.00  0.00    -0.003 A 
ATOM     24  C   UNL     1      -3.647   2.964  25.099  0.00  0.00    +0.034 A 
ATOM     25  C   UNL     1      -4.458   3.074  24.997  0.00  0.00    +0.138 A 
ATOM     28  C   UNL     1      -4.861   3.627  25.458  0.00  0.00    +0.037 A 
ATOM     29  C   UNL     1      -4.452   4.070  26.021  0.00  0.00    +0.003 A 
ATOM     30  C   UNL     1      -3.641   3.960  26.123  0.00  0.00    -0.003 A 
BRANCH  25  26
ATOM     26  O   UNL     1      -4.868   2.631  24.434  0.00  0.00    -0.471 OA
ATOM     27  C   UNL     1      -5.431   2.078  24.675  0.00  0.00    +0.252 C 
ENDBRANCH  25  26
ENDBRANCH  22  23
ENDBRANCH  21  22
ENDBRANCH  15  17
TORSDOF 9
ENDMDL
MODEL 4
REMARK VINA RESULT:      -9.9      1.576      3.445
REMARK  Name = 
REMARK  9 active torsions:
REMARK  status: ('A' for Active; 'I' for Inactive)
REMARK    1  A    between atoms: O_2  and  C_3
REMARK    2  A    between atoms: C_3  and  C_4
REMARK    3  A    between atoms: C_4  and  O_5
REMARK    4  A    between atoms: O_5  and  C_6
REMARK    5  A    between atoms: C_8  and  C_12
REMARK    6  A    between atoms: C_15  and  C_17
REMARK    7  A    between atoms: N_21  and  C_22
REMARK    8  A    between atoms: C_22  and  C_23
REMARK    9  A    between atoms: C_25  and  O_26
REMARK                            x       y       z     vdW  Elec       q    Type
REMARK                         _______ _______ _______ _____ _____    ______ ____
ROOT
ATOM     12  C   UNL     1      -4.638   1.257  25.217  0.00  0.00    +0.221 A 
ATOM     13  N   UNL     1      -4.949   0.772  25.808  0.00  0.00    -0.054 NA
ATOM     14  O   UNL     1      -4.744  -0.008  25.631  0.00  0.00    -0.336 OA
ATOM     15  C   UNL     1      -4.308  -0.004  24.931  0.00  0.00    +0.251 A 
ATOM     16  N   UNL     1      -4.243   0.778  24.675  0.00  0.00    -0.188 NA
ENDROOT
BRANCH  12   8
ATOM      6  C   UNL     1      -4.153   3.355  24.864  0.00  0.00    +0.142 A 
ATOM      7  C   UNL     1      -4.080   2.535  24.905  0.00  0.00    +0.059 A 
ATOM      8  C   UNL     1      -4.711   2.078  25.176  0.00  0.00    +0.123 A 
ATOM      9  N   UNL     1      -5.415   2.441  25.405  0.00  0.00    -0.240 NA
ATOM     10  C   UNL     1      -5.488   3.262  25.364  0.00  0.00    +0.102 A 
ATOM     11  C   UNL     1      -4.858   3.719  25.093  0.00  0.00    +0.058 A 
BRANCH   6   5
ATOM      5  O   UNL     1      -3.522   3.813  24.594  0.00  0.00    -0.473 OA
BRANCH   5   4
ATOM      4  C   UNL     1      -2.908   4.015  25.107  0.00  0.00    +0.237 C 
BRANCH   4   3
ATOM      3  C   UNL     1      -2.225   4.372  24.812  0.00  0.00    +0.189 C 
BRANCH   3   2
ATOM      1  C   UNL     1      -0.962   4.997  25.048  0.00  0.00    +0.174 C 
ATOM      2  O   UNL     1      -1.687   4.722  25.329  0.00  0.00    -0.347 OA
ENDBRANCH   3   2
ENDBRANCH   4   3
ENDBRANCH   5   4
ENDBRANCH   6   5
ENDBRANCH  12   8
BRANCH  15  17
ATOM     17  C   UNL     1      -3.992  -0.666  24.552  0.00  0.00    +0.138 C 
ATOM     18  C   UNL     1      -4.386  -1.148  24.010  0.00  0.00    +0.027 C 
ATOM     19  C   UNL     1      -3.864  -1.742  23.772  0.00  0.00    +0.019 C 
ATOM     20  C   UNL     1      -3.149  -1.627  24.167  0.00  0.00    +0.073 C 
ATOM     21  N   UNL     1      -3.228  -0.962  24.649  0.00  0.00    -0.263 NA
BRANCH  21  22
ATOM     22  C   UNL     1      -2.646  -0.648  25.142  0.00  0.00    +0.100 C 
BRANCH  22  23
ATOM     23  C   UNL     1      -1.852  -0.823  25.004  0.00  0.00    -0.003 A 
ATOM     24  C   UNL     1      -1.390  -0.313  24.548  0.00  0.00    +0.034 A 
ATOM     25  C   UNL     1      -0.596  -0.487  24.410  0.00  0.00    +0.138 A 
ATOM     28  C   UNL     1      -0.262  -1.171  24.729  0.00  0.00    +0.037 A 
ATOM     29  C   UNL     1      -0.723  -1.681  25.185  0.00  0.00    +0.003 A 
ATOM     30  C   UNL     1      -1.518  -1.506  25.323  0.00  0.00    -0.003 A 
BRANCH  25  26
ATOM     26  O   UNL     1      -0.134   0.023  23.954  0.00  0.00    -0.471 OA
ATOM     27  C   UNL     1       0.435  -0.284  23.442  0.00  0.00    +0.252 C 
ENDBRANCH  25  26
ENDBRANCH  22  23
ENDBRANCH  21  22
ENDBRANCH  15  17
TORSDOF 9
ENDMDL
MODEL 5
REMARK VINA RESULT:      -9.8      1.435      4.519
REMARK  Name = 
REMARK  9 active torsions:
REMARK  status: ('A' for Active; 'I' for Inactive)
REMARK    1  A    between atoms: O_2  and  C_3
REMARK    2  A    between atoms: C_3  and  C_4
REMARK    3  A    between atoms: C_4  and  O_5
REMARK    4  A    between atoms: O_5  and  C_6
REMARK    5  A    between atoms: C_8  and  C_12
REMARK    6  A    between atoms: C_15  and  C_17
REMARK    7  A    between atoms: N_21  and  C_22
REMARK    8  A    between atoms: C_22  and  C_23
REMARK    9  A    between atoms: C_25  and  O_26
REMARK                            x       y       z     vdW  Elec       q    Type
REMARK                         _______ _______ _______ _____ _____    ______ ____
ROOT
ATOM     12  C   UNL     1      -4.201   0.234  24.722  0.00  0.00    +0.221 A 
ATOM     13  N   UNL     1      -4.676   0.498  25.344  0.00  0.00    -0.054 NA
ATOM     14  O   UNL     1      -4.717   1.322  25.301  0.00  0.00    -0.336 OA
ATOM     15  C   UNL     1      -4.268   1.566  24.653  0.00  0.00    +0.251 A 
ATOM     16  N   UNL     1      -3.949   0.894  24.296  0.00  0.00    -0.188 NA
ENDROOT
BRANCH  12   8
ATOM      6  C   UNL     1      -3.115  -1.658  24.671  0.00  0.00    +0.142 A 
ATOM      7  C   UNL     1      -3.305  -0.872  24.837  0.00  0.00    +0.059 A 
ATOM      8  C   UNL     1      -4.012  -0.551  24.557  0.00  0.00    +0.123 A 
ATOM      9  N   UNL     1      -4.528  -1.015  24.113  0.00  0.00    -0.240 NA
ATOM     10  C   UNL     1      -4.339  -1.801  23.948  0.00  0.00    +0.102 A 
ATOM     11  C   UNL     1      -3.633  -2.123  24.226  0.00  0.00    +0.058 A 
BRANCH   6   5
ATOM      5  O   UNL     1      -2.409  -1.980  24.950  0.00  0.00    -0.473 OA
BRANCH   5   4
ATOM      4  C   UNL     1      -1.686  -1.672  24.697  0.00  0.00    +0.237 C 
BRANCH   4   3
ATOM      3  C   UNL     1      -0.982  -1.961  25.016  0.00  0.00    +0.189 C 
BRANCH   3   2
ATOM      1  C   UNL     1       0.141  -1.261  24.474  0.00  0.00    +0.174 C 
ATOM      2  O   UNL     1      -0.338  -1.455  25.117  0.00  0.00    -0.347 OA
ENDBRANCH   3   2
ENDBRANCH   4   3
ENDBRANCH   5   4
ENDBRANCH   6   5
ENDBRANCH  12   8
BRANCH  15  17
ATOM     17  C   UNL     1      -4.158   2.345  24.406  0.00  0.00    +0.138 C 
ATOM     18  C   UNL     1      -4.640   2.760  23.881  0.00  0.00    +0.027 C 
ATOM     19  C   UNL     1      -4.326   3.518  23.790  0.00  0.00    +0.019 C 
ATOM     20  C   UNL     1      -3.650   3.571  24.260  0.00  0.00    +0.073 C 
ATOM     21  N   UNL     1      -3.546   2.846  24.640  0.00  0.00    -0.263 NA
BRANCH  21  22
ATOM     22  C   UNL     1      -2.936   2.656  25.163  0.00  0.00    +0.100 C 
BRANCH  22  23
ATOM     23  C   UNL     1      -2.235   3.089  25.153  0.00  0.00    -0.003 A 
ATOM     24  C   UNL     1      -1.588   2.817  24.717  0.00  0.00    +0.034 A 
ATOM     25  C   UNL     1      -0.886   3.250  24.708  0.00  0.00    +0.138 A 
ATOM     28  C   UNL     1      -0.830   3.954  25.134  0.00  0.00    +0.037 A 
ATOM     29  C   UNL     1      -1.476   4.226  25.569  0.00  0.00    +0.003 A 
ATOM     30  C   UNL     1      -2.178   3.793  25.579  0.00  0.00    -0.003 A 
BRANCH  25  26
ATOM     26  O   UNL     1      -0.240   2.979  24.272  0.00  0.00    -0.471 OA
ATOM     27  C   UNL     1       0.216   2.354  24.558  0.00  0.00    +0.252 C 
ENDBRANCH  25  26
ENDBRANCH  22  23
ENDBRANCH  21  22
ENDBRANCH  15  17
TORSDOF 9
ENDMDL
MODEL 6
REMARK VINA RESULT:      -9.7      1.516      4.303
REMARK  Name = 
REMARK  9 active torsions:
REMARK  status: ('A' for Active; 'I' for Inactive)
REMARK    1  A    between atoms: O_2  and  C_3
REMARK    2  A    between atoms: C_3  and  C_4
REMARK    3  A    between atoms: C_4  and  O_5
REMARK    4  A    between atoms: O_5  and  C_6
REMARK    5  A    between atoms: C_8  and  C_12
REMARK    6  A    between atoms: C_15  and  C_17
REMARK    7  A    between atoms: N_21  and  C_22
REMARK    8  A    between atoms: C_22  and  C_23
REMARK    9  A    between atoms: C_25  and  O_26
REMARK                            x       y       z     vdW  Elec       q    Type
REMARK                         _______ _______ _______ _____ _____    ______ ____
ROOT
ATOM     12  C   UNL     1      -4.059  -0.197  24.734  0.00  0.00    +0.221 A 
ATOM     13  N   UNL     1      -4.563  -0.061  24.095  0.00  0.00    -0.054 NA
ATOM     14  O   UNL     1      -4.920   0.675  24.204  0.00  0.00    -0.336 OA
ATOM     15  C   UNL     1      -4.637   0.994  24.911  0.00  0.00    +0.251 A 
ATOM     16  N   UNL     1      -4.105   0.454  25.238  0.00  0.00    -0.188 NA
ENDROOT
BRANCH  12   8
ATOM      6  C   UNL     1      -2.304  -1.467  24.998  0.00  0.00    +0.142 A 
ATOM      7  C   UNL     1      -2.771  -0.796  24.883  0.00  0.00    +0.059 A 
ATOM      8  C   UNL     1      -3.592  -0.867  24.849  0.00  0.00    +0.123 A 
ATOM      9  N   UNL     1      -3.946  -1.607  24.930  0.00  0.00    -0.240 NA
ATOM     10  C   UNL     1      -3.479  -2.278  25.045  0.00  0.00    +0.102 A 
ATOM     11  C   UNL     1      -2.658  -2.208  25.079  0.00  0.00    +0.058 A 
BRANCH   6   5
ATOM      5  O   UNL     1      -1.483  -1.397  25.032  0.00  0.00    -0.473 OA
BRANCH   5   4
ATOM      4  C   UNL     1      -1.056  -1.205  24.353  0.00  0.00    +0.237 C 
BRANCH   4   3
ATOM      3  C   UNL     1      -0.304  -0.872  24.419  0.00  0.00    +0.189 C 
BRANCH   3   2
ATOM      1  C   UNL     1       0.540  -0.152  23.518  0.00  0.00    +0.174 C 
ATOM      2  O   UNL     1       0.201  -0.862  23.766  0.00  0.00    -0.347 OA
ENDBRANCH   3   2
ENDBRANCH   4   3
ENDBRANCH   5   4
ENDBRANCH   6   5
ENDBRANCH  12   8
BRANCH  15  17
ATOM     17  C   UNL     1      -4.848   1.723  25.233  0.00  0.00    +0.138 C 
ATOM     18  C   UNL     1      -5.514   1.873  25.698  0.00  0.00    +0.027 C 
ATOM     19  C   UNL     1      -5.508   2.673  25.900  0.00  0.00    +0.019 C 
ATOM     20  C   UNL     1      -4.840   3.017  25.560  0.00  0.00    +0.073 C 
ATOM     21  N   UNL     1      -4.432   2.430  25.148  0.00  0.00    -0.263 NA
BRANCH  21  22
ATOM     22  C   UNL     1      -3.731   2.532  24.726  0.00  0.00    +0.100 C 
BRANCH  22  23
ATOM     23  C   UNL     1      -3.193   3.114  24.954  0.00  0.00    -0.003 A 
ATOM     24  C   UNL     1      -2.543   2.914  25.422  0.00  0.00    +0.034 A 
ATOM     25  C   UNL     1      -2.005   3.496  25.650  0.00  0.00    +0.138 A 
ATOM     28  C   UNL     1      -2.115   4.277  25.410  0.00  0.00    +0.037 A 
ATOM     29  C   UNL     1      -2.764   4.477  24.942  0.00  0.00    +0.003 A 
ATOM     30  C   UNL     1      -3.303   3.895  24.714  0.00  0.00    -0.003 A 
BRANCH  25  26
ATOM     26  O   UNL     1      -1.355   3.296  26.119  0.00  0.00    -0.471 OA
ATOM     27  C   UNL     1      -0.651   3.055  25.765  0.00  0.00    +0.252 C 
ENDBRANCH  25  26
ENDBRANCH  22  23
ENDBRANCH  21  22
ENDBRANCH  15  17
TORSDOF 9
ENDMDL
MODEL 7
REMARK VINA RESULT:      -9.5      2.147      4.203
REMARK  Name = 
REMARK  9 active torsions:
REMARK  status: ('A' for Active; 'I' for Inactive)
REMARK    1  A    between atoms: O_2  and  C_3
REMARK    2  A    between atoms: C_3  and  C_4
REMARK    3  A    between atoms: C_4  and  O_5
REMARK    4  A    between atoms: O_5  and  C_6
REMARK    5  A    between atoms: C_8  and  C_12
REMARK    6  A    between atoms: C_15  and  C_17
REMARK    7  A    between atoms: N_21  and  C_22
REMARK    8  A    between atoms: C_22  and  C_23
REMARK    9  A    between atoms: C_25  and  O_26
REMARK                            x       y       z     vdW  Elec       q    Type
REMARK                         _______ _______ _______ _____ _____    ______ ____
ROOT
ATOM     12  C   UNL     1      -0.381   1.590  24.976  0.00  0.00    +0.221 A 
ATOM     13  N   UNL     1      -0.110   1.771  25.734  0.00  0.00    -0.054 NA
ATOM     14  O   UNL     1      -0.375   2.529  25.925  0.00  0.00    -0.336 OA
ATOM     15  C   UNL     1      -0.811   2.815  25.286  0.00  0.00    +0.251 A 
ATOM     16  N   UNL     1      -0.814   2.235  24.699  0.00  0.00    -0.188 NA
ENDROOT
BRANCH  12   8
ATOM      6  C   UNL     1       0.444   0.165  23.543  0.00  0.00    +0.142 A 
ATOM      7  C   UNL     1       0.306   0.868  23.952  0.00  0.00    +0.059 A 
ATOM      8  C   UNL     1      -0.243   0.886  24.567  0.00  0.00    +0.123 A 
ATOM      9  N   UNL     1      -0.655   0.202  24.774  0.00  0.00    -0.240 NA
ATOM     10  C   UNL     1      -0.517  -0.501  24.365  0.00  0.00    +0.102 A 
ATOM     11  C   UNL     1       0.032  -0.520  23.750  0.00  0.00    +0.058 A 
BRANCH   6   5
ATOM      5  O   UNL     1       0.992   0.146  22.927  0.00  0.00    -0.473 OA
BRANCH   5   4
ATOM      4  C   UNL     1       1.799   0.101  23.095  0.00  0.00    +0.237 C 
BRANCH   4   3
ATOM      3  C   UNL     1       2.351   0.187  22.487  0.00  0.00    +0.189 C 
BRANCH   3   2
ATOM      1  C   UNL     1       3.720   0.597  22.487  0.00  0.00    +0.174 C 
ATOM      2  O   UNL     1       3.147   0.021  22.627  0.00  0.00    -0.347 OA
ENDBRANCH   3   2
ENDBRANCH   4   3
ENDBRANCH   5   4
ENDBRANCH   6   5
ENDBRANCH  12   8
BRANCH  15  17
ATOM     17  C   UNL     1      -1.178   3.552  25.241  0.00  0.00    +0.138 C 
ATOM     18  C   UNL     1      -0.830   4.252  24.974  0.00  0.00    +0.027 C 
ATOM     19  C   UNL     1      -1.395   4.852  25.022  0.00  0.00    +0.019 C 
ATOM     20  C   UNL     1      -2.091   4.523  25.319  0.00  0.00    +0.073 C 
ATOM     21  N   UNL     1      -1.957   3.720  25.454  0.00  0.00    -0.263 NA
BRANCH  21  22
ATOM     22  C   UNL     1      -2.506   3.180  25.750  0.00  0.00    +0.100 C 
BRANCH  22  23
ATOM     23  C   UNL     1      -3.312   3.305  25.633  0.00  0.00    -0.003 A 
ATOM     24  C   UNL     1      -3.727   2.843  25.090  0.00  0.00    +0.034 A 
ATOM     25  C   UNL     1      -4.534   2.968  24.973  0.00  0.00    +0.138 A 
ATOM     28  C   UNL     1      -4.926   3.556  25.399  0.00  0.00    +0.037 A 
ATOM     29  C   UNL     1      -4.512   4.018  25.943  0.00  0.00    +0.003 A 
ATOM     30  C   UNL     1      -3.705   3.892  26.059  0.00  0.00    -0.003 A 
BRANCH  25  26
ATOM     26  O   UNL     1      -4.949   2.506  24.430  0.00  0.00    -0.471 OA
ATOM     27  C   UNL     1      -5.528   1.982  24.693  0.00  0.00    +0.252 C 
ENDBRANCH  25  26
ENDBRANCH  22  23
ENDBRANCH  21  22
ENDBRANCH  15  17
TORSDOF 9
ENDMDL
MODEL 8
REMARK VINA RESULT:      -9.4      1.640      3.500
REMARK  Name = 
REMARK  9 active torsions:
REMARK  status: ('A' for Active; 'I' for Inactive)
REMARK    1  A    between atoms: O_2  and  C_3
REMARK    2  A    between atoms: C_3  and  C_4
REMARK    3  A    between atoms: C_4  and  O_5
REMARK    4  A    between atoms: O_5  and  C_6
REMARK    5  A    between atoms: C_8  and  C_12
REMARK    6  A    between atoms: C_15  and  C_17
REMARK    7  A    between atoms: N_21  and  C_22
REMARK    8  A    between atoms: C_22  and  C_23
REMARK    9  A    between atoms: C_25  and  O_26
REMARK                            x       y       z     vdW  Elec       q    Type
REMARK                         _______ _______ _______ _____ _____    ______ ____
ROOT
ATOM     12  C   UNL     1      -1.254   0.087  24.719  0.00  0.00    +0.221 A 
ATOM     13  N   UNL     1      -1.238  -0.509  25.289  0.00  0.00    -0.054 NA
ATOM     14  O   UNL     1      -1.968  -0.894  25.276  0.00  0.00    -0.336 OA
ATOM     15  C   UNL     1      -2.435  -0.535  24.699  0.00  0.00    +0.251 A 
ATOM     16  N   UNL     1      -1.994   0.071  24.354  0.00  0.00    -0.188 NA
ENDROOT
BRANCH  12   8
ATOM      6  C   UNL     1      -0.015   1.884  24.702  0.00  0.00    +0.142 A 
ATOM      7  C   UNL     1      -0.631   1.363  24.877  0.00  0.00    +0.059 A 
ATOM      8  C   UNL     1      -0.638   0.608  24.544  0.00  0.00    +0.123 A 
ATOM      9  N   UNL     1      -0.031   0.373  24.038  0.00  0.00    -0.240 NA
ATOM     10  C   UNL     1       0.584   0.894  23.864  0.00  0.00    +0.102 A 
ATOM     11  C   UNL     1       0.593   1.649  24.196  0.00  0.00    +0.058 A 
BRANCH   6   5
ATOM      5  O   UNL     1      -0.006   2.639  25.034  0.00  0.00    -0.473 OA
BRANCH   5   4
ATOM      4  C   UNL     1      -0.483   3.234  24.719  0.00  0.00    +0.237 C 
BRANCH   4   3
ATOM      3  C   UNL     1      -0.653   3.906  25.167  0.00  0.00    +0.189 C 
BRANCH   3   2
ATOM      1  C   UNL     1      -1.295   5.181  25.091  0.00  0.00    +0.174 C 
ATOM      2  O   UNL     1      -0.753   4.635  24.793  0.00  0.00    -0.347 OA
ENDBRANCH   3   2
ENDBRANCH   4   3
ENDBRANCH   5   4
ENDBRANCH   6   5
ENDBRANCH  12   8
BRANCH  15  17
ATOM     17  C   UNL     1      -3.208  -0.745  24.500  0.00  0.00    +0.138 C 
ATOM     18  C   UNL     1      -3.429  -1.373  24.013  0.00  0.00    +0.027 C 
ATOM     19  C   UNL     1      -4.254  -1.380  23.965  0.00  0.00    +0.019 C 
ATOM     20  C   UNL     1      -4.541  -0.757  24.422  0.00  0.00    +0.073 C 
ATOM     21  N   UNL     1      -3.894  -0.364  24.753  0.00  0.00    -0.263 NA
BRANCH  21  22
ATOM     22  C   UNL     1      -3.929   0.294  25.249  0.00  0.00    +0.100 C 
BRANCH  22  23
ATOM     23  C   UNL     1      -4.506   0.871  25.129  0.00  0.00    -0.003 A 
ATOM     24  C   UNL     1      -4.327   1.549  24.693  0.00  0.00    +0.034 A 
ATOM     25  C   UNL     1      -4.904   2.126  24.573  0.00  0.00    +0.138 A 
ATOM     28  C   UNL     1      -5.659   2.026  24.888  0.00  0.00    +0.037 A 
ATOM     29  C   UNL     1      -5.839   1.349  25.324  0.00  0.00    +0.003 A 
ATOM     30  C   UNL     1      -5.261   0.771  25.444  0.00  0.00    -0.003 A 
BRANCH  25  26
ATOM     26  O   UNL     1      -4.725   2.804  24.138  0.00  0.00    -0.471 OA
ATOM     27  C   UNL     1      -4.519   3.501  24.527  0.00  0.00    +0.252 C 
ENDBRANCH  25  26
ENDBRANCH  22  23
ENDBRANCH  21  22
ENDBRANCH  15  17
TORSDOF 9
ENDMDL
MODEL 9
REMARK VINA RESULT:      -9.4      1.174      4.422
REMARK  Name = 
REMARK  9 active torsions:
REMARK  status: ('A' for Active; 'I' for Inactive)
REMARK    1  A    between atoms: O_2  and  C_3
REMARK    2  A    between atoms: C_3  and  C_4
REMARK    3  A    between atoms: C_4  and  O_5
REMARK    4  A    between atoms: O_5  and  C_6
REMARK    5  A    between atoms: C_8  and  C_12
REMARK    6  A    between atoms: C_15  and  C_17
REMARK    7  A    between atoms: N_21  and  C_22
REMARK    8  A    between atoms: C_22  and  C_23
REMARK    9  A    between atoms: C_25  and  O_26
REMARK                            x       y       z     vdW  Elec       q    Type
REMARK                         _______ _______ _______ _____ _____    ______ ____
ROOT
ATOM     12  C   UNL     1      -4.083   3.376  25.710  0.00  0.00    +0.221 A 
ATOM     13  N   UNL     1      -4.030   3.831  26.396  0.00  0.00    -0.054 NA
ATOM     14  O   UNL     1      -3.310   4.234  26.380  0.00  0.00    -0.336 OA
ATOM     15  C   UNL     1      -2.919   4.029  25.683  0.00  0.00    +0.251 A 
ATOM     16  N   UNL     1      -3.397   3.499  25.269  0.00  0.00    -0.188 NA
ENDROOT
BRANCH  12   8
ATOM      6  C   UNL     1      -5.195   1.660  24.946  0.00  0.00    +0.142 A 
ATOM      7  C   UNL     1      -4.565   2.151  25.155  0.00  0.00    +0.059 A 
ATOM      8  C   UNL     1      -4.713   2.886  25.501  0.00  0.00    +0.123 A 
ATOM      9  N   UNL     1      -5.488   3.130  25.637  0.00  0.00    -0.240 NA
ATOM     10  C   UNL     1      -6.118   2.639  25.428  0.00  0.00    +0.102 A 
ATOM     11  C   UNL     1      -5.972   1.904  25.083  0.00  0.00    +0.058 A 
BRANCH   6   5
ATOM      5  O   UNL     1      -5.049   0.925  24.601  0.00  0.00    -0.473 OA
BRANCH   5   4
ATOM      4  C   UNL     1      -4.535   0.393  24.966  0.00  0.00    +0.237 C 
BRANCH   4   3
ATOM      3  C   UNL     1      -4.306  -0.295  24.570  0.00  0.00    +0.189 C 
BRANCH   3   2
ATOM      1  C   UNL     1      -3.494  -1.463  24.704  0.00  0.00    +0.174 C 
ATOM      2  O   UNL     1      -4.077  -0.960  25.001  0.00  0.00    -0.347 OA
ENDBRANCH   3   2
ENDBRANCH   4   3
ENDBRANCH   5   4
ENDBRANCH   6   5
ENDBRANCH  12   8
BRANCH  15  17
ATOM     17  C   UNL     1      -2.180   4.305  25.442  0.00  0.00    +0.138 C 
ATOM     18  C   UNL     1      -2.018   5.054  25.135  0.00  0.00    +0.027 C 
ATOM     19  C   UNL     1      -1.211   5.093  24.969  0.00  0.00    +0.019 C 
ATOM     20  C   UNL     1      -0.873   4.368  25.174  0.00  0.00    +0.073 C 
ATOM     21  N   UNL     1      -1.472   3.881  25.466  0.00  0.00    -0.263 NA
BRANCH  21  22
ATOM     22  C   UNL     1      -1.379   3.107  25.735  0.00  0.00    +0.100 C 
BRANCH  22  23
ATOM     23  C   UNL     1      -0.784   2.630  25.422  0.00  0.00    -0.003 A 
ATOM     24  C   UNL     1      -0.943   2.143  24.775  0.00  0.00    +0.034 A 
ATOM     25  C   UNL     1      -0.348   1.666  24.462  0.00  0.00    +0.138 A 
ATOM     28  C   UNL     1       0.407   1.676  24.795  0.00  0.00    +0.037 A 
ATOM     29  C   UNL     1       0.567   2.163  25.441  0.00  0.00    +0.003 A 
ATOM     30  C   UNL     1      -0.030   2.640  25.755  0.00  0.00    -0.003 A 
BRANCH  25  26
ATOM     26  O   UNL     1      -0.507   1.178  23.815  0.00  0.00    -0.471 OA
ATOM     27  C   UNL     1      -0.043   0.510  23.679  0.00  0.00    +0.252 C 
ENDBRANCH  25  26
ENDBRANCH  22  23
ENDBRANCH  21  22
ENDBRANCH  15  17
TORSDOF 9
ENDMDL
