MODEL 1
REMARK VINA RESULT:     -15.8      0.000      0.000
REMARK  Name = 
REMARK  4 active torsions:
REMARK  status: ('A' for Active; 'I' for Inactive)
REMARK    1  A    between atoms: O_2  and  C_3
REMARK    2  A    between atoms: C_6  and  N_7
REMARK    3  A    between atoms: C_19  and  N_20
REMARK    4  A    between atoms: C_21  and  C_23
REMARK                            x       y       z     vdW  Elec       q    Type
REMARK                         _______ _______ _______ _____ _____    ______ ____
ROOT
ATOM      7  N   UNL     1      -2.255  -0.166  24.531  0.00  0.00    -0.162 NA
ATOM      8  C   UNL     1      -1.698  -0.774  24.522  0.00  0.00    +0.327 C 
ATOM      9  O   UNL     1      -0.893  -0.596  24.507  0.00  0.00    -0.250 OA
ATOM     10  N   UNL     1      -1.946  -1.561  24.528  0.00  0.00    -0.262 N 
ATOM     11  C   UNL     1      -1.893  -2.395  24.528  0.00  0.00    +0.097 C 
ATOM     12  C   UNL     1      -2.855  -2.622  24.546  0.00  0.00    +0.043 C 
ATOM     13  C   UNL     1      -3.591  -2.970  24.561  0.00  0.00    +0.011 C 
ATOM     14  C   UNL     1      -3.324  -2.321  24.555  0.00  0.00    +0.058 C 
ATOM     15  C   UNL     1      -2.391  -2.118  24.537  0.00  0.00    +0.101 C 
ATOM     16  C   UNL     1      -3.577  -1.437  24.558  0.00  0.00    +0.041 A 
ATOM     17  C   UNL     1      -4.252  -0.964  24.570  0.00  0.00    +0.014 A 
ATOM     18  C   UNL     1      -4.180  -0.143  24.567  0.00  0.00    +0.023 A 
ATOM     19  C   UNL     1      -3.432   0.206  24.553  0.00  0.00    +0.130 A 
ATOM     29  C   UNL     1      -2.757  -0.267  24.541  0.00  0.00    +0.276 A 
ATOM     30  O   UNL     1      -2.357   0.454  24.532  0.00  0.00    -0.266 OA
ATOM     31  N   UNL     1      -2.829  -1.089  24.543  0.00  0.00    -0.298 N 
ATOM     32  C   UNL     1      -3.109  -1.696  24.550  0.00  0.00    +0.110 C 
ENDROOT
BRANCH   7   6
ATOM      3  C   UNL     1      -1.509   2.194  24.516  0.00  0.00    +0.139 A 
ATOM      4  C   UNL     1      -1.610   1.798  25.232  0.00  0.00    +0.038 A 
ATOM      5  C   UNL     1      -1.859   1.012  25.238  0.00  0.00    +0.020 A 
ATOM      6  C   UNL     1      -2.007   0.621  24.526  0.00  0.00    +0.075 A 
ATOM     33  C   UNL     1      -1.905   1.017  23.810  0.00  0.00    +0.020 A 
ATOM     34  C   UNL     1      -1.656   1.803  23.804  0.00  0.00    +0.038 A 
BRANCH   3   2
ATOM      1  C   UNL     1      -0.455   3.158  24.472  0.00  0.00    +0.252 C 
ATOM      2  O   UNL     1      -1.260   2.981  24.510  0.00  0.00    -0.471 OA
ENDBRANCH   3   2
ENDBRANCH   7   6
BRANCH  19  20
ATOM     20  N   UNL     1      -3.361   1.028  24.550  0.00  0.00    -0.169 NA
ATOM     21  C   UNL     1      -4.037   1.501  24.570  0.00  0.00    +0.287 C 
ATOM     22  O   UNL     1      -4.784   1.152  24.592  0.00  0.00    -0.266 OA
BRANCH  21  23
ATOM     23  C   UNL     1      -3.965   2.323  24.567  0.00  0.00    +0.136 A 
ATOM     24  N   UNL     1      -3.890   2.733  25.279  0.00  0.00    -0.239 NA
ATOM     25  C   UNL     1      -3.818   3.555  25.276  0.00  0.00    +0.099 A 
ATOM     26  C   UNL     1      -3.821   3.967  24.562  0.00  0.00    +0.021 A 
ATOM     27  C   UNL     1      -3.896   3.557  23.849  0.00  0.00    +0.003 A 
ATOM     28  C   UNL     1      -3.968   2.734  23.852  0.00  0.00    +0.024 A 
ENDBRANCH  21  23
ENDBRANCH  19  20
TORSDOF 4
ENDMDL
MODEL 2
REMARK VINA RESULT:     -15.2      0.983      2.299
REMARK  Name = 
REMARK  4 active torsions:
REMARK  status: ('A' for Active; 'I' for Inactive)
REMARK    1  A    between atoms: O_2  and  C_3
REMARK    2  A    between atoms: C_6  and  N_7
REMARK    3  A    between atoms: C_19  and  N_20
REMARK    4  A    between atoms: C_21  and  C_23
REMARK                            x       y       z     vdW  Elec       q    Type
REMARK                         _______ _______ _______ _____ _____    ______ ____
ROOT
ATOM      7  N   UNL     1      -3.336   0.053  24.373  0.00  0.00    -0.162 NA
ATOM      8  C   UNL     1      -4.021  -0.358  24.165  0.00  0.00    +0.327 C 
ATOM      9  O   UNL     1      -4.693   0.055  23.924  0.00  0.00    -0.250 OA
ATOM     10  N   UNL     1      -4.034  -1.182  24.198  0.00  0.00    -0.262 N 
ATOM     11  C   UNL     1      -4.332  -1.960  24.135  0.00  0.00    +0.097 C 
ATOM     12  C   UNL     1      -3.534  -2.467  24.422  0.00  0.00    +0.043 C 
ATOM     13  C   UNL     1      -2.975  -3.021  24.633  0.00  0.00    +0.011 C 
ATOM     14  C   UNL     1      -3.021  -2.322  24.586  0.00  0.00    +0.058 C 
ATOM     15  C   UNL     1      -3.800  -1.847  24.306  0.00  0.00    +0.101 C 
ATOM     16  C   UNL     1      -2.528  -1.557  24.714  0.00  0.00    +0.041 A 
ATOM     17  C   UNL     1      -1.777  -1.312  24.952  0.00  0.00    +0.014 A 
ATOM     18  C   UNL     1      -1.595  -0.507  24.975  0.00  0.00    +0.023 A 
ATOM     19  C   UNL     1      -2.164   0.051  24.761  0.00  0.00    +0.130 A 
ATOM     29  C   UNL     1      -2.915  -0.195  24.524  0.00  0.00    +0.276 A 
ATOM     30  O   UNL     1      -3.058   0.613  24.440  0.00  0.00    -0.266 OA
ATOM     31  N   UNL     1      -3.097  -0.999  24.500  0.00  0.00    -0.298 N 
ATOM     32  C   UNL     1      -3.027  -1.663  24.554  0.00  0.00    +0.110 C 
ENDROOT
BRANCH   7   6
ATOM      3  C   UNL     1      -3.300   2.526  24.274  0.00  0.00    +0.139 A 
ATOM      4  C   UNL     1      -3.533   2.145  24.967  0.00  0.00    +0.038 A 
ATOM      5  C   UNL     1      -3.545   1.320  25.000  0.00  0.00    +0.020 A 
ATOM      6  C   UNL     1      -3.324   0.877  24.339  0.00  0.00    +0.075 A 
ATOM     33  C   UNL     1      -3.091   1.259  23.647  0.00  0.00    +0.020 A 
ATOM     34  C   UNL     1      -3.079   2.083  23.613  0.00  0.00    +0.038 A 
BRANCH   3   2
ATOM      1  C   UNL     1      -3.986   3.768  24.105  0.00  0.00    +0.252 C 
ATOM      2  O   UNL     1      -3.288   3.350  24.241  0.00  0.00    -0.471 OA
ENDBRANCH   3   2
ENDBRANCH   7   6
BRANCH  19  20
ATOM     20  N   UNL     1      -1.981   0.855  24.785  0.00  0.00    -0.169 NA
ATOM     21  C   UNL     1      -1.231   1.101  25.022  0.00  0.00    +0.287 C 
ATOM     22  O   UNL     1      -0.662   0.542  25.236  0.00  0.00    -0.266 OA
BRANCH  21  23
ATOM     23  C   UNL     1      -1.048   1.906  25.046  0.00  0.00    +0.136 A 
ATOM     24  N   UNL     1      -0.767   2.285  24.370  0.00  0.00    -0.239 NA
ATOM     25  C   UNL     1      -0.585   3.089  24.394  0.00  0.00    +0.099 A 
ATOM     26  C   UNL     1      -0.684   3.514  25.093  0.00  0.00    +0.021 A 
ATOM     27  C   UNL     1      -0.965   3.135  25.770  0.00  0.00    +0.003 A 
ATOM     28  C   UNL     1      -1.148   2.330  25.747  0.00  0.00    +0.024 A 
ENDBRANCH  21  23
ENDBRANCH  19  20
TORSDOF 4
ENDMDL
MODEL 3
REMARK VINA RESULT:     -15.1      1.373      4.164
REMARK  Name = 
REMARK  4 active torsions:
REMARK  status: ('A' for Active; 'I' for Inactive)
REMARK    1  A    between atoms: O_2  and  C_3
REMARK    2  A    between atoms: C_6  and  N_7
REMARK    3  A    between atoms: C_19  and  N_20
REMARK    4  A    between atoms: C_21  and  C_23
REMARK                            x       y       z     vdW  Elec       q    Type
REMARK                         _______ _______ _______ _____ _____    ______ ____
ROOT
ATOM      7  N   UNL     1      -1.347   2.121  25.012  0.00  0.00    -0.162 NA
ATOM      8  C   UNL     1      -0.653   2.565  25.071  0.00  0.00    +0.327 C 
ATOM      9  O   UNL     1       0.080   2.186  25.073  0.00  0.00    -0.250 OA
ATOM     10  N   UNL     1      -0.693   3.387  25.129  0.00  0.00    -0.262 N 
ATOM     11  C   UNL     1      -0.429   4.177  25.196  0.00  0.00    +0.097 C 
ATOM     12  C   UNL     1      -1.301   4.643  25.195  0.00  0.00    +0.043 C 
ATOM     13  C   UNL     1      -1.924   5.167  25.208  0.00  0.00    +0.011 C 
ATOM     14  C   UNL     1      -1.831   4.473  25.162  0.00  0.00    +0.058 C 
ATOM     15  C   UNL     1      -0.981   4.037  25.164  0.00  0.00    +0.101 C 
ATOM     16  C   UNL     1      -2.300   3.686  25.086  0.00  0.00    +0.041 A 
ATOM     17  C   UNL     1      -3.073   3.404  25.035  0.00  0.00    +0.014 A 
ATOM     18  C   UNL     1      -3.212   2.593  24.972  0.00  0.00    +0.023 A 
ATOM     19  C   UNL     1      -2.579   2.065  24.959  0.00  0.00    +0.130 A 
ATOM     29  C   UNL     1      -1.805   2.348  25.010  0.00  0.00    +0.276 A 
ATOM     30  O   UNL     1      -1.603   1.550  24.961  0.00  0.00    -0.266 OA
ATOM     31  N   UNL     1      -1.666   3.158  25.074  0.00  0.00    -0.298 N 
ATOM     32  C   UNL     1      -1.782   3.816  25.116  0.00  0.00    +0.110 C 
ENDROOT
BRANCH   7   6
ATOM      3  C   UNL     1      -1.226  -0.345  24.841  0.00  0.00    +0.139 A 
ATOM      4  C   UNL     1      -1.269   0.015  25.582  0.00  0.00    +0.038 A 
ATOM      5  C   UNL     1      -1.310   0.838  25.639  0.00  0.00    +0.020 A 
ATOM      6  C   UNL     1      -1.306   1.300  24.954  0.00  0.00    +0.075 A 
ATOM     33  C   UNL     1      -1.263   0.938  24.214  0.00  0.00    +0.020 A 
ATOM     34  C   UNL     1      -1.222   0.117  24.157  0.00  0.00    +0.038 A 
BRANCH   3   2
ATOM      1  C   UNL     1      -0.465  -1.553  24.896  0.00  0.00    +0.252 C 
ATOM      2  O   UNL     1      -1.185  -1.167  24.784  0.00  0.00    -0.471 OA
ENDBRANCH   3   2
ENDBRANCH   7   6
BRANCH  19  20
ATOM     20  N   UNL     1      -2.719   1.255  24.895  0.00  0.00    -0.169 NA
ATOM     21  C   UNL     1      -3.492   0.973  24.842  0.00  0.00    +0.287 C 
ATOM     22  O   UNL     1      -4.126   1.501  24.853  0.00  0.00    -0.266 OA
BRANCH  21  23
ATOM     23  C   UNL     1      -3.632   0.162  24.778  0.00  0.00    +0.136 A 
ATOM     24  N   UNL     1      -3.685  -0.303  25.458  0.00  0.00    -0.239 NA
ATOM     25  C   UNL     1      -3.825  -1.113  25.394  0.00  0.00    +0.099 A 
ATOM     26  C   UNL     1      -3.912  -1.459  24.651  0.00  0.00    +0.021 A 
ATOM     27  C   UNL     1      -3.859  -0.995  23.970  0.00  0.00    +0.003 A 
ATOM     28  C   UNL     1      -3.719  -0.184  24.034  0.00  0.00    +0.024 A 
ENDBRANCH  21  23
ENDBRANCH  19  20
TORSDOF 4
ENDMDL
MODEL 4
REMARK VINA RESULT:     -15.1      1.020      4.024
REMARK  Name = 
REMARK  4 active torsions:
REMARK  status: ('A' for Active; 'I' for Inactive)
REMARK    1  A    between atoms: O_2  and  C_3
REMARK    2  A    between atoms: C_6  and  N_7
REMARK    3  A    between atoms: C_19  and  N_20
REMARK    4  A    between atoms: C_21  and  C_23
REMARK                            x       y       z     vdW  Elec       q    Type
REMARK                         _______ _______ _______ _____ _____    ______ ____
ROOT
ATOM      7  N   UNL     1      -2.892   1.665  24.889  0.00  0.00    -0.162 NA
ATOM      8  C   UNL     1      -2.504   2.393  24.919  0.00  0.00    +0.327 C 
ATOM      9  O   UNL     1      -1.682   2.426  24.859  0.00  0.00    -0.250 OA
ATOM     10  N   UNL     1      -2.939   3.089  25.009  0.00  0.00    -0.262 N 
ATOM     11  C   UNL     1      -3.094   3.906  25.087  0.00  0.00    +0.097 C 
ATOM     12  C   UNL     1      -4.079   3.881  25.160  0.00  0.00    +0.043 C 
ATOM     13  C   UNL     1      -4.877   4.030  25.232  0.00  0.00    +0.011 C 
ATOM     14  C   UNL     1      -4.458   3.472  25.155  0.00  0.00    +0.058 C 
ATOM     15  C   UNL     1      -3.506   3.512  25.086  0.00  0.00    +0.101 C 
ATOM     16  C   UNL     1      -4.483   2.556  25.082  0.00  0.00    +0.041 A 
ATOM     17  C   UNL     1      -5.019   1.929  25.071  0.00  0.00    +0.014 A 
ATOM     18  C   UNL     1      -4.746   1.155  24.987  0.00  0.00    +0.023 A 
ATOM     19  C   UNL     1      -3.937   1.008  24.914  0.00  0.00    +0.130 A 
ATOM     29  C   UNL     1      -3.401   1.636  24.925  0.00  0.00    +0.276 A 
ATOM     30  O   UNL     1      -2.837   1.042  24.834  0.00  0.00    -0.266 OA
ATOM     31  N   UNL     1      -3.674   2.409  25.009  0.00  0.00    -0.298 N 
ATOM     32  C   UNL     1      -4.096   2.924  25.083  0.00  0.00    +0.110 C 
ENDROOT
BRANCH   7   6
ATOM      3  C   UNL     1      -1.586  -0.420  24.618  0.00  0.00    +0.139 A 
ATOM      4  C   UNL     1      -1.857  -0.014  23.953  0.00  0.00    +0.038 A 
ATOM      5  C   UNL     1      -2.292   0.682  24.043  0.00  0.00    +0.020 A 
ATOM      6  C   UNL     1      -2.457   0.970  24.799  0.00  0.00    +0.075 A 
ATOM     33  C   UNL     1      -2.186   0.564  25.463  0.00  0.00    +0.020 A 
ATOM     34  C   UNL     1      -1.751  -0.131  25.373  0.00  0.00    +0.038 A 
BRANCH   3   2
ATOM      1  C   UNL     1      -0.330  -1.082  24.458  0.00  0.00    +0.252 C 
ATOM      2  O   UNL     1      -1.151  -1.115  24.527  0.00  0.00    -0.471 OA
ENDBRANCH   3   2
ENDBRANCH   7   6
BRANCH  19  20
ATOM     20  N   UNL     1      -3.665   0.235  24.830  0.00  0.00    -0.169 NA
ATOM     21  C   UNL     1      -4.201  -0.392  24.817  0.00  0.00    +0.287 C 
ATOM     22  O   UNL     1      -5.009  -0.245  24.889  0.00  0.00    -0.266 OA
BRANCH  21  23
ATOM     23  C   UNL     1      -3.927  -1.167  24.734  0.00  0.00    +0.136 A 
ATOM     24  N   UNL     1      -3.675  -1.589  25.395  0.00  0.00    -0.239 NA
ATOM     25  C   UNL     1      -3.402  -2.363  25.311  0.00  0.00    +0.099 A 
ATOM     26  C   UNL     1      -3.382  -2.715  24.566  0.00  0.00    +0.021 A 
ATOM     27  C   UNL     1      -3.635  -2.293  23.903  0.00  0.00    +0.003 A 
ATOM     28  C   UNL     1      -3.908  -1.518  23.987  0.00  0.00    +0.024 A 
ENDBRANCH  21  23
ENDBRANCH  19  20
TORSDOF 4
ENDMDL
MODEL 5
REMARK VINA RESULT:     -15.0      1.190      4.401
REMARK  Name = 
REMARK  4 active torsions:
REMARK  status: ('A' for Active; 'I' for Inactive)
REMARK    1  A    between atoms: O_2  and  C_3
REMARK    2  A    between atoms: C_6  and  N_7
REMARK    3  A    between atoms: C_19  and  N_20
REMARK    4  A    between atoms: C_21  and  C_23
REMARK                            x       y       z     vdW  Elec       q    Type
REMARK                         _______ _______ _______ _____ _____    ______ ____
ROOT
ATOM      7  N   UNL     1      -4.176   0.918  24.939  0.00  0.00    -0.162 NA
ATOM      8  C   UNL     1      -4.985   1.082  24.935  0.00  0.00    +0.327 C 
ATOM      9  O   UNL     1      -5.529   0.468  24.849  0.00  0.00    -0.250 OA
ATOM     10  N   UNL     1      -5.250   1.859  25.018  0.00  0.00    -0.262 N 
ATOM     11  C   UNL     1      -5.785   2.498  25.076  0.00  0.00    +0.097 C 
ATOM     12  C   UNL     1      -5.143   3.242  25.180  0.00  0.00    +0.043 C 
ATOM     13  C   UNL     1      -4.755   3.952  25.273  0.00  0.00    +0.011 C 
ATOM     14  C   UNL     1      -4.587   3.275  25.200  0.00  0.00    +0.058 C 
ATOM     15  C   UNL     1      -5.220   2.566  25.100  0.00  0.00    +0.101 C 
ATOM     16  C   UNL     1      -3.862   2.712  25.155  0.00  0.00    +0.041 A 
ATOM     17  C   UNL     1      -3.037   2.727  25.180  0.00  0.00    +0.014 A 
ATOM     18  C   UNL     1      -2.610   2.025  25.111  0.00  0.00    +0.023 A 
ATOM     19  C   UNL     1      -3.007   1.308  25.017  0.00  0.00    +0.130 A 
ATOM     29  C   UNL     1      -3.831   1.293  24.992  0.00  0.00    +0.276 A 
ATOM     30  O   UNL     1      -3.728   0.480  24.902  0.00  0.00    -0.266 OA
ATOM     31  N   UNL     1      -4.259   1.995  25.061  0.00  0.00    -0.298 N 
ATOM     32  C   UNL     1      -4.392   2.647  25.133  0.00  0.00    +0.110 C 
ENDROOT
BRANCH   7   6
ATOM      3  C   UNL     1      -3.385  -1.413  24.691  0.00  0.00    +0.139 A 
ATOM      4  C   UNL     1      -3.497  -0.943  24.023  0.00  0.00    +0.038 A 
ATOM      5  C   UNL     1      -3.761  -0.165  24.106  0.00  0.00    +0.020 A 
ATOM      6  C   UNL     1      -3.912   0.142  24.857  0.00  0.00    +0.075 A 
ATOM     33  C   UNL     1      -3.799  -0.330  25.524  0.00  0.00    +0.020 A 
ATOM     34  C   UNL     1      -3.536  -1.107  25.442  0.00  0.00    +0.038 A 
BRANCH   3   2
ATOM      1  C   UNL     1      -3.663  -2.799  24.482  0.00  0.00    +0.252 C 
ATOM      2  O   UNL     1      -3.121  -2.191  24.608  0.00  0.00    -0.471 OA
ENDBRANCH   3   2
ENDBRANCH   7   6
BRANCH  19  20
ATOM     20  N   UNL     1      -2.579   0.606  24.949  0.00  0.00    -0.169 NA
ATOM     21  C   UNL     1      -1.756   0.619  24.994  0.00  0.00    +0.287 C 
ATOM     22  O   UNL     1      -1.360   1.333  25.109  0.00  0.00    -0.266 OA
BRANCH  21  23
ATOM     23  C   UNL     1      -1.328  -0.084  24.925  0.00  0.00    +0.136 A 
ATOM     24  N   UNL     1      -1.091  -0.352  24.182  0.00  0.00    -0.239 NA
ATOM     25  C   UNL     1      -0.664  -1.054  24.113  0.00  0.00    +0.099 A 
ATOM     26  C   UNL     1      -0.473  -1.488  24.787  0.00  0.00    +0.021 A 
ATOM     27  C   UNL     1      -0.710  -1.222  25.531  0.00  0.00    +0.003 A 
ATOM     28  C   UNL     1      -1.138  -0.519  25.600  0.00  0.00    +0.024 A 
ENDBRANCH  21  23
ENDBRANCH  19  20
TORSDOF 4
ENDMDL
MODEL 6
REMARK VINA RESULT:     -14.4      1.383      4.684
REMARK  Name = 
REMARK  4 active torsions:
REMARK  status: ('A' for Active; 'I' for Inactive)
REMARK    1  A    between atoms: O_2  and  C_3
REMARK    2  A    between atoms: C_6  and  N_7
REMARK    3  A    between atoms: C_19  and  N_20
REMARK    4  A    between atoms: C_21  and  C_23
REMARK                            x       y       z     vdW  Elec       q    Type
REMARK                         _______ _______ _______ _____ _____    ______ ____
ROOT
ATOM      7  N   UNL     1      -2.964   3.231  24.947  0.00  0.00    -0.162 NA
ATOM      8  C   UNL     1      -3.034   4.047  25.054  0.00  0.00    +0.327 C 
ATOM      9  O   UNL     1      -3.780   4.391  25.128  0.00  0.00    -0.250 OA
ATOM     10  N   UNL     1      -2.357   4.518  25.087  0.00  0.00    -0.262 N 
ATOM     11  C   UNL     1      -1.891   5.208  25.156  0.00  0.00    +0.097 C 
ATOM     12  C   UNL     1      -0.991   4.808  25.068  0.00  0.00    +0.043 C 
ATOM     13  C   UNL     1      -0.196   4.640  25.015  0.00  0.00    +0.011 C 
ATOM     14  C   UNL     1      -0.803   4.289  24.995  0.00  0.00    +0.058 C 
ATOM     15  C   UNL     1      -1.666   4.690  25.081  0.00  0.00    +0.101 C 
ATOM     16  C   UNL     1      -1.142   3.440  24.900  0.00  0.00    +0.041 A 
ATOM     17  C   UNL     1      -0.896   2.660  24.791  0.00  0.00    +0.014 A 
ATOM     18  C   UNL     1      -1.454   2.055  24.737  0.00  0.00    +0.023 A 
ATOM     19  C   UNL     1      -2.259   2.230  24.792  0.00  0.00    +0.130 A 
ATOM     29  C   UNL     1      -2.505   3.009  24.901  0.00  0.00    +0.276 A 
ATOM     30  O   UNL     1      -3.261   2.681  24.889  0.00  0.00    -0.266 OA
ATOM     31  N   UNL     1      -1.947   3.614  24.955  0.00  0.00    -0.298 N 
ATOM     32  C   UNL     1      -1.354   3.925  24.971  0.00  0.00    +0.110 C 
ENDROOT
BRANCH   7   6
ATOM      3  C   UNL     1      -4.994   1.819  24.852  0.00  0.00    +0.139 A 
ATOM      4  C   UNL     1      -4.633   1.973  25.577  0.00  0.00    +0.038 A 
ATOM      5  C   UNL     1      -3.956   2.444  25.609  0.00  0.00    +0.020 A 
ATOM      6  C   UNL     1      -3.640   2.761  24.915  0.00  0.00    +0.075 A 
ATOM     33  C   UNL     1      -4.002   2.606  24.190  0.00  0.00    +0.020 A 
ATOM     34  C   UNL     1      -4.679   2.136  24.158  0.00  0.00    +0.038 A 
BRANCH   3   2
ATOM      1  C   UNL     1      -6.409   1.674  24.991  0.00  0.00    +0.252 C 
ATOM      2  O   UNL     1      -5.671   1.348  24.820  0.00  0.00    -0.471 OA
ENDBRANCH   3   2
ENDBRANCH   7   6
BRANCH  19  20
ATOM     20  N   UNL     1      -2.816   1.625  24.737  0.00  0.00    -0.169 NA
ATOM     21  C   UNL     1      -2.570   0.844  24.634  0.00  0.00    +0.287 C 
ATOM     22  O   UNL     1      -1.765   0.669  24.584  0.00  0.00    -0.266 OA
BRANCH  21  23
ATOM     23  C   UNL     1      -3.128   0.239  24.579  0.00  0.00    +0.136 A 
ATOM     24  N   UNL     1      -3.388  -0.146  25.261  0.00  0.00    -0.239 NA
ATOM     25  C   UNL     1      -3.946  -0.751  25.206  0.00  0.00    +0.099 A 
ATOM     26  C   UNL     1      -4.244  -0.971  24.470  0.00  0.00    +0.021 A 
ATOM     27  C   UNL     1      -3.985  -0.587  23.787  0.00  0.00    +0.003 A 
ATOM     28  C   UNL     1      -3.426   0.018  23.842  0.00  0.00    +0.024 A 
ENDBRANCH  21  23
ENDBRANCH  19  20
TORSDOF 4
ENDMDL
MODEL 7
REMARK VINA RESULT:     -14.3      1.298      3.745
REMARK  Name = 
REMARK  4 active torsions:
REMARK  status: ('A' for Active; 'I' for Inactive)
REMARK    1  A    between atoms: O_2  and  C_3
REMARK    2  A    between atoms: C_6  and  N_7
REMARK    3  A    between atoms: C_19  and  N_20
REMARK    4  A    between atoms: C_21  and  C_23
REMARK                            x       y       z     vdW  Elec       q    Type
REMARK                         _______ _______ _______ _____ _____    ______ ____
ROOT
ATOM      7  N   UNL     1      -3.212   1.840  24.811  0.00  0.00    -0.162 NA
ATOM      8  C   UNL     1      -3.489   2.615  24.753  0.00  0.00    +0.327 C 
ATOM      9  O   UNL     1      -2.962   3.232  24.607  0.00  0.00    -0.250 OA
ATOM     10  N   UNL     1      -4.294   2.773  24.842  0.00  0.00    -0.262 N 
ATOM     11  C   UNL     1      -5.002   3.216  24.883  0.00  0.00    +0.097 C 
ATOM     12  C   UNL     1      -5.644   2.486  25.059  0.00  0.00    +0.043 C 
ATOM     13  C   UNL     1      -6.288   2.009  25.204  0.00  0.00    +0.011 C 
ATOM     14  C   UNL     1      -5.596   1.933  25.120  0.00  0.00    +0.058 C 
ATOM     15  C   UNL     1      -4.988   2.650  24.951  0.00  0.00    +0.101 C 
ATOM     16  C   UNL     1      -4.937   1.293  25.109  0.00  0.00    +0.041 A 
ATOM     17  C   UNL     1      -4.833   0.479  25.194  0.00  0.00    +0.014 A 
ATOM     18  C   UNL     1      -4.078   0.151  25.133  0.00  0.00    +0.023 A 
ATOM     19  C   UNL     1      -3.428   0.637  24.986  0.00  0.00    +0.130 A 
ATOM     29  C   UNL     1      -3.531   1.451  24.901  0.00  0.00    +0.276 A 
ATOM     30  O   UNL     1      -2.714   1.456  24.790  0.00  0.00    -0.266 OA
ATOM     31  N   UNL     1      -4.286   1.779  24.962  0.00  0.00    -0.298 N 
ATOM     32  C   UNL     1      -4.949   1.824  25.046  0.00  0.00    +0.110 C 
ENDROOT
BRANCH   7   6
ATOM      3  C   UNL     1      -0.797   1.369  24.541  0.00  0.00    +0.139 A 
ATOM      4  C   UNL     1      -1.294   1.363  23.883  0.00  0.00    +0.038 A 
ATOM      5  C   UNL     1      -2.099   1.520  23.973  0.00  0.00    +0.020 A 
ATOM      6  C   UNL     1      -2.407   1.683  24.721  0.00  0.00    +0.075 A 
ATOM     33  C   UNL     1      -1.909   1.689  25.379  0.00  0.00    +0.020 A 
ATOM     34  C   UNL     1      -1.105   1.532  25.290  0.00  0.00    +0.038 A 
BRANCH   3   2
ATOM      1  C   UNL     1       0.529   1.823  24.266  0.00  0.00    +0.252 C 
ATOM      2  O   UNL     1       0.008   1.211  24.452  0.00  0.00    -0.471 OA
ENDBRANCH   3   2
ENDBRANCH   7   6
BRANCH  19  20
ATOM     20  N   UNL     1      -2.674   0.309  24.925  0.00  0.00    -0.169 NA
ATOM     21  C   UNL     1      -2.568  -0.503  25.024  0.00  0.00    +0.287 C 
ATOM     22  O   UNL     1      -3.217  -0.987  25.186  0.00  0.00    -0.266 OA
BRANCH  21  23
ATOM     23  C   UNL     1      -1.813  -0.832  24.963  0.00  0.00    +0.136 A 
ATOM     24  N   UNL     1      -1.520  -1.056  24.226  0.00  0.00    -0.239 NA
ATOM     25  C   UNL     1      -0.765  -1.385  24.165  0.00  0.00    +0.099 A 
ATOM     26  C   UNL     1      -0.304  -1.488  24.840  0.00  0.00    +0.021 A 
ATOM     27  C   UNL     1      -0.597  -1.264  25.578  0.00  0.00    +0.003 A 
ATOM     28  C   UNL     1      -1.353  -0.935  25.640  0.00  0.00    +0.024 A 
ENDBRANCH  21  23
ENDBRANCH  19  20
TORSDOF 4
ENDMDL
MODEL 8
REMARK VINA RESULT:     -13.6      1.730      4.165
REMARK  Name = 
REMARK  4 active torsions:
REMARK  status: ('A' for Active; 'I' for Inactive)
REMARK    1  A    between atoms: O_2  and  C_3
REMARK    2  A    between atoms: C_6  and  N_7
REMARK    3  A    between atoms: C_19  and  N_20
REMARK    4  A    between atoms: C_21  and  C_23
REMARK                            x       y       z     vdW  Elec       q    Type
REMARK                         _______ _______ _______ _____ _____    ______ ____
ROOT
ATOM      7  N   UNL     1      -2.270   2.421  24.655  0.00  0.00    -0.162 NA
ATOM      8  C   UNL     1      -1.482   2.305  24.440  0.00  0.00    +0.327 C 
ATOM      9  O   UNL     1      -1.233   1.568  24.165  0.00  0.00    -0.250 OA
ATOM     10  N   UNL     1      -0.941   2.926  24.501  0.00  0.00    -0.262 N 
ATOM     11  C   UNL     1      -0.213   3.332  24.456  0.00  0.00    +0.097 C 
ATOM     12  C   UNL     1      -0.497   4.219  24.784  0.00  0.00    +0.043 C 
ATOM     13  C   UNL     1      -0.568   4.993  25.030  0.00  0.00    +0.011 C 
ATOM     14  C   UNL     1      -0.983   4.431  24.958  0.00  0.00    +0.058 C 
ATOM     15  C   UNL     1      -0.693   3.579  24.639  0.00  0.00    +0.101 C 
ATOM     16  C   UNL     1      -1.852   4.157  25.075  0.00  0.00    +0.041 A 
ATOM     17  C   UNL     1      -2.585   4.440  25.326  0.00  0.00    +0.014 A 
ATOM     18  C   UNL     1      -3.242   3.941  25.328  0.00  0.00    +0.023 A 
ATOM     19  C   UNL     1      -3.166   3.158  25.078  0.00  0.00    +0.130 A 
ATOM     29  C   UNL     1      -2.433   2.875  24.827  0.00  0.00    +0.276 A 
ATOM     30  O   UNL     1      -2.843   2.169  24.710  0.00  0.00    -0.266 OA
ATOM     31  N   UNL     1      -1.776   3.374  24.825  0.00  0.00    -0.298 N 
ATOM     32  C   UNL     1      -1.403   3.924  24.903  0.00  0.00    +0.110 C 
ENDROOT
BRANCH   7   6
ATOM      3  C   UNL     1      -3.888   0.558  24.472  0.00  0.00    +0.139 A 
ATOM      4  C   UNL     1      -3.464   0.668  25.170  0.00  0.00    +0.038 A 
ATOM      5  C   UNL     1      -2.924   1.289  25.231  0.00  0.00    +0.020 A 
ATOM      6  C   UNL     1      -2.810   1.800  24.593  0.00  0.00    +0.075 A 
ATOM     33  C   UNL     1      -3.234   1.689  23.895  0.00  0.00    +0.020 A 
ATOM     34  C   UNL     1      -3.774   1.069  23.834  0.00  0.00    +0.038 A 
BRANCH   3   2
ATOM      1  C   UNL     1      -4.172  -0.810  24.169  0.00  0.00    +0.252 C 
ATOM      2  O   UNL     1      -4.428  -0.064  24.411  0.00  0.00    -0.471 OA
ENDBRANCH   3   2
ENDBRANCH   7   6
BRANCH  19  20
ATOM     20  N   UNL     1      -3.823   2.660  25.080  0.00  0.00    -0.169 NA
ATOM     21  C   UNL     1      -4.557   2.945  25.325  0.00  0.00    +0.287 C 
ATOM     22  O   UNL     1      -4.634   3.730  25.568  0.00  0.00    -0.266 OA
BRANCH  21  23
ATOM     23  C   UNL     1      -5.214   2.446  25.326  0.00  0.00    +0.136 A 
ATOM     24  N   UNL     1      -5.661   2.350  24.640  0.00  0.00    -0.239 NA
ATOM     25  C   UNL     1      -6.318   1.851  24.641  0.00  0.00    +0.099 A 
ATOM     26  C   UNL     1      -6.528   1.448  25.329  0.00  0.00    +0.021 A 
ATOM     27  C   UNL     1      -6.081   1.543  26.017  0.00  0.00    +0.003 A 
ATOM     28  C   UNL     1      -5.424   2.043  26.015  0.00  0.00    +0.024 A 
ENDBRANCH  21  23
ENDBRANCH  19  20
TORSDOF 4
ENDMDL
