REMARK  Name = 
REMARK  5 active torsions:
REMARK  status: ('A' for Active; 'I' for Inactive)
REMARK    1  A    between atoms: O_2  and  C_3
REMARK    2  A    between atoms: C_6  and  C_9
REMARK    3  A    between atoms: C_20  and  N_21
REMARK    4  A    between atoms: C_22  and  C_24
REMARK    5  A    between atoms: C_26  and  C_30
REMARK                            x       y       z     vdW  Elec       q    Type
REMARK                         _______ _______ _______ _____ _____    ______ ____
ROOT
ATOM      9  C   UNL     1       0.151  -2.654   0.000  0.00  0.00    +0.249 C 
ATOM     10  O   UNL     1       0.425  -3.469   0.000  0.00  0.00    -0.270 OA
ATOM     11  N   UNL     1       0.813  -2.091   0.000  0.00  0.00    -0.276 N 
ATOM     12  C   UNL     1       1.629  -1.912   0.000  0.00  0.00    +0.096 C 
ATOM     13  C   UNL     1       1.582  -0.925   0.000  0.00  0.00    +0.043 C 
ATOM     14  C   UNL     1       1.713  -0.121   0.000  0.00  0.00    +0.011 C 
ATOM     15  C   UNL     1       1.163  -0.557   0.000  0.00  0.00    +0.058 C 
ATOM     16  C   UNL     1       1.225  -1.510   0.000  0.00  0.00    +0.099 C 
ATOM     17  C   UNL     1       0.244  -0.558   0.000  0.00  0.00    +0.041 A 
ATOM     18  C   UNL     1      -0.397  -0.039   0.000  0.00  0.00    +0.014 A 
ATOM     19  C   UNL     1      -1.167  -0.335   0.000  0.00  0.00    +0.023 A 
ATOM     20  C   UNL     1      -1.296  -1.150   0.000  0.00  0.00    +0.130 A 
ATOM     33  C   UNL     1      -0.655  -1.669   0.000  0.00  0.00    +0.276 A 
ATOM     34  O   UNL     1      -1.383  -2.134   0.000  0.00  0.00    -0.266 OA
ATOM     35  N   UNL     1       0.115  -1.373   0.000  0.00  0.00    -0.298 N 
ATOM     36  C   UNL     1       0.622  -0.936   0.000  0.00  0.00    +0.110 C 
ENDROOT
BRANCH   9   6
ATOM      3  C   UNL     1      -2.338  -1.196   0.000  0.00  0.00    +0.139 A 
ATOM      4  C   UNL     1      -1.485  -0.905   0.000  0.00  0.00    +0.037 A 
ATOM      5  C   UNL     1      -0.664  -1.356   0.000  0.00  0.00    +0.008 A 
ATOM      6  C   UNL     1      -0.614  -2.179   0.000  0.00  0.00    +0.054 A 
ATOM      7  C   UNL     1      -1.301  -2.635   0.000  0.00  0.00    +0.008 A 
ATOM      8  C   UNL     1      -2.040  -2.267   0.000  0.00  0.00    +0.037 A 
BRANCH   3   2
ATOM      1  C   UNL     1      -3.586   0.173   0.000  0.00  0.00    +0.252 C 
ATOM      2  O   UNL     1      -3.251  -0.671   0.000  0.00  0.00    -0.471 OA
ENDBRANCH   3   2
ENDBRANCH   9   6
BRANCH  20  21
ATOM     21  N   UNL     1      -2.060  -1.548   0.000  0.00  0.00    -0.171 NA
ATOM     22  C   UNL     1      -2.674  -0.754   0.000  0.00  0.00    +0.269 C 
ATOM     23  O   UNL     1      -2.669   0.165   0.000  0.00  0.00    -0.268 OA
BRANCH  22  24
ATOM     24  C   UNL     1      -3.478  -1.222   0.000  0.00  0.00    +0.056 A 
ATOM     25  C   UNL     1      -3.606  -2.037   0.000  0.00  0.00    +0.011 A 
ATOM     26  C   UNL     1      -4.377  -2.333   0.000  0.00  0.00    +0.080 A 
ATOM     27  C   UNL     1      -5.018  -1.813   0.000  0.00  0.00    +0.007 A 
ATOM     28  C   UNL     1      -4.889  -0.999   0.000  0.00  0.00    +0.000 A 
ATOM     29  C   UNL     1      -4.119  -0.703   0.000  0.00  0.00    +0.005 A 
BRANCH  26  30
ATOM     30  C   UNL     1      -4.569  -3.215   0.000  0.00  0.00    +0.388 C 
ATOM     31  O   UNL     1      -5.336  -3.591   0.000  0.00  0.00    -0.241 OA
ATOM     32  O   UNL     1      -4.093  -3.946   0.000  0.00  0.00    -0.241 OA
ENDBRANCH  26  30
ENDBRANCH  22  24
ENDBRANCH  20  21
TORSDOF 5
