MODEL 1
REMARK VINA RESULT:     -14.4      0.000      0.000
REMARK  Name = 
REMARK  3 active torsions:
REMARK  status: ('A' for Active; 'I' for Inactive)
REMARK    1  A    between atoms: N_9  and  S_11
REMARK    2  A    between atoms: S_11  and  C_14
REMARK    3  A    between atoms: C_23  and  C_24
REMARK                            x       y       z     vdW  Elec       q    Type
REMARK                         _______ _______ _______ _____ _____    ______ ____
ROOT
ATOM      1  O   UNL     1      -2.691   0.011  24.645  0.00  0.00    -0.267 OA
ATOM      2  C   UNL     1      -2.967   0.789  24.658  0.00  0.00    +0.261 A 
ATOM      3  N   UNL     1      -3.771   0.939  24.762  0.00  0.00    -0.299 N 
ATOM      4  C   UNL     1      -3.455   1.709  24.696  0.00  0.00    +0.110 C 
ATOM      5  C   UNL     1      -4.284   2.238  24.791  0.00  0.00    +0.041 C 
ATOM      6  C   UNL     1      -4.863   2.808  24.852  0.00  0.00    +0.011 C 
ATOM      7  C   UNL     1      -4.820   2.107  24.868  0.00  0.00    +0.056 C 
ATOM      8  C   UNL     1      -5.340   1.355  24.961  0.00  0.00    +0.102 C 
ATOM      9  N   UNL     1      -4.760   0.790  24.901  0.00  0.00    -0.155 NA
ATOM     10  C   UNL     1      -4.819   1.447  24.888  0.00  0.00    +0.098 C 
ATOM     20  C   UNL     1      -4.047   1.716  24.775  0.00  0.00    +0.041 A 
ATOM     21  C   UNL     1      -3.520   2.343  24.685  0.00  0.00    +0.013 A 
ATOM     22  C   UNL     1      -2.716   2.193  24.581  0.00  0.00    +0.006 A 
ATOM     23  C   UNL     1      -2.439   1.416  24.567  0.00  0.00    +0.059 A 
ENDROOT
BRANCH  23  24
ATOM     24  C   UNL     1      -1.634   1.266  24.463  0.00  0.00    +0.043 A 
ATOM     25  C   UNL     1      -1.134   1.225  25.119  0.00  0.00    +0.102 A 
ATOM     26  N   UNL     1      -0.329   1.075  25.015  0.00  0.00    -0.222 NA
ATOM     27  C   UNL     1      -0.025   0.966  24.255  0.00  0.00    +0.199 A 
ATOM     28  N   UNL     1      -0.525   1.007  23.601  0.00  0.00    -0.222 NA
ATOM     29  C   UNL     1      -1.329   1.157  23.705  0.00  0.00    +0.102 A 
ENDBRANCH  23  24
BRANCH   9  11
ATOM     11  S   UNL     1      -4.406   0.046  24.876  0.00  0.00    +0.063 S 
ATOM     12  O   UNL     1      -4.503   0.026  24.057  0.00  0.00    -0.153 OA
ATOM     13  O   UNL     1      -4.308   0.065  25.695  0.00  0.00    -0.153 OA
BRANCH  11  14
ATOM     14  C   UNL     1      -4.051  -0.699  24.851  0.00  0.00    +0.122 A 
ATOM     15  C   UNL     1      -3.740  -1.030  25.539  0.00  0.00    +0.020 A 
ATOM     16  C   UNL     1      -3.385  -1.775  25.515  0.00  0.00    +0.001 A 
ATOM     17  C   UNL     1      -3.342  -2.188  24.802  0.00  0.00    +0.000 A 
ATOM     18  C   UNL     1      -3.653  -1.856  24.114  0.00  0.00    +0.001 A 
ATOM     19  C   UNL     1      -4.008  -1.111  24.138  0.00  0.00    +0.020 A 
ENDBRANCH  11  14
ENDBRANCH   9  11
TORSDOF 3
ENDMDL
MODEL 2
REMARK VINA RESULT:     -14.1      1.250      2.943
REMARK  Name = 
REMARK  3 active torsions:
REMARK  status: ('A' for Active; 'I' for Inactive)
REMARK    1  A    between atoms: N_9  and  S_11
REMARK    2  A    between atoms: S_11  and  C_14
REMARK    3  A    between atoms: C_23  and  C_24
REMARK                            x       y       z     vdW  Elec       q    Type
REMARK                         _______ _______ _______ _____ _____    ______ ____
ROOT
ATOM      1  O   UNL     1      -2.663   0.432  24.587  0.00  0.00    -0.267 OA
ATOM      2  C   UNL     1      -3.435   0.694  24.719  0.00  0.00    +0.261 A 
ATOM      3  N   UNL     1      -3.604   1.501  24.704  0.00  0.00    -0.299 N 
ATOM      4  C   UNL     1      -4.352   1.166  24.867  0.00  0.00    +0.110 C 
ATOM      5  C   UNL     1      -4.894   1.990  24.922  0.00  0.00    +0.041 C 
ATOM      6  C   UNL     1      -5.469   2.562  24.999  0.00  0.00    +0.011 C 
ATOM      7  C   UNL     1      -4.780   2.534  24.868  0.00  0.00    +0.056 C 
ATOM      8  C   UNL     1      -4.056   3.073  24.698  0.00  0.00    +0.102 C 
ATOM      9  N   UNL     1      -3.485   2.500  24.622  0.00  0.00    -0.155 NA
ATOM     10  C   UNL     1      -4.132   2.546  24.743  0.00  0.00    +0.098 C 
ATOM     20  C   UNL     1      -4.374   1.763  24.836  0.00  0.00    +0.041 A 
ATOM     21  C   UNL     1      -4.976   1.219  24.983  0.00  0.00    +0.013 A 
ATOM     22  C   UNL     1      -4.807   0.412  24.999  0.00  0.00    +0.006 A 
ATOM     23  C   UNL     1      -4.036   0.149  24.867  0.00  0.00    +0.059 A 
ENDROOT
BRANCH  23  24
ATOM     24  C   UNL     1      -3.867  -0.658  24.882  0.00  0.00    +0.043 A 
ATOM     25  C   UNL     1      -3.970  -1.114  24.201  0.00  0.00    +0.102 A 
ATOM     26  N   UNL     1      -3.800  -1.922  24.217  0.00  0.00    -0.222 NA
ATOM     27  C   UNL     1      -3.528  -2.273  24.912  0.00  0.00    +0.199 A 
ATOM     28  N   UNL     1      -3.425  -1.817  25.592  0.00  0.00    -0.222 NA
ATOM     29  C   UNL     1      -3.595  -1.010  25.577  0.00  0.00    +0.102 A 
ENDBRANCH  23  24
BRANCH   9  11
ATOM     11  S   UNL     1      -2.745   2.159  24.501  0.00  0.00    +0.063 S 
ATOM     12  O   UNL     1      -2.902   2.104  23.693  0.00  0.00    -0.153 OA
ATOM     13  O   UNL     1      -2.587   2.213  25.309  0.00  0.00    -0.153 OA
BRANCH  11  14
ATOM     14  C   UNL     1      -2.003   1.817  24.379  0.00  0.00    +0.122 A 
ATOM     15  C   UNL     1      -1.771   1.596  23.620  0.00  0.00    +0.020 A 
ATOM     16  C   UNL     1      -1.029   1.254  23.499  0.00  0.00    +0.001 A 
ATOM     17  C   UNL     1      -0.521   1.134  24.138  0.00  0.00    +0.000 A 
ATOM     18  C   UNL     1      -0.753   1.356  24.897  0.00  0.00    +0.001 A 
ATOM     19  C   UNL     1      -1.495   1.698  25.018  0.00  0.00    +0.020 A 
ENDBRANCH  11  14
ENDBRANCH   9  11
TORSDOF 3
ENDMDL
MODEL 3
REMARK VINA RESULT:     -13.9      1.767      3.161
REMARK  Name = 
REMARK  3 active torsions:
REMARK  status: ('A' for Active; 'I' for Inactive)
REMARK    1  A    between atoms: N_9  and  S_11
REMARK    2  A    between atoms: S_11  and  C_14
REMARK    3  A    between atoms: C_23  and  C_24
REMARK                            x       y       z     vdW  Elec       q    Type
REMARK                         _______ _______ _______ _____ _____    ______ ____
ROOT
ATOM      1  O   UNL     1      -2.691   2.362  25.040  0.00  0.00    -0.267 OA
ATOM      2  C   UNL     1      -3.407   1.954  24.989  0.00  0.00    +0.261 A 
ATOM      3  N   UNL     1      -4.120   2.357  25.094  0.00  0.00    -0.299 N 
ATOM      4  C   UNL     1      -4.377   1.575  24.952  0.00  0.00    +0.110 C 
ATOM      5  C   UNL     1      -5.354   1.709  25.016  0.00  0.00    +0.041 C 
ATOM      6  C   UNL     1      -6.167   1.652  25.036  0.00  0.00    +0.011 C 
ATOM      7  C   UNL     1      -5.679   2.151  25.114  0.00  0.00    +0.056 C 
ATOM      8  C   UNL     1      -5.589   3.049  25.286  0.00  0.00    +0.102 C 
ATOM      9  N   UNL     1      -4.779   3.102  25.265  0.00  0.00    -0.155 NA
ATOM     10  C   UNL     1      -5.250   2.646  25.194  0.00  0.00    +0.098 C 
ATOM     20  C   UNL     1      -4.834   1.950  25.043  0.00  0.00    +0.041 A 
ATOM     21  C   UNL     1      -4.838   1.141  24.885  0.00  0.00    +0.013 A 
ATOM     22  C   UNL     1      -4.127   0.738  24.779  0.00  0.00    +0.006 A 
ATOM     23  C   UNL     1      -3.411   1.145  24.831  0.00  0.00    +0.059 A 
ENDROOT
BRANCH  23  24
ATOM     24  C   UNL     1      -2.699   0.742  24.725  0.00  0.00    +0.043 A 
ATOM     25  C   UNL     1      -2.344   0.355  25.363  0.00  0.00    +0.102 A 
ATOM     26  N   UNL     1      -1.632  -0.047  25.257  0.00  0.00    -0.222 NA
ATOM     27  C   UNL     1      -1.274  -0.064  24.513  0.00  0.00    +0.199 A 
ATOM     28  N   UNL     1      -1.628   0.322  23.876  0.00  0.00    -0.222 NA
ATOM     29  C   UNL     1      -2.340   0.725  23.982  0.00  0.00    +0.102 A 
ENDBRANCH  23  24
BRANCH   9  11
ATOM     11  S   UNL     1      -4.025   3.434  25.301  0.00  0.00    +0.063 S 
ATOM     12  O   UNL     1      -4.051   3.583  24.490  0.00  0.00    -0.153 OA
ATOM     13  O   UNL     1      -3.998   3.286  26.112  0.00  0.00    -0.153 OA
BRANCH  11  14
ATOM     14  C   UNL     1      -3.270   3.767  25.337  0.00  0.00    +0.122 A 
ATOM     15  C   UNL     1      -2.917   4.064  24.653  0.00  0.00    +0.020 A 
ATOM     16  C   UNL     1      -2.162   4.397  24.689  0.00  0.00    +0.001 A 
ATOM     17  C   UNL     1      -1.762   4.432  25.410  0.00  0.00    +0.000 A 
ATOM     18  C   UNL     1      -2.115   4.135  26.093  0.00  0.00    +0.001 A 
ATOM     19  C   UNL     1      -2.869   3.802  26.057  0.00  0.00    +0.020 A 
ENDBRANCH  11  14
ENDBRANCH   9  11
TORSDOF 3
ENDMDL
MODEL 4
REMARK VINA RESULT:     -13.9      1.410      3.595
REMARK  Name = 
REMARK  3 active torsions:
REMARK  status: ('A' for Active; 'I' for Inactive)
REMARK    1  A    between atoms: N_9  and  S_11
REMARK    2  A    between atoms: S_11  and  C_14
REMARK    3  A    between atoms: C_23  and  C_24
REMARK                            x       y       z     vdW  Elec       q    Type
REMARK                         _______ _______ _______ _____ _____    ______ ____
ROOT
ATOM      1  O   UNL     1      -2.599   0.628  24.829  0.00  0.00    -0.267 OA
ATOM      2  C   UNL     1      -3.096  -0.018  24.697  0.00  0.00    +0.261 A 
ATOM      3  N   UNL     1      -2.782  -0.781  24.672  0.00  0.00    -0.299 N 
ATOM      4  C   UNL     1      -3.596  -0.919  24.542  0.00  0.00    +0.110 C 
ATOM      5  C   UNL     1      -3.584  -1.903  24.452  0.00  0.00    +0.041 C 
ATOM      6  C   UNL     1      -3.743  -2.697  24.356  0.00  0.00    +0.011 C 
ATOM      7  C   UNL     1      -3.183  -2.290  24.475  0.00  0.00    +0.056 C 
ATOM      8  C   UNL     1      -2.274  -2.334  24.602  0.00  0.00    +0.102 C 
ATOM      9  N   UNL     1      -2.120  -1.542  24.698  0.00  0.00    -0.155 NA
ATOM     10  C   UNL     1      -2.635  -1.939  24.587  0.00  0.00    +0.098 C 
ATOM     20  C   UNL     1      -3.278  -1.426  24.541  0.00  0.00    +0.041 A 
ATOM     21  C   UNL     1      -4.087  -1.309  24.434  0.00  0.00    +0.013 A 
ATOM     22  C   UNL     1      -4.401  -0.548  24.459  0.00  0.00    +0.006 A 
ATOM     23  C   UNL     1      -3.905   0.098  24.591  0.00  0.00    +0.059 A 
ENDROOT
BRANCH  23  24
ATOM     24  C   UNL     1      -4.219   0.861  24.616  0.00  0.00    +0.043 A 
ATOM     25  C   UNL     1      -4.637   1.114  25.281  0.00  0.00    +0.102 A 
ATOM     26  N   UNL     1      -4.951   1.877  25.306  0.00  0.00    -0.222 NA
ATOM     27  C   UNL     1      -4.846   2.387  24.666  0.00  0.00    +0.199 A 
ATOM     28  N   UNL     1      -4.428   2.135  24.001  0.00  0.00    -0.222 NA
ATOM     29  C   UNL     1      -4.114   1.372  23.976  0.00  0.00    +0.102 A 
ENDBRANCH  23  24
BRANCH   9  11
ATOM     11  S   UNL     1      -1.694  -0.848  24.824  0.00  0.00    +0.063 S 
ATOM     12  O   UNL     1      -1.828  -0.912  25.635  0.00  0.00    -0.153 OA
ATOM     13  O   UNL     1      -1.559  -0.783  24.012  0.00  0.00    -0.153 OA
BRANCH  11  14
ATOM     14  C   UNL     1      -1.267  -0.153  24.950  0.00  0.00    +0.122 A 
ATOM     15  C   UNL     1      -1.178   0.144  25.714  0.00  0.00    +0.020 A 
ATOM     16  C   UNL     1      -0.751   0.840  25.839  0.00  0.00    +0.001 A 
ATOM     17  C   UNL     1      -0.414   1.237  25.200  0.00  0.00    +0.000 A 
ATOM     18  C   UNL     1      -0.503   0.940  24.436  0.00  0.00    +0.001 A 
ATOM     19  C   UNL     1      -0.930   0.245  24.310  0.00  0.00    +0.020 A 
ENDBRANCH  11  14
ENDBRANCH   9  11
TORSDOF 3
ENDMDL
MODEL 5
REMARK VINA RESULT:     -13.6      0.999      2.774
REMARK  Name = 
REMARK  3 active torsions:
REMARK  status: ('A' for Active; 'I' for Inactive)
REMARK    1  A    between atoms: N_9  and  S_11
REMARK    2  A    between atoms: S_11  and  C_14
REMARK    3  A    between atoms: C_23  and  C_24
REMARK                            x       y       z     vdW  Elec       q    Type
REMARK                         _______ _______ _______ _____ _____    ______ ____
ROOT
ATOM      1  O   UNL     1      -2.472   1.753  24.689  0.00  0.00    -0.267 OA
ATOM      2  C   UNL     1      -2.404   0.960  24.908  0.00  0.00    +0.261 A 
ATOM      3  N   UNL     1      -3.067   0.470  24.891  0.00  0.00    -0.299 N 
ATOM      4  C   UNL     1      -2.469  -0.050  25.156  0.00  0.00    +0.110 C 
ATOM      5  C   UNL     1      -3.000  -0.877  25.254  0.00  0.00    +0.041 C 
ATOM      6  C   UNL     1      -3.290  -1.627  25.385  0.00  0.00    +0.011 C 
ATOM      7  C   UNL     1      -3.536  -1.006  25.171  0.00  0.00    +0.056 C 
ATOM      8  C   UNL     1      -4.310  -0.593  24.896  0.00  0.00    +0.102 C 
ATOM      9  N   UNL     1      -4.018   0.153  24.766  0.00  0.00    -0.155 NA
ATOM     10  C   UNL     1      -3.803  -0.437  24.966  0.00  0.00    +0.098 C 
ATOM     20  C   UNL     1      -3.000  -0.322  25.110  0.00  0.00    +0.041 A 
ATOM     21  C   UNL     1      -2.270  -0.624  25.347  0.00  0.00    +0.013 A 
ATOM     22  C   UNL     1      -1.607  -0.134  25.365  0.00  0.00    +0.006 A 
ATOM     23  C   UNL     1      -1.674   0.659  25.145  0.00  0.00    +0.059 A 
ENDROOT
BRANCH  23  24
ATOM     24  C   UNL     1      -1.011   1.149  25.162  0.00  0.00    +0.043 A 
ATOM     25  C   UNL     1      -0.516   1.197  24.503  0.00  0.00    +0.102 A 
ATOM     26  N   UNL     1       0.148   1.688  24.521  0.00  0.00    -0.222 NA
ATOM     27  C   UNL     1       0.316   2.130  25.197  0.00  0.00    +0.199 A 
ATOM     28  N   UNL     1      -0.179   2.082  25.855  0.00  0.00    -0.222 NA
ATOM     29  C   UNL     1      -0.842   1.592  25.838  0.00  0.00    +0.102 A 
ENDBRANCH  23  24
BRANCH   9  11
ATOM     11  S   UNL     1      -4.001   0.952  24.563  0.00  0.00    +0.063 S 
ATOM     12  O   UNL     1      -3.808   0.752  23.787  0.00  0.00    -0.153 OA
ATOM     13  O   UNL     1      -4.195   1.154  25.340  0.00  0.00    -0.153 OA
BRANCH  11  14
ATOM     14  C   UNL     1      -3.985   1.752  24.360  0.00  0.00    +0.122 A 
ATOM     15  C   UNL     1      -3.796   1.979  23.591  0.00  0.00    +0.020 A 
ATOM     16  C   UNL     1      -3.779   2.779  23.388  0.00  0.00    +0.001 A 
ATOM     17  C   UNL     1      -3.953   3.351  23.956  0.00  0.00    +0.000 A 
ATOM     18  C   UNL     1      -4.142   3.125  24.726  0.00  0.00    +0.001 A 
ATOM     19  C   UNL     1      -4.158   2.325  24.929  0.00  0.00    +0.020 A 
ENDBRANCH  11  14
ENDBRANCH   9  11
TORSDOF 3
ENDMDL
