MODEL 1
REMARK VINA RESULT:     -14.7      0.000      0.000
REMARK  Name = 
REMARK  5 active torsions:
REMARK  status: ('A' for Active; 'I' for Inactive)
REMARK    1  A    between atoms: C_2  and  C_3
REMARK    2  A    between atoms: C_3  and  C_4
REMARK    3  A    between atoms: C_18  and  N_19
REMARK    4  A    between atoms: N_19  and  S_20
REMARK    5  A    between atoms: S_20  and  C_23
REMARK                            x       y       z     vdW  Elec       q    Type
REMARK                         _______ _______ _______ _____ _____    ______ ____
ROOT
ATOM      1  O   UNL     1      -2.636   3.386  24.564  0.00  0.00    -0.274 OA
ATOM      2  C   UNL     1      -3.298   2.934  24.757  0.00  0.00    +0.231 C 
ATOM      9  N   UNL     1      -3.980   3.301  25.044  0.00  0.00    -0.279 N 
ATOM     10  C   UNL     1      -4.487   3.917  25.294  0.00  0.00    +0.095 C 
ATOM     11  C   UNL     1      -5.287   3.387  25.529  0.00  0.00    +0.043 C 
ATOM     12  C   UNL     1      -6.013   3.101  25.762  0.00  0.00    +0.011 C 
ATOM     13  C   UNL     1      -5.409   2.843  25.515  0.00  0.00    +0.058 C 
ATOM     14  C   UNL     1      -4.644   3.369  25.293  0.00  0.00    +0.099 C 
ATOM     15  C   UNL     1      -5.005   2.050  25.284  0.00  0.00    +0.041 A 
ATOM     16  C   UNL     1      -5.155   1.240  25.253  0.00  0.00    +0.014 A 
ATOM     17  C   UNL     1      -4.571   0.722  24.986  0.00  0.00    +0.024 A 
ATOM     18  C   UNL     1      -3.837   1.015  24.750  0.00  0.00    +0.147 A 
ATOM     29  C   UNL     1      -3.686   1.826  24.781  0.00  0.00    +0.277 A 
ATOM     30  O   UNL     1      -2.946   1.612  24.489  0.00  0.00    -0.266 OA
ATOM     31  N   UNL     1      -4.271   2.343  25.048  0.00  0.00    -0.298 N 
ATOM     32  C   UNL     1      -4.856   2.564  25.285  0.00  0.00    +0.110 C 
ENDROOT
BRANCH   2   3
ATOM      3  C   UNL     1      -3.280   2.114  24.664  0.00  0.00    +0.118 C 
BRANCH   3   4
ATOM      4  C   UNL     1      -2.606   1.749  24.359  0.00  0.00    +0.016 A 
ATOM      5  C   UNL     1      -2.465   1.581  23.564  0.00  0.00    +0.003 A 
ATOM      6  C   UNL     1      -1.727   1.216  23.509  0.00  0.00    +0.007 A 
ATOM      7  C   UNL     1      -1.412   1.159  24.269  0.00  0.00    +0.035 A 
ATOM      8  S   UNL     1      -1.956   1.488  24.795  0.00  0.00    -0.090 S 
ENDBRANCH   3   4
ENDBRANCH   2   3
BRANCH  18  19
ATOM     19  N   UNL     1      -3.254   0.497  24.483  0.00  0.00    -0.092 NA
BRANCH  19  20
ATOM     20  S   UNL     1      -3.398  -0.315  24.467  0.00  0.00    +0.093 S 
ATOM     21  O   UNL     1      -3.110  -0.381  25.237  0.00  0.00    -0.148 OA
ATOM     22  O   UNL     1      -3.686  -0.249  23.697  0.00  0.00    -0.148 OA
BRANCH  20  23
ATOM     23  C   UNL     1      -3.543  -1.127  24.451  0.00  0.00    +0.127 A 
ATOM     24  C   UNL     1      -3.996  -1.454  23.843  0.00  0.00    +0.020 A 
ATOM     25  C   UNL     1      -4.141  -2.265  23.828  0.00  0.00    +0.001 A 
ATOM     26  C   UNL     1      -3.832  -2.751  24.419  0.00  0.00    +0.000 A 
ATOM     27  C   UNL     1      -3.379  -2.425  25.026  0.00  0.00    +0.001 A 
ATOM     28  C   UNL     1      -3.234  -1.613  25.042  0.00  0.00    +0.020 A 
ENDBRANCH  20  23
ENDBRANCH  19  20
ENDBRANCH  18  19
TORSDOF 5
ENDMDL
MODEL 2
REMARK VINA RESULT:     -14.3      1.313      2.419
REMARK  Name = 
REMARK  5 active torsions:
REMARK  status: ('A' for Active; 'I' for Inactive)
REMARK    1  A    between atoms: C_2  and  C_3
REMARK    2  A    between atoms: C_3  and  C_4
REMARK    3  A    between atoms: C_18  and  N_19
REMARK    4  A    between atoms: N_19  and  S_20
REMARK    5  A    between atoms: S_20  and  C_23
REMARK                            x       y       z     vdW  Elec       q    Type
REMARK                         _______ _______ _______ _____ _____    ______ ____
ROOT
ATOM      1  O   UNL     1      -4.368   4.003  25.419  0.00  0.00    -0.274 OA
ATOM      2  C   UNL     1      -3.717   3.507  25.320  0.00  0.00    +0.231 C 
ATOM      9  N   UNL     1      -2.953   3.815  25.364  0.00  0.00    -0.279 N 
ATOM     10  C   UNL     1      -2.345   4.380  25.457  0.00  0.00    +0.095 C 
ATOM     11  C   UNL     1      -1.556   3.796  25.340  0.00  0.00    +0.043 C 
ATOM     12  C   UNL     1      -0.818   3.459  25.268  0.00  0.00    +0.011 C 
ATOM     13  C   UNL     1      -1.489   3.252  25.241  0.00  0.00    +0.058 C 
ATOM     14  C   UNL     1      -2.241   3.829  25.356  0.00  0.00    +0.099 C 
ATOM     15  C   UNL     1      -2.008   2.504  25.113  0.00  0.00    +0.041 A 
ATOM     16  C   UNL     1      -1.941   1.695  24.966  0.00  0.00    +0.014 A 
ATOM     17  C   UNL     1      -2.619   1.232  24.892  0.00  0.00    +0.024 A 
ATOM     18  C   UNL     1      -3.365   1.578  24.966  0.00  0.00    +0.147 A 
ATOM     29  C   UNL     1      -3.432   2.386  25.113  0.00  0.00    +0.277 A 
ATOM     30  O   UNL     1      -4.242   2.234  25.098  0.00  0.00    -0.266 OA
ATOM     31  N   UNL     1      -2.753   2.850  25.187  0.00  0.00    -0.298 N 
ATOM     32  C   UNL     1      -2.107   3.021  25.208  0.00  0.00    +0.110 C 
ENDROOT
BRANCH   2   3
ATOM      3  C   UNL     1      -3.830   2.702  25.176  0.00  0.00    +0.118 C 
BRANCH   3   4
ATOM      4  C   UNL     1      -4.594   2.397  25.119  0.00  0.00    +0.016 A 
ATOM      5  C   UNL     1      -5.021   2.287  24.421  0.00  0.00    +0.003 A 
ATOM      6  C   UNL     1      -5.756   1.971  24.619  0.00  0.00    +0.007 A 
ATOM      7  C   UNL     1      -5.784   1.884  25.439  0.00  0.00    +0.035 A 
ATOM      8  S   UNL     1      -5.066   2.148  25.748  0.00  0.00    -0.090 S 
ENDBRANCH   3   4
ENDBRANCH   2   3
BRANCH  18  19
ATOM     19  N   UNL     1      -4.043   1.114  24.892  0.00  0.00    -0.092 NA
BRANCH  19  20
ATOM     20  S   UNL     1      -3.975   0.301  24.772  0.00  0.00    +0.093 S 
ATOM     21  O   UNL     1      -3.935   0.424  23.958  0.00  0.00    -0.148 OA
ATOM     22  O   UNL     1      -4.016   0.177  25.587  0.00  0.00    -0.148 OA
BRANCH  20  23
ATOM     23  C   UNL     1      -3.908  -0.513  24.653  0.00  0.00    +0.127 A 
ATOM     24  C   UNL     1      -4.095  -0.840  23.919  0.00  0.00    +0.020 A 
ATOM     25  C   UNL     1      -4.028  -1.653  23.800  0.00  0.00    +0.001 A 
ATOM     26  C   UNL     1      -3.773  -2.140  24.416  0.00  0.00    +0.000 A 
ATOM     27  C   UNL     1      -3.586  -1.814  25.150  0.00  0.00    +0.001 A 
ATOM     28  C   UNL     1      -3.654  -1.000  25.268  0.00  0.00    +0.020 A 
ENDBRANCH  20  23
ENDBRANCH  19  20
ENDBRANCH  18  19
TORSDOF 5
ENDMDL
MODEL 3
REMARK VINA RESULT:     -14.0      1.350      4.144
REMARK  Name = 
REMARK  5 active torsions:
REMARK  status: ('A' for Active; 'I' for Inactive)
REMARK    1  A    between atoms: C_2  and  C_3
REMARK    2  A    between atoms: C_3  and  C_4
REMARK    3  A    between atoms: C_18  and  N_19
REMARK    4  A    between atoms: N_19  and  S_20
REMARK    5  A    between atoms: S_20  and  C_23
REMARK                            x       y       z     vdW  Elec       q    Type
REMARK                         _______ _______ _______ _____ _____    ______ ____
ROOT
ATOM      1  O   UNL     1      -0.781  -1.451  24.888  0.00  0.00    -0.274 OA
ATOM      2  C   UNL     1      -1.581  -1.326  24.732  0.00  0.00    +0.231 C 
ATOM      9  N   UNL     1      -2.086  -1.969  24.623  0.00  0.00    -0.279 N 
ATOM     10  C   UNL     1      -2.331  -2.766  24.564  0.00  0.00    +0.095 C 
ATOM     11  C   UNL     1      -3.292  -2.629  24.376  0.00  0.00    +0.043 C 
ATOM     12  C   UNL     1      -4.089  -2.687  24.218  0.00  0.00    +0.011 C 
ATOM     13  C   UNL     1      -3.615  -2.179  24.318  0.00  0.00    +0.058 C 
ATOM     14  C   UNL     1      -2.689  -2.327  24.499  0.00  0.00    +0.099 C 
ATOM     15  C   UNL     1      -3.535  -1.264  24.346  0.00  0.00    +0.041 A 
ATOM     16  C   UNL     1      -3.987  -0.579  24.266  0.00  0.00    +0.014 A 
ATOM     17  C   UNL     1      -3.631   0.161  24.347  0.00  0.00    +0.024 A 
ATOM     18  C   UNL     1      -2.824   0.216  24.507  0.00  0.00    +0.147 A 
ATOM     29  C   UNL     1      -2.372  -0.469  24.587  0.00  0.00    +0.277 A 
ATOM     30  O   UNL     1      -1.752   0.058  24.717  0.00  0.00    -0.266 OA
ATOM     31  N   UNL     1      -2.727  -1.209  24.507  0.00  0.00    -0.298 N 
ATOM     32  C   UNL     1      -3.198  -1.674  24.407  0.00  0.00    +0.110 C 
ENDROOT
BRANCH   2   3
ATOM      3  C   UNL     1      -1.877  -0.556  24.684  0.00  0.00    +0.118 C 
BRANCH   3   4
ATOM      4  C   UNL     1      -1.374   0.086  24.803  0.00  0.00    +0.016 A 
ATOM      5  C   UNL     1      -1.241   0.469  25.522  0.00  0.00    +0.003 A 
ATOM      6  C   UNL     1      -0.701   1.079  25.389  0.00  0.00    +0.007 A 
ATOM      7  C   UNL     1      -0.501   1.073  24.589  0.00  0.00    +0.035 A 
ATOM      8  S   UNL     1      -0.917   0.459  24.227  0.00  0.00    -0.090 S 
ENDBRANCH   3   4
ENDBRANCH   2   3
BRANCH  18  19
ATOM     19  N   UNL     1      -2.469   0.956  24.587  0.00  0.00    -0.092 NA
BRANCH  19  20
ATOM     20  S   UNL     1      -2.920   1.641  24.504  0.00  0.00    +0.093 S 
ATOM     21  O   UNL     1      -2.760   1.649  23.695  0.00  0.00    -0.148 OA
ATOM     22  O   UNL     1      -3.080   1.634  25.313  0.00  0.00    -0.148 OA
BRANCH  20  23
ATOM     23  C   UNL     1      -3.372   2.327  24.422  0.00  0.00    +0.127 A 
ATOM     24  C   UNL     1      -3.472   2.669  23.678  0.00  0.00    +0.020 A 
ATOM     25  C   UNL     1      -3.923   3.355  23.596  0.00  0.00    +0.001 A 
ATOM     26  C   UNL     1      -4.275   3.698  24.258  0.00  0.00    +0.000 A 
ATOM     27  C   UNL     1      -4.175   3.356  25.003  0.00  0.00    +0.001 A 
ATOM     28  C   UNL     1      -3.724   2.671  25.084  0.00  0.00    +0.020 A 
ENDBRANCH  20  23
ENDBRANCH  19  20
ENDBRANCH  18  19
TORSDOF 5
ENDMDL
