MODEL 1
REMARK VINA RESULT:     -10.5      0.000      0.000
REMARK  Name = 
REMARK  7 active torsions:
REMARK  status: ('A' for Active; 'I' for Inactive)
REMARK    1  A    between atoms: N_2  and  C_4
REMARK    2  A    between atoms: C_7  and  C_10
REMARK    3  A    between atoms: N_12  and  C_13
REMARK    4  A    between atoms: C_13  and  C_14
REMARK    5  A    between atoms: C_16  and  C_17
REMARK    6  A    between atoms: C_17  and  C_18
REMARK    7  A    between atoms: N_23  and  C_26
REMARK                            x       y       z     vdW  Elec       q    Type
REMARK                         _______ _______ _______ _____ _____    ______ ____
ROOT
ATOM     14  C   UNL     1      -0.648   2.711  24.630  0.00  0.00    +0.170 C 
ATOM     15  O   UNL     1      -0.866   1.943  24.833  0.00  0.00    -0.351 OA
ATOM     16  C   UNL     1      -0.239   1.441  24.645  0.00  0.00    +0.157 C 
ATOM     32  C   UNL     1       0.367   1.899  24.325  0.00  0.00    +0.212 C 
ATOM     33  O   UNL     1       1.098   1.622  24.060  0.00  0.00    -0.218 OA
ATOM     34  C   UNL     1       0.115   2.685  24.316  0.00  0.00    +0.213 C 
ATOM     35  O   UNL     1       0.548   3.331  24.041  0.00  0.00    -0.218 OA
ENDROOT
BRANCH  14  13
ATOM     13  C   UNL     1      -1.110   3.388  24.725  0.00  0.00    +0.148 C 
BRANCH  13  12
ATOM     10  C   UNL     1      -2.362   3.975  25.084  0.00  0.00    +0.265 C 
ATOM     11  O   UNL     1      -1.989   4.702  25.198  0.00  0.00    -0.268 OA
ATOM     12  N   UNL     1      -1.923   3.319  24.847  0.00  0.00    -0.199 NA
BRANCH  10   7
ATOM      4  C   UNL     1      -4.801   3.767  25.452  0.00  0.00    +0.048 A 
ATOM      5  C   UNL     1      -4.498   3.768  24.685  0.00  0.00    +0.015 A 
ATOM      6  C   UNL     1      -3.685   3.837  24.562  0.00  0.00    +0.006 A 
ATOM      7  C   UNL     1      -3.175   3.906  25.206  0.00  0.00    +0.055 A 
ATOM      8  C   UNL     1      -3.478   3.905  25.975  0.00  0.00    +0.006 A 
ATOM      9  C   UNL     1      -4.291   3.836  26.097  0.00  0.00    +0.015 A 
BRANCH   4   2
ATOM      1  C   UNL     1      -5.949   2.956  25.708  0.00  0.00    +0.112 C 
ATOM      2  N   UNL     1      -5.613   3.698  25.575  0.00  0.00    -0.304 N 
ATOM      3  C   UNL     1      -6.091   4.371  25.565  0.00  0.00    +0.112 C 
ENDBRANCH   4   2
ENDBRANCH  10   7
ENDBRANCH  13  12
ENDBRANCH  14  13
BRANCH  16  17
ATOM     17  C   UNL     1      -0.221   0.624  24.756  0.00  0.00    +0.117 C 
BRANCH  17  18
ATOM     18  C   UNL     1      -0.695   0.276  25.336  0.00  0.00    +0.228 C 
ATOM     19  O   UNL     1      -0.584   0.472  26.130  0.00  0.00    -0.275 OA
ATOM     20  N   UNL     1      -1.278  -0.267  25.123  0.00  0.00    -0.276 N 
ATOM     21  C   UNL     1      -1.750  -0.615  25.702  0.00  0.00    +0.115 C 
ATOM     22  C   UNL     1      -2.333  -1.158  25.488  0.00  0.00    +0.112 C 
ATOM     23  N   UNL     1      -2.444  -1.353  24.695  0.00  0.00    -0.304 N 
ATOM     24  C   UNL     1      -1.971  -1.005  24.115  0.00  0.00    +0.112 C 
ATOM     25  C   UNL     1      -1.388  -0.463  24.328  0.00  0.00    +0.115 C 
BRANCH  23  26
ATOM     26  C   UNL     1      -3.027  -1.896  24.481  0.00  0.00    +0.048 A 
ATOM     27  C   UNL     1      -3.719  -1.636  24.116  0.00  0.00    +0.015 A 
ATOM     28  C   UNL     1      -4.302  -2.180  23.902  0.00  0.00    +0.001 A 
ATOM     29  C   UNL     1      -4.192  -2.983  24.054  0.00  0.00    +0.000 A 
ATOM     30  C   UNL     1      -3.500  -3.244  24.419  0.00  0.00    +0.001 A 
ATOM     31  C   UNL     1      -2.917  -2.700  24.633  0.00  0.00    +0.015 A 
ENDBRANCH  23  26
ENDBRANCH  17  18
ENDBRANCH  16  17
TORSDOF 7
ENDMDL
MODEL 2
REMARK VINA RESULT:      -9.6      1.012      1.554
REMARK  Name = 
REMARK  7 active torsions:
REMARK  status: ('A' for Active; 'I' for Inactive)
REMARK    1  A    between atoms: N_2  and  C_4
REMARK    2  A    between atoms: C_7  and  C_10
REMARK    3  A    between atoms: N_12  and  C_13
REMARK    4  A    between atoms: C_13  and  C_14
REMARK    5  A    between atoms: C_16  and  C_17
REMARK    6  A    between atoms: C_17  and  C_18
REMARK    7  A    between atoms: N_23  and  C_26
REMARK                            x       y       z     vdW  Elec       q    Type
REMARK                         _______ _______ _______ _____ _____    ______ ____
ROOT
ATOM     14  C   UNL     1      -1.318   3.034  25.302  0.00  0.00    +0.170 C 
ATOM     15  O   UNL     1      -1.245   2.218  25.208  0.00  0.00    -0.351 OA
ATOM     16  C   UNL     1      -0.470   2.007  25.403  0.00  0.00    +0.157 C 
ATOM     32  C   UNL     1      -0.066   2.694  25.617  0.00  0.00    +0.212 C 
ATOM     33  O   UNL     1       0.724   2.738  25.851  0.00  0.00    -0.218 OA
ATOM     34  C   UNL     1      -0.589   3.328  25.555  0.00  0.00    +0.213 C 
ATOM     35  O   UNL     1      -0.415   4.118  25.717  0.00  0.00    -0.218 OA
ENDROOT
BRANCH  14  13
ATOM     13  C   UNL     1      -2.000   3.478  25.168  0.00  0.00    +0.148 C 
BRANCH  13  12
ATOM     10  C   UNL     1      -3.404   3.455  24.906  0.00  0.00    +0.265 C 
ATOM     11  O   UNL     1      -3.323   4.111  24.412  0.00  0.00    -0.268 OA
ATOM     12  N   UNL     1      -2.743   3.139  25.283  0.00  0.00    -0.199 NA
BRANCH  10   7
ATOM      4  C   UNL     1      -5.634   2.437  25.252  0.00  0.00    +0.048 A 
ATOM      5  C   UNL     1      -5.414   3.105  25.683  0.00  0.00    +0.015 A 
ATOM      6  C   UNL     1      -4.671   3.445  25.568  0.00  0.00    +0.006 A 
ATOM      7  C   UNL     1      -4.148   3.116  25.021  0.00  0.00    +0.055 A 
ATOM      8  C   UNL     1      -4.367   2.447  24.590  0.00  0.00    +0.006 A 
ATOM      9  C   UNL     1      -5.110   2.108  24.706  0.00  0.00    +0.015 A 
BRANCH   4   2
ATOM      1  C   UNL     1      -6.849   1.907  24.719  0.00  0.00    +0.112 C 
ATOM      2  N   UNL     1      -6.376   2.097  25.368  0.00  0.00    -0.304 N 
ATOM      3  C   UNL     1      -6.647   1.948  26.133  0.00  0.00    +0.112 C 
ENDBRANCH   4   2
ENDBRANCH  10   7
ENDBRANCH  13  12
ENDBRANCH  14  13
BRANCH  16  17
ATOM     17  C   UNL     1      -0.157   1.245  25.385  0.00  0.00    +0.117 C 
BRANCH  17  18
ATOM     18  C   UNL     1      -0.230   0.783  24.705  0.00  0.00    +0.228 C 
ATOM     19  O   UNL     1       0.210   0.969  24.032  0.00  0.00    -0.275 OA
ATOM     20  N   UNL     1      -0.743   0.137  24.697  0.00  0.00    -0.276 N 
ATOM     21  C   UNL     1      -0.815  -0.324  24.018  0.00  0.00    +0.115 C 
ATOM     22  C   UNL     1      -1.328  -0.970  24.010  0.00  0.00    +0.112 C 
ATOM     23  N   UNL     1      -1.768  -1.156  24.683  0.00  0.00    -0.304 N 
ATOM     24  C   UNL     1      -1.695  -0.694  25.363  0.00  0.00    +0.112 C 
ATOM     25  C   UNL     1      -1.183  -0.048  25.371  0.00  0.00    +0.115 C 
BRANCH  23  26
ATOM     26  C   UNL     1      -2.281  -1.802  24.675  0.00  0.00    +0.048 A 
ATOM     27  C   UNL     1      -1.982  -2.564  24.583  0.00  0.00    +0.015 A 
ATOM     28  C   UNL     1      -2.495  -3.211  24.576  0.00  0.00    +0.001 A 
ATOM     29  C   UNL     1      -3.307  -3.093  24.660  0.00  0.00    +0.000 A 
ATOM     30  C   UNL     1      -3.607  -2.330  24.752  0.00  0.00    +0.001 A 
ATOM     31  C   UNL     1      -3.094  -1.684  24.759  0.00  0.00    +0.015 A 
ENDBRANCH  23  26
ENDBRANCH  17  18
ENDBRANCH  16  17
TORSDOF 7
ENDMDL
MODEL 3
REMARK VINA RESULT:      -9.5      1.783      4.716
REMARK  Name = 
REMARK  7 active torsions:
REMARK  status: ('A' for Active; 'I' for Inactive)
REMARK    1  A    between atoms: N_2  and  C_4
REMARK    2  A    between atoms: C_7  and  C_10
REMARK    3  A    between atoms: N_12  and  C_13
REMARK    4  A    between atoms: C_13  and  C_14
REMARK    5  A    between atoms: C_16  and  C_17
REMARK    6  A    between atoms: C_17  and  C_18
REMARK    7  A    between atoms: N_23  and  C_26
REMARK                            x       y       z     vdW  Elec       q    Type
REMARK                         _______ _______ _______ _____ _____    ______ ____
ROOT
ATOM     14  C   UNL     1      -3.592   2.664  25.064  0.00  0.00    +0.170 C 
ATOM     15  O   UNL     1      -2.781   2.556  24.963  0.00  0.00    -0.351 OA
ATOM     16  C   UNL     1      -2.420   3.298  24.983  0.00  0.00    +0.157 C 
ATOM     32  C   UNL     1      -3.008   3.864  25.096  0.00  0.00    +0.212 C 
ATOM     33  O   UNL     1      -2.893   4.679  25.150  0.00  0.00    -0.218 OA
ATOM     34  C   UNL     1      -3.733   3.473  25.146  0.00  0.00    +0.213 C 
ATOM     35  O   UNL     1      -4.469   3.827  25.259  0.00  0.00    -0.218 OA
ENDROOT
BRANCH  14  13
ATOM     13  C   UNL     1      -4.163   2.068  25.080  0.00  0.00    +0.148 C 
BRANCH  13  12
ATOM     10  C   UNL     1      -4.490   0.678  25.040  0.00  0.00    +0.265 C 
ATOM     11  O   UNL     1      -5.244   0.847  25.330  0.00  0.00    -0.268 OA
ATOM     12  N   UNL     1      -3.950   1.288  24.916  0.00  0.00    -0.199 NA
BRANCH  10   7
ATOM      4  C   UNL     1      -3.851  -1.662  24.547  0.00  0.00    +0.048 A 
ATOM      5  C   UNL     1      -3.717  -1.348  25.297  0.00  0.00    +0.015 A 
ATOM      6  C   UNL     1      -3.930  -0.568  25.462  0.00  0.00    +0.006 A 
ATOM      7  C   UNL     1      -4.277  -0.102  24.876  0.00  0.00    +0.055 A 
ATOM      8  C   UNL     1      -4.411  -0.417  24.124  0.00  0.00    +0.006 A 
ATOM      9  C   UNL     1      -4.198  -1.197  23.960  0.00  0.00    +0.015 A 
BRANCH   4   2
ATOM      1  C   UNL     1      -2.916  -2.738  24.648  0.00  0.00    +0.112 C 
ATOM      2  N   UNL     1      -3.638  -2.441  24.382  0.00  0.00    -0.304 N 
ATOM      3  C   UNL     1      -4.149  -2.926  23.950  0.00  0.00    +0.112 C 
ENDBRANCH   4   2
ENDBRANCH  10   7
ENDBRANCH  13  12
ENDBRANCH  14  13
BRANCH  16  17
ATOM     17  C   UNL     1      -1.613   3.446  24.903  0.00  0.00    +0.117 C 
BRANCH  17  18
ATOM     18  C   UNL     1      -1.064   2.972  25.299  0.00  0.00    +0.228 C 
ATOM     19  O   UNL     1      -1.021   2.992  26.122  0.00  0.00    -0.275 OA
ATOM     20  N   UNL     1      -0.561   2.479  24.871  0.00  0.00    -0.276 N 
ATOM     21  C   UNL     1      -0.013   2.005  25.266  0.00  0.00    +0.115 C 
ATOM     22  C   UNL     1       0.491   1.512  24.838  0.00  0.00    +0.112 C 
ATOM     23  N   UNL     1       0.447   1.492  24.014  0.00  0.00    -0.304 N 
ATOM     24  C   UNL     1      -0.101   1.966  23.619  0.00  0.00    +0.112 C 
ATOM     25  C   UNL     1      -0.605   2.459  24.047  0.00  0.00    +0.115 C 
BRANCH  23  26
ATOM     26  C   UNL     1       0.951   0.999  23.587  0.00  0.00    +0.048 A 
ATOM     27  C   UNL     1       1.741   1.209  23.478  0.00  0.00    +0.015 A 
ATOM     28  C   UNL     1       2.245   0.715  23.050  0.00  0.00    +0.001 A 
ATOM     29  C   UNL     1       1.958   0.011  22.731  0.00  0.00    +0.000 A 
ATOM     30  C   UNL     1       1.168  -0.200  22.839  0.00  0.00    +0.001 A 
ATOM     31  C   UNL     1       0.664   0.294  23.267  0.00  0.00    +0.015 A 
ENDBRANCH  23  26
ENDBRANCH  17  18
ENDBRANCH  16  17
TORSDOF 7
ENDMDL
MODEL 4
REMARK VINA RESULT:      -9.3      1.719      4.496
REMARK  Name = 
REMARK  7 active torsions:
REMARK  status: ('A' for Active; 'I' for Inactive)
REMARK    1  A    between atoms: N_2  and  C_4
REMARK    2  A    between atoms: C_7  and  C_10
REMARK    3  A    between atoms: N_12  and  C_13
REMARK    4  A    between atoms: C_13  and  C_14
REMARK    5  A    between atoms: C_16  and  C_17
REMARK    6  A    between atoms: C_17  and  C_18
REMARK    7  A    between atoms: N_23  and  C_26
REMARK                            x       y       z     vdW  Elec       q    Type
REMARK                         _______ _______ _______ _____ _____    ______ ____
ROOT
ATOM     14  C   UNL     1      -1.894  -1.031  24.767  0.00  0.00    +0.170 C 
ATOM     15  O   UNL     1      -1.471  -0.328  24.685  0.00  0.00    -0.351 OA
ATOM     16  C   UNL     1      -0.667  -0.503  24.751  0.00  0.00    +0.157 C 
ATOM     32  C   UNL     1      -0.594  -1.316  24.875  0.00  0.00    +0.212 C 
ATOM     33  O   UNL     1       0.113  -1.729  24.972  0.00  0.00    -0.218 OA
ATOM     34  C   UNL     1      -1.352  -1.642  24.885  0.00  0.00    +0.213 C 
ATOM     35  O   UNL     1      -1.535  -2.438  24.994  0.00  0.00    -0.218 OA
ENDROOT
BRANCH  14  13
ATOM     13  C   UNL     1      -2.715  -1.110  24.738  0.00  0.00    +0.148 C 
BRANCH  13  12
ATOM     10  C   UNL     1      -3.902  -0.350  24.507  0.00  0.00    +0.265 C 
ATOM     11  O   UNL     1      -4.123  -0.875  23.911  0.00  0.00    -0.268 OA
ATOM     12  N   UNL     1      -3.198  -0.468  24.920  0.00  0.00    -0.199 NA
BRANCH  10   7
ATOM      4  C   UNL     1      -5.353   1.579  25.056  0.00  0.00    +0.048 A 
ATOM      5  C   UNL     1      -5.489   0.847  25.410  0.00  0.00    +0.015 A 
ATOM      6  C   UNL     1      -5.006   0.204  25.228  0.00  0.00    +0.006 A 
ATOM      7  C   UNL     1      -4.386   0.293  24.690  0.00  0.00    +0.055 A 
ATOM      8  C   UNL     1      -4.249   1.026  24.336  0.00  0.00    +0.006 A 
ATOM      9  C   UNL     1      -4.733   1.669  24.519  0.00  0.00    +0.015 A 
BRANCH   4   2
ATOM      1  C   UNL     1      -6.641   2.198  25.059  0.00  0.00    +0.112 C 
ATOM      2  N   UNL     1      -5.836   2.222  25.239  0.00  0.00    -0.304 N 
ATOM      3  C   UNL     1      -5.514   2.890  25.603  0.00  0.00    +0.112 C 
ENDBRANCH   4   2
ENDBRANCH  10   7
ENDBRANCH  13  12
ENDBRANCH  14  13
BRANCH  16  17
ATOM     17  C   UNL     1      -0.047   0.038  24.702  0.00  0.00    +0.117 C 
BRANCH  17  18
ATOM     18  C   UNL     1      -0.048   0.615  24.112  0.00  0.00    +0.228 C 
ATOM     19  O   UNL     1       0.166   0.415  23.340  0.00  0.00    -0.275 OA
ATOM     20  N   UNL     1      -0.262   1.391  24.292  0.00  0.00    -0.276 N 
ATOM     21  C   UNL     1      -0.263   1.967  23.703  0.00  0.00    +0.115 C 
ATOM     22  C   UNL     1      -0.477   2.742  23.883  0.00  0.00    +0.112 C 
ATOM     23  N   UNL     1      -0.691   2.943  24.655  0.00  0.00    -0.304 N 
ATOM     24  C   UNL     1      -0.690   2.366  25.245  0.00  0.00    +0.112 C 
ATOM     25  C   UNL     1      -0.476   1.590  25.064  0.00  0.00    +0.115 C 
BRANCH  23  26
ATOM     26  C   UNL     1      -0.905   3.718  24.835  0.00  0.00    +0.048 A 
ATOM     27  C   UNL     1      -1.619   3.871  25.218  0.00  0.00    +0.015 A 
ATOM     28  C   UNL     1      -1.833   4.647  25.399  0.00  0.00    +0.001 A 
ATOM     29  C   UNL     1      -1.332   5.270  25.196  0.00  0.00    +0.000 A 
ATOM     30  C   UNL     1      -0.617   5.119  24.814  0.00  0.00    +0.001 A 
ATOM     31  C   UNL     1      -0.403   4.342  24.633  0.00  0.00    +0.015 A 
ENDBRANCH  23  26
ENDBRANCH  17  18
ENDBRANCH  16  17
TORSDOF 7
ENDMDL
MODEL 5
REMARK VINA RESULT:      -9.3      0.875      4.848
REMARK  Name = 
REMARK  7 active torsions:
REMARK  status: ('A' for Active; 'I' for Inactive)
REMARK    1  A    between atoms: N_2  and  C_4
REMARK    2  A    between atoms: C_7  and  C_10
REMARK    3  A    between atoms: N_12  and  C_13
REMARK    4  A    between atoms: C_13  and  C_14
REMARK    5  A    between atoms: C_16  and  C_17
REMARK    6  A    between atoms: C_17  and  C_18
REMARK    7  A    between atoms: N_23  and  C_26
REMARK                            x       y       z     vdW  Elec       q    Type
REMARK                         _______ _______ _______ _____ _____    ______ ____
ROOT
ATOM     14  C   UNL     1      -0.077   1.142  24.422  0.00  0.00    +0.170 C 
ATOM     15  O   UNL     1      -0.696   1.654  24.607  0.00  0.00    -0.351 OA
ATOM     16  C   UNL     1      -0.465   2.419  24.399  0.00  0.00    +0.157 C 
ATOM     32  C   UNL     1       0.296   2.379  24.084  0.00  0.00    +0.212 C 
ATOM     33  O   UNL     1       0.740   3.015  23.805  0.00  0.00    -0.218 OA
ATOM     34  C   UNL     1       0.537   1.589  24.098  0.00  0.00    +0.213 C 
ATOM     35  O   UNL     1       1.262   1.299  23.836  0.00  0.00    -0.218 OA
ENDROOT
BRANCH  14  13
ATOM     13  C   UNL     1      -0.072   0.325  24.539  0.00  0.00    +0.148 C 
BRANCH  13  12
ATOM     10  C   UNL     1      -0.816  -0.874  24.756  0.00  0.00    +0.265 C 
ATOM     11  O   UNL     1      -0.167  -1.209  25.139  0.00  0.00    -0.268 OA
ATOM     12  N   UNL     1      -0.769  -0.108  24.456  0.00  0.00    -0.199 NA
BRANCH  10   7
ATOM      4  C   UNL     1      -2.909  -2.174  24.507  0.00  0.00    +0.048 A 
ATOM      5  C   UNL     1      -2.937  -1.394  24.771  0.00  0.00    +0.015 A 
ATOM      6  C   UNL     1      -2.240  -0.960  24.854  0.00  0.00    +0.006 A 
ATOM      7  C   UNL     1      -1.514  -1.308  24.673  0.00  0.00    +0.055 A 
ATOM      8  C   UNL     1      -1.485  -2.089  24.409  0.00  0.00    +0.006 A 
ATOM      9  C   UNL     1      -2.183  -2.522  24.326  0.00  0.00    +0.015 A 
BRANCH   4   2
ATOM      1  C   UNL     1      -3.699  -3.320  24.829  0.00  0.00    +0.112 C 
ATOM      2  N   UNL     1      -3.605  -2.607  24.425  0.00  0.00    -0.304 N 
ATOM      3  C   UNL     1      -4.210  -2.327  23.936  0.00  0.00    +0.112 C 
ENDBRANCH   4   2
ENDBRANCH  10   7
ENDBRANCH  13  12
ENDBRANCH  14  13
BRANCH  16  17
ATOM     17  C   UNL     1      -0.917   3.103  24.489  0.00  0.00    +0.117 C 
BRANCH  17  18
ATOM     18  C   UNL     1      -1.273   3.271  25.215  0.00  0.00    +0.228 C 
ATOM     19  O   UNL     1      -0.805   3.426  25.877  0.00  0.00    -0.275 OA
ATOM     20  N   UNL     1      -2.095   3.282  25.279  0.00  0.00    -0.276 N 
ATOM     21  C   UNL     1      -2.450   3.450  26.004  0.00  0.00    +0.115 C 
ATOM     22  C   UNL     1      -3.272   3.461  26.068  0.00  0.00    +0.112 C 
ATOM     23  N   UNL     1      -3.740   3.306  25.407  0.00  0.00    -0.304 N 
ATOM     24  C   UNL     1      -3.384   3.138  24.681  0.00  0.00    +0.112 C 
ATOM     25  C   UNL     1      -2.562   3.126  24.617  0.00  0.00    +0.115 C 
BRANCH  23  26
ATOM     26  C   UNL     1      -4.562   3.318  25.471  0.00  0.00    +0.048 A 
ATOM     27  C   UNL     1      -4.966   4.036  25.470  0.00  0.00    +0.015 A 
ATOM     28  C   UNL     1      -5.789   4.048  25.534  0.00  0.00    +0.001 A 
ATOM     29  C   UNL     1      -6.206   3.340  25.599  0.00  0.00    +0.000 A 
ATOM     30  C   UNL     1      -5.804   2.620  25.601  0.00  0.00    +0.001 A 
ATOM     31  C   UNL     1      -4.981   2.609  25.537  0.00  0.00    +0.015 A 
ENDBRANCH  23  26
ENDBRANCH  17  18
ENDBRANCH  16  17
TORSDOF 7
ENDMDL
MODEL 6
REMARK VINA RESULT:      -9.0      1.672      4.202
REMARK  Name = 
REMARK  7 active torsions:
REMARK  status: ('A' for Active; 'I' for Inactive)
REMARK    1  A    between atoms: N_2  and  C_4
REMARK    2  A    between atoms: C_7  and  C_10
REMARK    3  A    between atoms: N_12  and  C_13
REMARK    4  A    between atoms: C_13  and  C_14
REMARK    5  A    between atoms: C_16  and  C_17
REMARK    6  A    between atoms: C_17  and  C_18
REMARK    7  A    between atoms: N_23  and  C_26
REMARK                            x       y       z     vdW  Elec       q    Type
REMARK                         _______ _______ _______ _____ _____    ______ ____
ROOT
ATOM     14  C   UNL     1      -2.547   3.301  25.481  0.00  0.00    +0.170 C 
ATOM     15  O   UNL     1      -2.992   2.650  25.239  0.00  0.00    -0.351 OA
ATOM     16  C   UNL     1      -3.784   2.804  25.411  0.00  0.00    +0.157 C 
ATOM     32  C   UNL     1      -3.829   3.551  25.760  0.00  0.00    +0.212 C 
ATOM     33  O   UNL     1      -4.517   3.925  26.019  0.00  0.00    -0.218 OA
ATOM     34  C   UNL     1      -3.064   3.858  25.803  0.00  0.00    +0.213 C 
ATOM     35  O   UNL     1      -2.854   4.593  26.113  0.00  0.00    -0.218 OA
ENDROOT
BRANCH  14  13
ATOM     13  C   UNL     1      -1.729   3.382  25.413  0.00  0.00    +0.148 C 
BRANCH  13  12
ATOM     10  C   UNL     1      -0.549   2.609  25.189  0.00  0.00    +0.265 C 
ATOM     11  O   UNL     1      -0.227   2.893  25.894  0.00  0.00    -0.268 OA
ATOM     12  N   UNL     1      -1.298   2.853  24.949  0.00  0.00    -0.199 NA
BRANCH  10   7
ATOM      4  C   UNL     1       0.741   1.020  23.795  0.00  0.00    +0.048 A 
ATOM      5  C   UNL     1       0.991   1.802  23.867  0.00  0.00    +0.015 A 
ATOM      6  C   UNL     1       0.561   2.332  24.332  0.00  0.00    +0.006 A 
ATOM      7  C   UNL     1      -0.119   2.079  24.724  0.00  0.00    +0.055 A 
ATOM      8  C   UNL     1      -0.369   1.295  24.653  0.00  0.00    +0.006 A 
ATOM      9  C   UNL     1       0.061   0.767  24.188  0.00  0.00    +0.015 A 
BRANCH   4   2
ATOM      1  C   UNL     1       0.818  -0.206  23.066  0.00  0.00    +0.112 C 
ATOM      2  N   UNL     1       1.170   0.491  23.331  0.00  0.00    -0.304 N 
ATOM      3  C   UNL     1       1.954   0.659  23.132  0.00  0.00    +0.112 C 
ENDBRANCH   4   2
ENDBRANCH  10   7
ENDBRANCH  13  12
ENDBRANCH  14  13
BRANCH  16  17
ATOM     17  C   UNL     1      -4.419   2.300  25.261  0.00  0.00    +0.117 C 
BRANCH  17  18
ATOM     18  C   UNL     1      -4.457   1.883  24.550  0.00  0.00    +0.228 C 
ATOM     19  O   UNL     1      -4.621   2.282  23.847  0.00  0.00    -0.275 OA
ATOM     20  N   UNL     1      -4.331   1.068  24.542  0.00  0.00    -0.276 N 
ATOM     21  C   UNL     1      -4.368   0.652  23.832  0.00  0.00    +0.115 C 
ATOM     22  C   UNL     1      -4.242  -0.163  23.824  0.00  0.00    +0.112 C 
ATOM     23  N   UNL     1      -4.078  -0.562  24.527  0.00  0.00    -0.304 N 
ATOM     24  C   UNL     1      -4.041  -0.145  25.238  0.00  0.00    +0.112 C 
ATOM     25  C   UNL     1      -4.167   0.670  25.246  0.00  0.00    +0.115 C 
BRANCH  23  26
ATOM     26  C   UNL     1      -3.952  -1.377  24.519  0.00  0.00    +0.048 A 
ATOM     27  C   UNL     1      -4.289  -1.842  23.927  0.00  0.00    +0.015 A 
ATOM     28  C   UNL     1      -4.163  -2.657  23.920  0.00  0.00    +0.001 A 
ATOM     29  C   UNL     1      -3.699  -3.007  24.504  0.00  0.00    +0.000 A 
ATOM     30  C   UNL     1      -3.361  -2.544  25.097  0.00  0.00    +0.001 A 
ATOM     31  C   UNL     1      -3.487  -1.728  25.104  0.00  0.00    +0.015 A 
ENDBRANCH  23  26
ENDBRANCH  17  18
ENDBRANCH  16  17
TORSDOF 7
ENDMDL
MODEL 7
REMARK VINA RESULT:      -8.7      1.654      4.044
REMARK  Name = 
REMARK  7 active torsions:
REMARK  status: ('A' for Active; 'I' for Inactive)
REMARK    1  A    between atoms: N_2  and  C_4
REMARK    2  A    between atoms: C_7  and  C_10
REMARK    3  A    between atoms: N_12  and  C_13
REMARK    4  A    between atoms: C_13  and  C_14
REMARK    5  A    between atoms: C_16  and  C_17
REMARK    6  A    between atoms: C_17  and  C_18
REMARK    7  A    between atoms: N_23  and  C_26
REMARK                            x       y       z     vdW  Elec       q    Type
REMARK                         _______ _______ _______ _____ _____    ______ ____
ROOT
ATOM     14  C   UNL     1      -0.818  -0.508  24.742  0.00  0.00    +0.170 C 
ATOM     15  O   UNL     1      -1.638  -0.453  24.818  0.00  0.00    -0.351 OA
ATOM     16  C   UNL     1      -1.937  -1.216  24.914  0.00  0.00    +0.157 C 
ATOM     32  C   UNL     1      -1.302  -1.743  24.898  0.00  0.00    +0.212 C 
ATOM     33  O   UNL     1      -1.350  -2.563  24.975  0.00  0.00    -0.218 OA
ATOM     34  C   UNL     1      -0.611  -1.305  24.792  0.00  0.00    +0.213 C 
ATOM     35  O   UNL     1       0.154  -1.611  24.744  0.00  0.00    -0.218 OA
ENDROOT
BRANCH  14  13
ATOM     13  C   UNL     1      -0.298   0.123  24.636  0.00  0.00    +0.148 C 
BRANCH  13  12
ATOM     10  C   UNL     1      -0.058   1.530  24.583  0.00  0.00    +0.265 C 
ATOM     11  O   UNL     1       0.700   1.391  24.290  0.00  0.00    -0.268 OA
ATOM     12  N   UNL     1      -0.556   0.897  24.756  0.00  0.00    -0.199 NA
BRANCH  10   7
ATOM      4  C   UNL     1      -0.837   3.852  24.942  0.00  0.00    +0.048 A 
ATOM      5  C   UNL     1      -0.534   3.417  25.573  0.00  0.00    +0.015 A 
ATOM      6  C   UNL     1      -0.274   2.643  25.454  0.00  0.00    +0.006 A 
ATOM      7  C   UNL     1      -0.318   2.305  24.703  0.00  0.00    +0.055 A 
ATOM      8  C   UNL     1      -0.621   2.741  24.070  0.00  0.00    +0.006 A 
ATOM      9  C   UNL     1      -0.880   3.514  24.191  0.00  0.00    +0.015 A 
BRANCH   4   2
ATOM      1  C   UNL     1      -1.825   4.766  25.421  0.00  0.00    +0.112 C 
ATOM      2  N   UNL     1      -1.096   4.626  25.061  0.00  0.00    -0.304 N 
ATOM      3  C   UNL     1      -0.626   5.261  24.821  0.00  0.00    +0.112 C 
ENDBRANCH   4   2
ENDBRANCH  10   7
ENDBRANCH  13  12
ENDBRANCH  14  13
BRANCH  16  17
ATOM     17  C   UNL     1      -2.731  -1.417  25.010  0.00  0.00    +0.117 C 
BRANCH  17  18
ATOM     18  C   UNL     1      -3.293  -1.153  24.465  0.00  0.00    +0.228 C 
ATOM     19  O   UNL     1      -3.381  -1.543  23.744  0.00  0.00    -0.275 OA
ATOM     20  N   UNL     1      -3.764  -0.500  24.642  0.00  0.00    -0.276 N 
ATOM     21  C   UNL     1      -4.325  -0.236  24.097  0.00  0.00    +0.115 C 
ATOM     22  C   UNL     1      -4.796   0.417  24.274  0.00  0.00    +0.112 C 
ATOM     23  N   UNL     1      -4.707   0.807  24.995  0.00  0.00    -0.304 N 
ATOM     24  C   UNL     1      -4.146   0.544  25.540  0.00  0.00    +0.112 C 
ATOM     25  C   UNL     1      -3.675  -0.110  25.364  0.00  0.00    +0.115 C 
BRANCH  23  26
ATOM     26  C   UNL     1      -5.179   1.461  25.172  0.00  0.00    +0.048 A 
ATOM     27  C   UNL     1      -4.834   2.203  25.275  0.00  0.00    +0.015 A 
ATOM     28  C   UNL     1      -5.307   2.856  25.451  0.00  0.00    +0.001 A 
ATOM     29  C   UNL     1      -6.123   2.766  25.525  0.00  0.00    +0.000 A 
ATOM     30  C   UNL     1      -6.469   2.025  25.422  0.00  0.00    +0.001 A 
ATOM     31  C   UNL     1      -5.996   1.371  25.245  0.00  0.00    +0.015 A 
ENDBRANCH  23  26
ENDBRANCH  17  18
ENDBRANCH  16  17
TORSDOF 7
ENDMDL
MODEL 8
REMARK VINA RESULT:      -7.1     19.288     20.484
REMARK  Name = 
REMARK  7 active torsions:
REMARK  status: ('A' for Active; 'I' for Inactive)
REMARK    1  A    between atoms: N_2  and  C_4
REMARK    2  A    between atoms: C_7  and  C_10
REMARK    3  A    between atoms: N_12  and  C_13
REMARK    4  A    between atoms: C_13  and  C_14
REMARK    5  A    between atoms: C_16  and  C_17
REMARK    6  A    between atoms: C_17  and  C_18
REMARK    7  A    between atoms: N_23  and  C_26
REMARK                            x       y       z     vdW  Elec       q    Type
REMARK                         _______ _______ _______ _____ _____    ______ ____
ROOT
ATOM     14  C   UNL     1      16.272  -7.310  26.500  0.00  0.00    +0.170 C 
ATOM     15  O   UNL     1      16.351  -6.524  26.265  0.00  0.00    -0.351 OA
ATOM     16  C   UNL     1      16.766  -6.511  25.552  0.00  0.00    +0.157 C 
ATOM     32  C   UNL     1      16.944  -7.290  25.346  0.00  0.00    +0.212 C 
ATOM     33  O   UNL     1      17.354  -7.532  24.673  0.00  0.00    -0.218 OA
ATOM     34  C   UNL     1      16.638  -7.784  25.932  0.00  0.00    +0.213 C 
ATOM     35  O   UNL     1      16.690  -8.607  25.948  0.00  0.00    -0.218 OA
ENDROOT
BRANCH  14  13
ATOM     13  C   UNL     1      15.894  -7.577  27.183  0.00  0.00    +0.148 C 
BRANCH  13  12
ATOM     10  C   UNL     1      15.351  -7.316  28.478  0.00  0.00    +0.265 C 
ATOM     11  O   UNL     1      15.187  -8.119  28.572  0.00  0.00    -0.268 OA
ATOM     12  N   UNL     1      15.704  -7.045  27.785  0.00  0.00    -0.199 NA
BRANCH  10   7
ATOM      4  C   UNL     1      14.781  -5.719  30.282  0.00  0.00    +0.048 A 
ATOM      5  C   UNL     1      15.564  -5.802  30.037  0.00  0.00    +0.015 A 
ATOM      6  C   UNL     1      15.755  -6.334  29.436  0.00  0.00    +0.006 A 
ATOM      7  C   UNL     1      15.161  -6.783  29.080  0.00  0.00    +0.055 A 
ATOM      8  C   UNL     1      14.377  -6.700  29.325  0.00  0.00    +0.006 A 
ATOM      9  C   UNL     1      14.188  -6.168  29.926  0.00  0.00    +0.015 A 
BRANCH   4   2
ATOM      1  C   UNL     1      13.995  -5.370  31.423  0.00  0.00    +0.112 C 
ATOM      2  N   UNL     1      14.591  -5.187  30.883  0.00  0.00    -0.304 N 
ATOM      3  C   UNL     1      14.998  -4.471  30.944  0.00  0.00    +0.112 C 
ENDBRANCH   4   2
ENDBRANCH  10   7
ENDBRANCH  13  12
ENDBRANCH  14  13
BRANCH  16  17
ATOM     17  C   UNL     1      16.968  -5.837  25.121  0.00  0.00    +0.117 C 
BRANCH  17  18
ATOM     18  C   UNL     1      17.177  -5.142  25.514  0.00  0.00    +0.228 C 
ATOM     19  O   UNL     1      17.405  -5.170  26.306  0.00  0.00    -0.275 OA
ATOM     20  N   UNL     1      17.157  -4.420  25.115  0.00  0.00    -0.276 N 
ATOM     21  C   UNL     1      17.365  -3.726  25.508  0.00  0.00    +0.115 C 
ATOM     22  C   UNL     1      17.345  -3.005  25.110  0.00  0.00    +0.112 C 
ATOM     23  N   UNL     1      17.117  -2.977  24.317  0.00  0.00    -0.304 N 
ATOM     24  C   UNL     1      16.908  -3.672  23.924  0.00  0.00    +0.112 C 
ATOM     25  C   UNL     1      16.928  -4.393  24.323  0.00  0.00    +0.115 C 
BRANCH  23  26
ATOM     26  C   UNL     1      17.097  -2.255  23.919  0.00  0.00    +0.048 A 
ATOM     27  C   UNL     1      17.269  -1.556  24.321  0.00  0.00    +0.015 A 
ATOM     28  C   UNL     1      17.249  -0.834  23.922  0.00  0.00    +0.001 A 
ATOM     29  C   UNL     1      17.056  -0.812  23.120  0.00  0.00    +0.000 A 
ATOM     30  C   UNL     1      16.884  -1.510  22.717  0.00  0.00    +0.001 A 
ATOM     31  C   UNL     1      16.904  -2.232  23.117  0.00  0.00    +0.015 A 
ENDBRANCH  23  26
ENDBRANCH  17  18
ENDBRANCH  16  17
TORSDOF 7
ENDMDL
MODEL 9
REMARK VINA RESULT:      -6.6     15.792     18.403
REMARK  Name = 
REMARK  7 active torsions:
REMARK  status: ('A' for Active; 'I' for Inactive)
REMARK    1  A    between atoms: N_2  and  C_4
REMARK    2  A    between atoms: C_7  and  C_10
REMARK    3  A    between atoms: N_12  and  C_13
REMARK    4  A    between atoms: C_13  and  C_14
REMARK    5  A    between atoms: C_16  and  C_17
REMARK    6  A    between atoms: C_17  and  C_18
REMARK    7  A    between atoms: N_23  and  C_26
REMARK                            x       y       z     vdW  Elec       q    Type
REMARK                         _______ _______ _______ _____ _____    ______ ____
ROOT
ATOM     14  C   UNL     1      15.631   7.103  19.384  0.00  0.00    +0.170 C 
ATOM     15  O   UNL     1      15.175   7.396  20.005  0.00  0.00    -0.351 OA
ATOM     16  C   UNL     1      15.549   7.196  20.713  0.00  0.00    +0.157 C 
ATOM     32  C   UNL     1      16.237   6.779  20.529  0.00  0.00    +0.212 C 
ATOM     33  O   UNL     1      16.779   6.474  21.070  0.00  0.00    -0.218 OA
ATOM     34  C   UNL     1      16.288   6.722  19.707  0.00  0.00    +0.213 C 
ATOM     35  O   UNL     1      16.889   6.350  19.283  0.00  0.00    -0.218 OA
ENDROOT
BRANCH  14  13
ATOM     13  C   UNL     1      15.461   7.178  18.580  0.00  0.00    +0.148 C 
BRANCH  13  12
ATOM     10  C   UNL     1      14.453   7.382  17.589  0.00  0.00    +0.265 C 
ATOM     11  O   UNL     1      14.849   6.868  17.080  0.00  0.00    -0.268 OA
ATOM     12  N   UNL     1      14.759   7.537  18.338  0.00  0.00    -0.199 NA
BRANCH  10   7
ATOM      4  C   UNL     1      12.346   8.460  16.864  0.00  0.00    +0.048 A 
ATOM      5  C   UNL     1      13.067   8.725  16.567  0.00  0.00    +0.015 A 
ATOM      6  C   UNL     1      13.770   8.366  16.808  0.00  0.00    +0.006 A 
ATOM      7  C   UNL     1      13.750   7.742  17.347  0.00  0.00    +0.055 A 
ATOM      8  C   UNL     1      13.028   7.476  17.645  0.00  0.00    +0.006 A 
ATOM      9  C   UNL     1      12.326   7.836  17.403  0.00  0.00    +0.015 A 
BRANCH   4   2
ATOM      1  C   UNL     1      11.020   8.906  17.156  0.00  0.00    +0.112 C 
ATOM      2  N   UNL     1      11.644   8.819  16.623  0.00  0.00    -0.304 N 
ATOM      3  C   UNL     1      11.564   9.091  15.847  0.00  0.00    +0.112 C 
ENDBRANCH   4   2
ENDBRANCH  10   7
ENDBRANCH  13  12
ENDBRANCH  14  13
BRANCH  16  17
ATOM     17  C   UNL     1      15.282   7.380  21.471  0.00  0.00    +0.117 C 
BRANCH  17  18
ATOM     18  C   UNL     1      14.952   8.120  21.625  0.00  0.00    +0.228 C 
ATOM     19  O   UNL     1      15.433   8.791  21.635  0.00  0.00    -0.275 OA
ATOM     20  N   UNL     1      14.143   8.190  21.768  0.00  0.00    -0.276 N 
ATOM     21  C   UNL     1      13.814   8.931  21.921  0.00  0.00    +0.115 C 
ATOM     22  C   UNL     1      13.004   9.001  22.065  0.00  0.00    +0.112 C 
ATOM     23  N   UNL     1      12.524   8.330  22.055  0.00  0.00    -0.304 N 
ATOM     24  C   UNL     1      12.854   7.589  21.901  0.00  0.00    +0.112 C 
ATOM     25  C   UNL     1      13.663   7.519  21.758  0.00  0.00    +0.115 C 
BRANCH  23  26
ATOM     26  C   UNL     1      11.715   8.400  22.198  0.00  0.00    +0.048 A 
ATOM     27  C   UNL     1      11.189   7.854  21.873  0.00  0.00    +0.015 A 
ATOM     28  C   UNL     1      10.380   7.925  22.016  0.00  0.00    +0.001 A 
ATOM     29  C   UNL     1      10.097   8.541  22.486  0.00  0.00    +0.000 A 
ATOM     30  C   UNL     1      10.621   9.087  22.812  0.00  0.00    +0.001 A 
ATOM     31  C   UNL     1      11.431   9.017  22.668  0.00  0.00    +0.015 A 
ENDBRANCH  23  26
ENDBRANCH  17  18
ENDBRANCH  16  17
TORSDOF 7
ENDMDL
