MODEL 1
REMARK VINA RESULT:     -10.6      0.000      0.000
REMARK  Name = 
REMARK  6 active torsions:
REMARK  status: ('A' for Active; 'I' for Inactive)
REMARK    1  A    between atoms: C_3  and  N_17
REMARK    2  A    between atoms: C_6  and  C_7
REMARK    3  A    between atoms: C_7  and  N_8
REMARK    4  A    between atoms: C_9  and  C_11
REMARK    5  A    between atoms: N_17  and  C_18
REMARK    6  A    between atoms: C_18  and  C_19
REMARK                            x       y       z     vdW  Elec       q    Type
REMARK                         _______ _______ _______ _____ _____    ______ ____
ROOT
ATOM      1  O   UNL     1      -1.690   0.268  26.015  0.00  0.00    -0.219 OA
ATOM      2  C   UNL     1      -1.535   0.393  25.214  0.00  0.00    +0.199 C 
ATOM      3  C   UNL     1      -1.748  -0.109  24.595  0.00  0.00    +0.135 C 
ATOM      4  C   UNL     1      -1.485   0.230  23.891  0.00  0.00    +0.162 C 
ATOM      5  O   UNL     1      -1.111   0.942  24.074  0.00  0.00    -0.350 OA
ATOM      6  C   UNL     1      -1.141   1.043  24.892  0.00  0.00    +0.169 C 
ENDROOT
BRANCH   6   7
ATOM      7  C   UNL     1      -0.833   1.681  25.314  0.00  0.00    +0.148 C 
BRANCH   7   8
ATOM      8  N   UNL     1      -1.096   2.446  25.154  0.00  0.00    -0.199 NA
ATOM      9  C   UNL     1      -0.752   3.090  25.541  0.00  0.00    +0.265 C 
ATOM     10  O   UNL     1      -0.146   2.967  26.086  0.00  0.00    -0.268 OA
BRANCH   9  11
ATOM     11  C   UNL     1      -1.015   3.855  25.381  0.00  0.00    +0.055 A 
ATOM     12  C   UNL     1      -1.750   4.105  25.662  0.00  0.00    +0.005 A 
ATOM     13  C   UNL     1      -2.013   4.871  25.503  0.00  0.00    +0.000 A 
ATOM     14  C   UNL     1      -1.542   5.386  25.063  0.00  0.00    +0.000 A 
ATOM     15  C   UNL     1      -0.807   5.136  24.782  0.00  0.00    +0.000 A 
ATOM     16  C   UNL     1      -0.544   4.370  24.941  0.00  0.00    +0.005 A 
ENDBRANCH   9  11
ENDBRANCH   7   8
ENDBRANCH   6   7
BRANCH   3  17
ATOM     17  N   UNL     1      -2.152  -0.825  24.668  0.00  0.00    -0.209 NA
BRANCH  17  18
ATOM     18  C   UNL     1      -2.879  -0.929  24.292  0.00  0.00    +0.117 C 
BRANCH  18  19
ATOM     19  C   UNL     1      -3.245  -1.667  24.299  0.00  0.00    +0.023 A 
ATOM     20  C   UNL     1      -2.873  -2.310  24.659  0.00  0.00    -0.001 A 
ATOM     21  C   UNL     1      -3.240  -3.048  24.666  0.00  0.00    -0.000 A 
ATOM     22  C   UNL     1      -3.979  -3.144  24.313  0.00  0.00    +0.002 A 
ATOM     23  C   UNL     1      -4.352  -2.503  23.953  0.00  0.00    +0.029 A 
ATOM     24  C   UNL     1      -3.985  -1.763  23.946  0.00  0.00    +0.137 A 
ATOM     25  F   UNL     1      -4.357  -1.122  23.586  0.00  0.00    -0.204 F 
ENDBRANCH  18  19
ENDBRANCH  17  18
ENDBRANCH   3  17
TORSDOF 6
ENDMDL
MODEL 2
REMARK VINA RESULT:     -10.6      1.379      5.743
REMARK  Name = 
REMARK  6 active torsions:
REMARK  status: ('A' for Active; 'I' for Inactive)
REMARK    1  A    between atoms: C_3  and  N_17
REMARK    2  A    between atoms: C_6  and  C_7
REMARK    3  A    between atoms: C_7  and  N_8
REMARK    4  A    between atoms: C_9  and  C_11
REMARK    5  A    between atoms: N_17  and  C_18
REMARK    6  A    between atoms: C_18  and  C_19
REMARK                            x       y       z     vdW  Elec       q    Type
REMARK                         _______ _______ _______ _____ _____    ______ ____
ROOT
ATOM      1  O   UNL     1      -1.084   1.237  23.783  0.00  0.00    -0.219 OA
ATOM      2  C   UNL     1      -1.030   1.115  24.597  0.00  0.00    +0.199 C 
ATOM      3  C   UNL     1      -0.936   1.701  25.170  0.00  0.00    +0.135 C 
ATOM      4  C   UNL     1      -0.908   1.334  25.908  0.00  0.00    +0.162 C 
ATOM      5  O   UNL     1      -0.986   0.520  25.791  0.00  0.00    -0.350 OA
ATOM      6  C   UNL     1      -1.061   0.385  24.982  0.00  0.00    +0.169 C 
ENDROOT
BRANCH   6   7
ATOM      7  C   UNL     1      -1.151  -0.350  24.619  0.00  0.00    +0.148 C 
BRANCH   7   8
ATOM      8  N   UNL     1      -1.888  -0.720  24.615  0.00  0.00    -0.199 NA
ATOM      9  C   UNL     1      -1.956  -1.504  24.365  0.00  0.00    +0.265 C 
ATOM     10  O   UNL     1      -1.285  -1.916  24.118  0.00  0.00    -0.268 OA
BRANCH   9  11
ATOM     11  C   UNL     1      -2.693  -1.873  24.360  0.00  0.00    +0.055 A 
ATOM     12  C   UNL     1      -2.796  -2.591  24.754  0.00  0.00    +0.005 A 
ATOM     13  C   UNL     1      -3.533  -2.961  24.749  0.00  0.00    +0.000 A 
ATOM     14  C   UNL     1      -4.167  -2.613  24.352  0.00  0.00    +0.000 A 
ATOM     15  C   UNL     1      -4.064  -1.895  23.959  0.00  0.00    +0.000 A 
ATOM     16  C   UNL     1      -3.327  -1.525  23.963  0.00  0.00    +0.005 A 
ENDBRANCH   9  11
ENDBRANCH   7   8
ENDBRANCH   6   7
BRANCH   3  17
ATOM     17  N   UNL     1      -0.879   2.512  25.029  0.00  0.00    -0.209 NA
BRANCH  17  18
ATOM     18  C   UNL     1      -1.245   3.046  25.541  0.00  0.00    +0.117 C 
BRANCH  18  19
ATOM     19  C   UNL     1      -1.276   3.847  25.348  0.00  0.00    +0.023 A 
ATOM     20  C   UNL     1      -0.645   4.201  24.950  0.00  0.00    -0.001 A 
ATOM     21  C   UNL     1      -0.676   5.002  24.757  0.00  0.00    -0.000 A 
ATOM     22  C   UNL     1      -1.337   5.450  24.962  0.00  0.00    +0.002 A 
ATOM     23  C   UNL     1      -1.968   5.098  25.360  0.00  0.00    +0.029 A 
ATOM     24  C   UNL     1      -1.937   4.296  25.553  0.00  0.00    +0.137 A 
ATOM     25  F   UNL     1      -2.568   3.943  25.951  0.00  0.00    -0.204 F 
ENDBRANCH  18  19
ENDBRANCH  17  18
ENDBRANCH   3  17
TORSDOF 6
ENDMDL
MODEL 3
REMARK VINA RESULT:     -10.5      1.606      1.839
REMARK  Name = 
REMARK  6 active torsions:
REMARK  status: ('A' for Active; 'I' for Inactive)
REMARK    1  A    between atoms: C_3  and  N_17
REMARK    2  A    between atoms: C_6  and  C_7
REMARK    3  A    between atoms: C_7  and  N_8
REMARK    4  A    between atoms: C_9  and  C_11
REMARK    5  A    between atoms: N_17  and  C_18
REMARK    6  A    between atoms: C_18  and  C_19
REMARK                            x       y       z     vdW  Elec       q    Type
REMARK                         _______ _______ _______ _____ _____    ______ ____
ROOT
ATOM      1  O   UNL     1      -4.173   1.112  25.462  0.00  0.00    -0.219 OA
ATOM      2  C   UNL     1      -3.790   1.207  24.738  0.00  0.00    +0.199 C 
ATOM      3  C   UNL     1      -3.663   0.618  24.175  0.00  0.00    +0.135 C 
ATOM      4  C   UNL     1      -3.262   0.955  23.539  0.00  0.00    +0.162 C 
ATOM      5  O   UNL     1      -3.139   1.753  23.708  0.00  0.00    -0.350 OA
ATOM      6  C   UNL     1      -3.466   1.909  24.449  0.00  0.00    +0.169 C 
ENDROOT
BRANCH   6   7
ATOM      7  C   UNL     1      -3.468   2.638  24.834  0.00  0.00    +0.148 C 
BRANCH   7   8
ATOM      8  N   UNL     1      -2.827   3.150  24.751  0.00  0.00    -0.199 NA
ATOM      9  C   UNL     1      -2.750   3.800  25.255  0.00  0.00    +0.265 C 
ATOM     10  O   UNL     1      -3.314   3.937  25.840  0.00  0.00    -0.268 OA
BRANCH   9  11
ATOM     11  C   UNL     1      -2.108   4.312  25.172  0.00  0.00    +0.055 A 
ATOM     12  C   UNL     1      -2.233   5.127  25.138  0.00  0.00    +0.005 A 
ATOM     13  C   UNL     1      -1.592   5.639  25.055  0.00  0.00    +0.000 A 
ATOM     14  C   UNL     1      -0.825   5.336  25.006  0.00  0.00    +0.000 A 
ATOM     15  C   UNL     1      -0.701   4.521  25.039  0.00  0.00    +0.000 A 
ATOM     16  C   UNL     1      -1.342   4.009  25.122  0.00  0.00    +0.005 A 
ENDBRANCH   9  11
ENDBRANCH   7   8
ENDBRANCH   6   7
BRANCH   3  17
ATOM     17  N   UNL     1      -3.898  -0.171  24.237  0.00  0.00    -0.209 NA
BRANCH  17  18
ATOM     18  C   UNL     1      -3.331  -0.766  24.304  0.00  0.00    +0.117 C 
BRANCH  18  19
ATOM     19  C   UNL     1      -3.560  -1.558  24.286  0.00  0.00    +0.023 A 
ATOM     20  C   UNL     1      -4.215  -1.789  23.841  0.00  0.00    -0.001 A 
ATOM     21  C   UNL     1      -4.443  -2.581  23.823  0.00  0.00    -0.000 A 
ATOM     22  C   UNL     1      -4.017  -3.143  24.251  0.00  0.00    +0.002 A 
ATOM     23  C   UNL     1      -3.362  -2.913  24.697  0.00  0.00    +0.029 A 
ATOM     24  C   UNL     1      -3.134  -2.120  24.714  0.00  0.00    +0.137 A 
ATOM     25  F   UNL     1      -2.479  -1.890  25.160  0.00  0.00    -0.204 F 
ENDBRANCH  18  19
ENDBRANCH  17  18
ENDBRANCH   3  17
TORSDOF 6
ENDMDL
MODEL 4
REMARK VINA RESULT:     -10.5      1.930      6.093
REMARK  Name = 
REMARK  6 active torsions:
REMARK  status: ('A' for Active; 'I' for Inactive)
REMARK    1  A    between atoms: C_3  and  N_17
REMARK    2  A    between atoms: C_6  and  C_7
REMARK    3  A    between atoms: C_7  and  N_8
REMARK    4  A    between atoms: C_9  and  C_11
REMARK    5  A    between atoms: N_17  and  C_18
REMARK    6  A    between atoms: C_18  and  C_19
REMARK                            x       y       z     vdW  Elec       q    Type
REMARK                         _______ _______ _______ _____ _____    ______ ____
ROOT
ATOM      1  O   UNL     1      -3.913   2.276  24.445  0.00  0.00    -0.219 OA
ATOM      2  C   UNL     1      -3.228   1.880  24.677  0.00  0.00    +0.199 C 
ATOM      3  C   UNL     1      -2.517   2.232  24.902  0.00  0.00    +0.135 C 
ATOM      4  C   UNL     1      -1.984   1.631  25.089  0.00  0.00    +0.162 C 
ATOM      5  O   UNL     1      -2.365   0.908  24.980  0.00  0.00    -0.350 OA
ATOM      6  C   UNL     1      -3.134   1.061  24.725  0.00  0.00    +0.169 C 
ENDROOT
BRANCH   6   7
ATOM      7  C   UNL     1      -3.709   0.496  24.550  0.00  0.00    +0.148 C 
BRANCH   7   8
ATOM      8  N   UNL     1      -3.517  -0.306  24.570  0.00  0.00    -0.199 NA
ATOM      9  C   UNL     1      -4.103  -0.873  24.441  0.00  0.00    +0.265 C 
ATOM     10  O   UNL     1      -4.879  -0.637  24.292  0.00  0.00    -0.268 OA
BRANCH   9  11
ATOM     11  C   UNL     1      -3.912  -1.675  24.460  0.00  0.00    +0.055 A 
ATOM     12  C   UNL     1      -3.539  -1.994  25.124  0.00  0.00    +0.005 A 
ATOM     13  C   UNL     1      -3.348  -2.796  25.144  0.00  0.00    +0.000 A 
ATOM     14  C   UNL     1      -3.530  -3.280  24.500  0.00  0.00    +0.000 A 
ATOM     15  C   UNL     1      -3.902  -2.961  23.837  0.00  0.00    +0.000 A 
ATOM     16  C   UNL     1      -4.094  -2.159  23.817  0.00  0.00    +0.005 A 
ENDBRANCH   9  11
ENDBRANCH   7   8
ENDBRANCH   6   7
BRANCH   3  17
ATOM     17  N   UNL     1      -2.366   3.042  24.933  0.00  0.00    -0.209 NA
BRANCH  17  18
ATOM     18  C   UNL     1      -1.598   3.314  25.065  0.00  0.00    +0.117 C 
BRANCH  18  19
ATOM     19  C   UNL     1      -1.434   4.121  25.029  0.00  0.00    +0.023 A 
ATOM     20  C   UNL     1      -1.987   4.668  25.305  0.00  0.00    -0.001 A 
ATOM     21  C   UNL     1      -1.823   5.475  25.269  0.00  0.00    -0.000 A 
ATOM     22  C   UNL     1      -1.105   5.737  24.957  0.00  0.00    +0.002 A 
ATOM     23  C   UNL     1      -0.552   5.191  24.681  0.00  0.00    +0.029 A 
ATOM     24  C   UNL     1      -0.716   4.383  24.717  0.00  0.00    +0.137 A 
ATOM     25  F   UNL     1      -0.163   3.837  24.441  0.00  0.00    -0.204 F 
ENDBRANCH  18  19
ENDBRANCH  17  18
ENDBRANCH   3  17
TORSDOF 6
ENDMDL
MODEL 5
REMARK VINA RESULT:      -7.2     14.355     16.500
REMARK  Name = 
REMARK  6 active torsions:
REMARK  status: ('A' for Active; 'I' for Inactive)
REMARK    1  A    between atoms: C_3  and  N_17
REMARK    2  A    between atoms: C_6  and  C_7
REMARK    3  A    between atoms: C_7  and  N_8
REMARK    4  A    between atoms: C_9  and  C_11
REMARK    5  A    between atoms: N_17  and  C_18
REMARK    6  A    between atoms: C_18  and  C_19
REMARK                            x       y       z     vdW  Elec       q    Type
REMARK                         _______ _______ _______ _____ _____    ______ ____
ROOT
ATOM      1  O   UNL     1      -2.894 -10.562  14.376  0.00  0.00    -0.219 OA
ATOM      2  C   UNL     1      -3.672 -10.520  14.105  0.00  0.00    +0.199 C 
ATOM      3  C   UNL     1      -4.350 -10.529  14.574  0.00  0.00    +0.135 C 
ATOM      4  C   UNL     1      -5.005 -10.476  14.077  0.00  0.00    +0.162 C 
ATOM      5  O   UNL     1      -4.732 -10.433  13.299  0.00  0.00    -0.350 OA
ATOM      6  C   UNL     1      -3.909 -10.461  13.316  0.00  0.00    +0.169 C 
ENDROOT
BRANCH   6   7
ATOM      7  C   UNL     1      -3.409 -10.433  12.661  0.00  0.00    +0.148 C 
BRANCH   7   8
ATOM      8  N   UNL     1      -3.703 -10.199  11.927  0.00  0.00    -0.199 NA
ATOM      9  C   UNL     1      -3.210 -10.198  11.266  0.00  0.00    +0.265 C 
ATOM     10  O   UNL     1      -2.422 -10.432  11.339  0.00  0.00    -0.268 OA
BRANCH   9  11
ATOM     11  C   UNL     1      -3.505  -9.964  10.532  0.00  0.00    +0.055 A 
ATOM     12  C   UNL     1      -3.869 -10.516  10.038  0.00  0.00    +0.005 A 
ATOM     13  C   UNL     1      -4.164 -10.281   9.304  0.00  0.00    +0.000 A 
ATOM     14  C   UNL     1      -4.094  -9.495   9.064  0.00  0.00    +0.000 A 
ATOM     15  C   UNL     1      -3.730  -8.943   9.557  0.00  0.00    +0.000 A 
ATOM     16  C   UNL     1      -3.435  -9.177  10.291  0.00  0.00    +0.005 A 
ENDBRANCH   9  11
ENDBRANCH   7   8
ENDBRANCH   6   7
BRANCH   3  17
ATOM     17  N   UNL     1      -4.369 -10.583  15.398  0.00  0.00    -0.209 NA
BRANCH  17  18
ATOM     18  C   UNL     1      -5.055 -10.380  15.809  0.00  0.00    +0.117 C 
BRANCH  18  19
ATOM     19  C   UNL     1      -5.086 -10.465  16.628  0.00  0.00    +0.023 A 
ATOM     20  C   UNL     1      -4.409 -10.685  17.046  0.00  0.00    -0.001 A 
ATOM     21  C   UNL     1      -4.440 -10.771  17.866  0.00  0.00    -0.000 A 
ATOM     22  C   UNL     1      -5.147 -10.636  18.268  0.00  0.00    +0.002 A 
ATOM     23  C   UNL     1      -5.824 -10.415  17.851  0.00  0.00    +0.029 A 
ATOM     24  C   UNL     1      -5.793 -10.330  17.031  0.00  0.00    +0.137 A 
ATOM     25  F   UNL     1      -6.470 -10.110  16.613  0.00  0.00    -0.204 F 
ENDBRANCH  18  19
ENDBRANCH  17  18
ENDBRANCH   3  17
TORSDOF 6
ENDMDL
