MODEL 1
REMARK VINA RESULT:     -13.1      0.000      0.000
REMARK  Name = 
REMARK  6 active torsions:
REMARK  status: ('A' for Active; 'I' for Inactive)
REMARK    1  A    between atoms: C_2  and  C_25
REMARK    2  A    between atoms: C_9  and  N_10
REMARK    3  A    between atoms: C_11  and  C_13
REMARK    4  A    between atoms: C_25  and  C_27
REMARK    5  A    between atoms: N_29  and  C_30
REMARK    6  A    between atoms: N_29  and  C_32
REMARK                            x       y       z     vdW  Elec       q    Type
REMARK                         _______ _______ _______ _____ _____    ______ ____
ROOT
ATOM      1  C   UNL     1      -4.128   0.125  24.536  0.00  0.00    +0.052 C 
ATOM      2  C   UNL     1      -4.834   0.312  24.918  0.00  0.00    -0.001 C 
ATOM      3  C   UNL     1      -4.977   1.086  25.165  0.00  0.00    -0.000 C 
ATOM      4  C   UNL     1      -4.412   1.673  25.030  0.00  0.00    -0.001 C 
ATOM      5  C   UNL     1      -5.119   1.861  25.412  0.00  0.00    -0.000 C 
ATOM      6  C   UNL     1      -4.555   2.447  25.277  0.00  0.00    +0.002 C 
ATOM      7  C   UNL     1      -3.990   3.033  25.142  0.00  0.00    +0.022 C 
ATOM      8  C   UNL     1      -3.283   2.846  24.760  0.00  0.00    +0.095 C 
ATOM     18  C   UNL     1      -3.141   2.072  24.513  0.00  0.00    +0.019 C 
ATOM     19  C   UNL     1      -2.434   1.884  24.132  0.00  0.00    +0.002 C 
ATOM     20  C   UNL     1      -3.705   1.485  24.648  0.00  0.00    +0.045 C 
ATOM     21  C   UNL     1      -3.563   0.712  24.401  0.00  0.00    +0.145 C 
ATOM     22  O   UNL     1      -2.856   0.523  24.019  0.00  0.00    -0.224 OA
ENDROOT
BRANCH   8   9
ATOM      9  N   UNL     1      -2.719   3.431  24.626  0.00  0.00    -0.207 NA
ATOM     10  C   UNL     1      -2.421   3.871  25.258  0.00  0.00    +0.241 C 
ATOM     11  O   UNL     1      -2.688   3.724  26.025  0.00  0.00    -0.273 OA
BRANCH  10  12
ATOM     12  C   UNL     1      -1.857   4.458  25.123  0.00  0.00    +0.078 C 
ATOM     13  C   UNL     1      -2.083   5.251  25.108  0.00  0.00    +0.009 C 
ATOM     14  C   UNL     1      -1.518   5.837  24.973  0.00  0.00    +0.000 C 
ATOM     15  C   UNL     1      -0.728   5.630  24.854  0.00  0.00    +0.000 C 
ATOM     16  C   UNL     1      -0.503   4.836  24.869  0.00  0.00    +0.000 C 
ATOM     17  C   UNL     1      -1.067   4.250  25.004  0.00  0.00    +0.009 C 
ENDBRANCH  10  12
ENDBRANCH   8   9
BRANCH   1  23
ATOM     23  C   UNL     1      -3.985  -0.650  24.289  0.00  0.00    +0.075 C 
ATOM     24  C   UNL     1      -4.062  -0.850  23.493  0.00  0.00    +0.009 C 
BRANCH  23  25
ATOM     25  C   UNL     1      -3.765  -1.224  24.839  0.00  0.00    +0.225 C 
ATOM     26  O   UNL     1      -3.534  -1.000  25.599  0.00  0.00    -0.275 OA
ATOM     27  N   UNL     1      -3.776  -2.022  24.630  0.00  0.00    -0.280 N 
BRANCH  27  28
ATOM     28  C   UNL     1      -3.557  -2.595  25.179  0.00  0.00    +0.093 C 
ATOM     29  C   UNL     1      -2.806  -2.936  25.142  0.00  0.00    +0.023 C 
ENDBRANCH  27  28
BRANCH  27  30
ATOM     30  C   UNL     1      -4.007  -2.245  23.869  0.00  0.00    +0.093 C 
ATOM     31  C   UNL     1      -4.254  -3.019  23.725  0.00  0.00    +0.023 C 
ENDBRANCH  27  30
ENDBRANCH  23  25
ENDBRANCH   1  23
TORSDOF 6
ENDMDL
MODEL 2
REMARK VINA RESULT:     -12.0      0.906      5.562
REMARK  Name = 
REMARK  6 active torsions:
REMARK  status: ('A' for Active; 'I' for Inactive)
REMARK    1  A    between atoms: C_2  and  C_25
REMARK    2  A    between atoms: C_9  and  N_10
REMARK    3  A    between atoms: C_11  and  C_13
REMARK    4  A    between atoms: C_25  and  C_27
REMARK    5  A    between atoms: N_29  and  C_30
REMARK    6  A    between atoms: N_29  and  C_32
REMARK                            x       y       z     vdW  Elec       q    Type
REMARK                         _______ _______ _______ _____ _____    ______ ____
ROOT
ATOM      1  C   UNL     1      -2.642   3.068  25.366  0.00  0.00    +0.052 C 
ATOM      2  C   UNL     1      -3.392   3.403  25.295  0.00  0.00    -0.001 C 
ATOM      3  C   UNL     1      -4.027   2.942  25.045  0.00  0.00    -0.000 C 
ATOM      4  C   UNL     1      -3.913   2.143  24.866  0.00  0.00    -0.001 C 
ATOM      5  C   UNL     1      -4.664   2.479  24.795  0.00  0.00    -0.000 C 
ATOM      6  C   UNL     1      -4.550   1.682  24.616  0.00  0.00    +0.002 C 
ATOM      7  C   UNL     1      -4.435   0.885  24.436  0.00  0.00    +0.022 C 
ATOM      8  C   UNL     1      -3.684   0.549  24.507  0.00  0.00    +0.095 C 
ATOM     18  C   UNL     1      -3.049   1.012  24.757  0.00  0.00    +0.019 C 
ATOM     19  C   UNL     1      -2.298   0.676  24.828  0.00  0.00    +0.002 C 
ATOM     20  C   UNL     1      -3.163   1.809  24.937  0.00  0.00    +0.045 C 
ATOM     21  C   UNL     1      -2.527   2.270  25.186  0.00  0.00    +0.145 C 
ATOM     22  O   UNL     1      -1.776   1.936  25.257  0.00  0.00    -0.224 OA
ENDROOT
BRANCH   8   9
ATOM      9  N   UNL     1      -3.570  -0.247  24.328  0.00  0.00    -0.207 NA
ATOM     10  C   UNL     1      -4.010  -0.826  24.720  0.00  0.00    +0.241 C 
ATOM     11  O   UNL     1      -4.565  -0.606  25.290  0.00  0.00    -0.273 OA
BRANCH  10  12
ATOM     12  C   UNL     1      -3.896  -1.623  24.540  0.00  0.00    +0.078 C 
ATOM     13  C   UNL     1      -4.232  -1.944  23.859  0.00  0.00    +0.009 C 
ATOM     14  C   UNL     1      -4.117  -2.741  23.679  0.00  0.00    +0.000 C 
ATOM     15  C   UNL     1      -3.667  -3.217  24.182  0.00  0.00    +0.000 C 
ATOM     16  C   UNL     1      -3.331  -2.895  24.864  0.00  0.00    +0.000 C 
ATOM     17  C   UNL     1      -3.446  -2.098  25.043  0.00  0.00    +0.009 C 
ENDBRANCH  10  12
ENDBRANCH   8   9
BRANCH   1  23
ATOM     23  C   UNL     1      -2.005   3.530  25.616  0.00  0.00    +0.075 C 
ATOM     24  C   UNL     1      -1.313   3.169  25.882  0.00  0.00    +0.009 C 
BRANCH  23  25
ATOM     25  C   UNL     1      -2.061   4.353  25.599  0.00  0.00    +0.225 C 
ATOM     26  O   UNL     1      -2.689   4.732  25.979  0.00  0.00    -0.275 OA
ATOM     27  N   UNL     1      -1.490   4.798  25.204  0.00  0.00    -0.280 N 
BRANCH  27  28
ATOM     28  C   UNL     1      -1.546   5.620  25.187  0.00  0.00    +0.093 C 
ATOM     29  C   UNL     1      -1.512   6.021  24.467  0.00  0.00    +0.023 C 
ENDBRANCH  27  28
BRANCH  27  30
ATOM     30  C   UNL     1      -0.862   4.419  24.824  0.00  0.00    +0.093 C 
ATOM     31  C   UNL     1      -0.223   4.860  24.547  0.00  0.00    +0.023 C 
ENDBRANCH  27  30
ENDBRANCH  23  25
ENDBRANCH   1  23
TORSDOF 6
ENDMDL
MODEL 3
REMARK VINA RESULT:     -11.3      1.301      2.210
REMARK  Name = 
REMARK  6 active torsions:
REMARK  status: ('A' for Active; 'I' for Inactive)
REMARK    1  A    between atoms: C_2  and  C_25
REMARK    2  A    between atoms: C_9  and  N_10
REMARK    3  A    between atoms: C_11  and  C_13
REMARK    4  A    between atoms: C_25  and  C_27
REMARK    5  A    between atoms: N_29  and  C_30
REMARK    6  A    between atoms: N_29  and  C_32
REMARK                            x       y       z     vdW  Elec       q    Type
REMARK                         _______ _______ _______ _____ _____    ______ ____
ROOT
ATOM      1  C   UNL     1      -2.559  -0.511  24.914  0.00  0.00    +0.052 C 
ATOM      2  C   UNL     1      -1.806  -0.844  24.878  0.00  0.00    -0.001 C 
ATOM      3  C   UNL     1      -1.144  -0.359  24.798  0.00  0.00    -0.000 C 
ATOM      4  C   UNL     1      -1.236   0.461  24.755  0.00  0.00    -0.001 C 
ATOM      5  C   UNL     1      -0.482   0.128  24.718  0.00  0.00    -0.000 C 
ATOM      6  C   UNL     1      -0.574   0.947  24.675  0.00  0.00    +0.002 C 
ATOM      7  C   UNL     1      -0.666   1.765  24.632  0.00  0.00    +0.022 C 
ATOM      8  C   UNL     1      -1.420   2.099  24.669  0.00  0.00    +0.095 C 
ATOM     18  C   UNL     1      -2.082   1.612  24.749  0.00  0.00    +0.019 C 
ATOM     19  C   UNL     1      -2.835   1.946  24.785  0.00  0.00    +0.002 C 
ATOM     20  C   UNL     1      -1.990   0.794  24.792  0.00  0.00    +0.045 C 
ATOM     21  C   UNL     1      -2.651   0.308  24.871  0.00  0.00    +0.145 C 
ATOM     22  O   UNL     1      -3.406   0.641  24.908  0.00  0.00    -0.224 OA
ENDROOT
BRANCH   8   9
ATOM      9  N   UNL     1      -1.512   2.916  24.626  0.00  0.00    -0.207 NA
ATOM     10  C   UNL     1      -1.049   3.409  25.100  0.00  0.00    +0.241 C 
ATOM     11  O   UNL     1      -0.494   3.083  25.617  0.00  0.00    -0.273 OA
BRANCH  10  12
ATOM     12  C   UNL     1      -1.141   4.228  25.057  0.00  0.00    +0.078 C 
ATOM     13  C   UNL     1      -0.557   4.690  24.701  0.00  0.00    +0.009 C 
ATOM     14  C   UNL     1      -0.649   5.509  24.658  0.00  0.00    +0.000 C 
ATOM     15  C   UNL     1      -1.325   5.866  24.971  0.00  0.00    +0.000 C 
ATOM     16  C   UNL     1      -1.909   5.403  25.327  0.00  0.00    +0.000 C 
ATOM     17  C   UNL     1      -1.817   4.584  25.370  0.00  0.00    +0.009 C 
ENDBRANCH  10  12
ENDBRANCH   8   9
BRANCH   1  23
ATOM     23  C   UNL     1      -3.222  -0.997  24.994  0.00  0.00    +0.075 C 
ATOM     24  C   UNL     1      -3.592  -1.073  25.727  0.00  0.00    +0.009 C 
BRANCH  23  25
ATOM     25  C   UNL     1      -3.514  -1.406  24.340  0.00  0.00    +0.225 C 
ATOM     26  O   UNL     1      -3.679  -1.001  23.639  0.00  0.00    -0.275 OA
ATOM     27  N   UNL     1      -3.641  -2.220  24.385  0.00  0.00    -0.280 N 
BRANCH  27  28
ATOM     28  C   UNL     1      -3.933  -2.628  23.731  0.00  0.00    +0.093 C 
ATOM     29  C   UNL     1      -4.747  -2.728  23.636  0.00  0.00    +0.023 C 
ENDBRANCH  27  28
BRANCH  27  30
ATOM     30  C   UNL     1      -3.476  -2.624  25.085  0.00  0.00    +0.093 C 
ATOM     31  C   UNL     1      -3.318  -3.434  25.065  0.00  0.00    +0.023 C 
ENDBRANCH  27  30
ENDBRANCH  23  25
ENDBRANCH   1  23
TORSDOF 6
ENDMDL
MODEL 4
REMARK VINA RESULT:     -10.5      1.557      5.875
REMARK  Name = 
REMARK  6 active torsions:
REMARK  status: ('A' for Active; 'I' for Inactive)
REMARK    1  A    between atoms: C_2  and  C_25
REMARK    2  A    between atoms: C_9  and  N_10
REMARK    3  A    between atoms: C_11  and  C_13
REMARK    4  A    between atoms: C_25  and  C_27
REMARK    5  A    between atoms: N_29  and  C_30
REMARK    6  A    between atoms: N_29  and  C_32
REMARK                            x       y       z     vdW  Elec       q    Type
REMARK                         _______ _______ _______ _____ _____    ______ ____
ROOT
ATOM      1  C   UNL     1      -1.167   2.531  24.974  0.00  0.00    +0.052 C 
ATOM      2  C   UNL     1      -0.680   2.344  25.612  0.00  0.00    -0.001 C 
ATOM      3  C   UNL     1      -0.645   1.568  25.891  0.00  0.00    -0.000 C 
ATOM      4  C   UNL     1      -1.097   0.979  25.530  0.00  0.00    -0.001 C 
ATOM      5  C   UNL     1      -0.610   0.792  26.169  0.00  0.00    -0.000 C 
ATOM      6  C   UNL     1      -1.062   0.203  25.808  0.00  0.00    +0.002 C 
ATOM      7  C   UNL     1      -1.514  -0.385  25.448  0.00  0.00    +0.022 C 
ATOM      8  C   UNL     1      -2.002  -0.198  24.809  0.00  0.00    +0.095 C 
ATOM     18  C   UNL     1      -2.036   0.578  24.531  0.00  0.00    +0.019 C 
ATOM     19  C   UNL     1      -2.524   0.765  23.892  0.00  0.00    +0.002 C 
ATOM     20  C   UNL     1      -1.584   1.167  24.891  0.00  0.00    +0.045 C 
ATOM     21  C   UNL     1      -1.620   1.942  24.613  0.00  0.00    +0.145 C 
ATOM     22  O   UNL     1      -2.107   2.130  23.974  0.00  0.00    -0.224 OA
ENDROOT
BRANCH   8   9
ATOM      9  N   UNL     1      -2.453  -0.785  24.448  0.00  0.00    -0.207 NA
ATOM     10  C   UNL     1      -2.937  -1.273  24.906  0.00  0.00    +0.241 C 
ATOM     11  O   UNL     1      -2.968  -1.172  25.725  0.00  0.00    -0.273 OA
BRANCH  10  12
ATOM     12  C   UNL     1      -3.389  -1.862  24.546  0.00  0.00    +0.078 C 
ATOM     13  C   UNL     1      -3.161  -2.652  24.607  0.00  0.00    +0.009 C 
ATOM     14  C   UNL     1      -3.613  -3.241  24.246  0.00  0.00    +0.000 C 
ATOM     15  C   UNL     1      -4.293  -3.039  23.825  0.00  0.00    +0.000 C 
ATOM     16  C   UNL     1      -4.521  -2.247  23.764  0.00  0.00    +0.000 C 
ATOM     17  C   UNL     1      -4.069  -1.659  24.125  0.00  0.00    +0.009 C 
ENDBRANCH  10  12
ENDBRANCH   8   9
BRANCH   1  23
ATOM     23  C   UNL     1      -1.203   3.307  24.695  0.00  0.00    +0.075 C 
ATOM     24  C   UNL     1      -0.813   3.514  23.999  0.00  0.00    +0.009 C 
BRANCH  23  25
ATOM     25  C   UNL     1      -1.628   3.876  25.114  0.00  0.00    +0.225 C 
ATOM     26  O   UNL     1      -2.292   3.655  25.553  0.00  0.00    -0.275 OA
ATOM     27  N   UNL     1      -1.391   4.666  25.095  0.00  0.00    -0.280 N 
BRANCH  27  28
ATOM     28  C   UNL     1      -1.817   5.234  25.513  0.00  0.00    +0.093 C 
ATOM     29  C   UNL     1      -2.259   5.801  25.107  0.00  0.00    +0.023 C 
ENDBRANCH  27  28
BRANCH  27  30
ATOM     30  C   UNL     1      -0.728   4.887  24.656  0.00  0.00    +0.093 C 
ATOM     31  C   UNL     1      -0.430   5.653  24.717  0.00  0.00    +0.023 C 
ENDBRANCH  27  30
ENDBRANCH  23  25
ENDBRANCH   1  23
TORSDOF 6
ENDMDL
MODEL 5
REMARK VINA RESULT:     -10.3      2.833      4.508
REMARK  Name = 
REMARK  6 active torsions:
REMARK  status: ('A' for Active; 'I' for Inactive)
REMARK    1  A    between atoms: C_2  and  C_25
REMARK    2  A    between atoms: C_9  and  N_10
REMARK    3  A    between atoms: C_11  and  C_13
REMARK    4  A    between atoms: C_25  and  C_27
REMARK    5  A    between atoms: N_29  and  C_30
REMARK    6  A    between atoms: N_29  and  C_32
REMARK                            x       y       z     vdW  Elec       q    Type
REMARK                         _______ _______ _______ _____ _____    ______ ____
ROOT
ATOM      1  C   UNL     1      -3.232   1.424  24.526  0.00  0.00    +0.052 C 
ATOM      2  C   UNL     1      -3.358   0.770  25.011  0.00  0.00    -0.001 C 
ATOM      3  C   UNL     1      -2.754   0.221  25.128  0.00  0.00    -0.000 C 
ATOM      4  C   UNL     1      -2.022   0.327  24.759  0.00  0.00    -0.001 C 
ATOM      5  C   UNL     1      -2.149  -0.329  25.245  0.00  0.00    -0.000 C 
ATOM      6  C   UNL     1      -1.418  -0.223  24.877  0.00  0.00    +0.002 C 
ATOM      7  C   UNL     1      -0.688  -0.117  24.508  0.00  0.00    +0.022 C 
ATOM      8  C   UNL     1      -0.561   0.538  24.022  0.00  0.00    +0.095 C 
ATOM     18  C   UNL     1      -1.166   1.087  23.906  0.00  0.00    +0.019 C 
ATOM     19  C   UNL     1      -1.039   1.742  23.420  0.00  0.00    +0.002 C 
ATOM     20  C   UNL     1      -1.897   0.981  24.274  0.00  0.00    +0.045 C 
ATOM     21  C   UNL     1      -2.500   1.530  24.157  0.00  0.00    +0.145 C 
ATOM     22  O   UNL     1      -2.375   2.186  23.672  0.00  0.00    -0.224 OA
ENDROOT
BRANCH   8   9
ATOM      9  N   UNL     1       0.168   0.644  23.654  0.00  0.00    -0.207 NA
ATOM     10  C   UNL     1       0.609  -0.012  23.415  0.00  0.00    +0.241 C 
ATOM     11  O   UNL     1       0.318  -0.774  23.544  0.00  0.00    -0.273 OA
BRANCH  10  12
ATOM     12  C   UNL     1       1.339   0.094  23.046  0.00  0.00    +0.078 C 
ATOM     13  C   UNL     1       1.492  -0.269  22.321  0.00  0.00    +0.009 C 
ATOM     14  C   UNL     1       2.222  -0.164  21.953  0.00  0.00    +0.000 C 
ATOM     15  C   UNL     1       2.801   0.305  22.310  0.00  0.00    +0.000 C 
ATOM     16  C   UNL     1       2.647   0.669  23.035  0.00  0.00    +0.000 C 
ATOM     17  C   UNL     1       1.917   0.563  23.404  0.00  0.00    +0.009 C 
ENDBRANCH  10  12
ENDBRANCH   8   9
BRANCH   1  23
ATOM     23  C   UNL     1      -3.836   1.974  24.409  0.00  0.00    +0.075 C 
ATOM     24  C   UNL     1      -4.186   2.051  23.666  0.00  0.00    +0.009 C 
BRANCH  23  25
ATOM     25  C   UNL     1      -4.090   2.447  25.035  0.00  0.00    +0.225 C 
ATOM     26  O   UNL     1      -3.539   2.857  25.493  0.00  0.00    -0.275 OA
ATOM     27  N   UNL     1      -4.895   2.511  25.205  0.00  0.00    -0.280 N 
BRANCH  27  28
ATOM     28  C   UNL     1      -5.148   2.983  25.830  0.00  0.00    +0.093 C 
ATOM     29  C   UNL     1      -5.479   3.725  25.680  0.00  0.00    +0.023 C 
ENDBRANCH  27  28
BRANCH  27  30
ATOM     30  C   UNL     1      -5.446   2.100  24.747  0.00  0.00    +0.093 C 
ATOM     31  C   UNL     1      -6.184   1.912  25.063  0.00  0.00    +0.023 C 
ENDBRANCH  27  30
ENDBRANCH  23  25
ENDBRANCH   1  23
TORSDOF 6
ENDMDL
