MODEL 1
REMARK VINA RESULT:     -12.2      0.000      0.000
REMARK  Name = 
REMARK  6 active torsions:
REMARK  status: ('A' for Active; 'I' for Inactive)
REMARK    1  A    between atoms: C_2  and  C_4
REMARK    2  A    between atoms: N_7  and  C_10
REMARK    3  A    between atoms: C_16  and  N_17
REMARK    4  A    between atoms: N_17  and  C_18
REMARK    5  A    between atoms: C_18  and  C_19
REMARK    6  A    between atoms: C_22  and  C_25
REMARK                            x       y       z     vdW  Elec       q    Type
REMARK                         _______ _______ _______ _____ _____    ______ ____
ROOT
ATOM     10  C   UNL     1      -3.560   2.952  25.259  0.00  0.00    +0.147 C 
ATOM     11  C   UNL     1      -3.976   3.824  25.359  0.00  0.00    +0.253 C 
ATOM     12  O   UNL     1      -3.564   4.603  25.334  0.00  0.00    -0.327 OA
ATOM     13  C   UNL     1      -3.634   3.881  25.312  0.00  0.00    +0.176 C 
ATOM     14  C   UNL     1      -4.129   3.283  25.357  0.00  0.00    +0.166 C 
ATOM     15  O   UNL     1      -4.761   3.593  25.463  0.00  0.00    -0.328 OA
ATOM     16  C   UNL     1      -3.744   2.443  25.263  0.00  0.00    +0.135 C 
ATOM     31  C   UNL     1      -2.956   2.677  25.159  0.00  0.00    +0.190 C 
ATOM     32  O   UNL     1      -2.141   2.622  25.038  0.00  0.00    -0.220 OA
ENDROOT
BRANCH  10   7
ATOM      4  C   UNL     1      -1.844   4.728  25.088  0.00  0.00    +0.083 C 
ATOM      5  C   UNL     1      -2.249   4.480  24.414  0.00  0.00    +0.027 C 
ATOM      6  C   UNL     1      -2.821   3.888  24.471  0.00  0.00    +0.073 C 
ATOM      7  N   UNL     1      -2.988   3.544  25.202  0.00  0.00    -0.268 NA
ATOM      8  C   UNL     1      -2.582   3.793  25.877  0.00  0.00    +0.073 C 
ATOM      9  C   UNL     1      -2.010   4.384  25.820  0.00  0.00    +0.027 C 
BRANCH   4   2
ATOM      1  N   UNL     1      -0.490   5.122  24.857  0.00  0.00    -0.088 NA
ATOM      2  C   UNL     1      -1.272   5.320  25.030  0.00  0.00    +0.260 C 
ATOM      3  O   UNL     1      -1.481   6.110  25.145  0.00  0.00    -0.272 OA
ENDBRANCH   4   2
ENDBRANCH  10   7
BRANCH  16  17
ATOM     17  N   UNL     1      -4.083   1.690  25.279  0.00  0.00    -0.209 NA
BRANCH  17  18
ATOM     18  C   UNL     1      -4.249   1.298  24.573  0.00  0.00    +0.115 C 
BRANCH  18  19
ATOM     19  C   UNL     1      -4.145   0.482  24.521  0.00  0.00    -0.005 A 
ATOM     20  C   UNL     1      -3.843   0.148  23.829  0.00  0.00    -0.003 A 
ATOM     21  C   UNL     1      -3.739  -0.669  23.776  0.00  0.00    -0.000 A 
ATOM     22  C   UNL     1      -3.937  -1.152  24.415  0.00  0.00    -0.000 A 
ATOM     23  C   UNL     1      -4.240  -0.818  25.107  0.00  0.00    -0.000 A 
ATOM     24  C   UNL     1      -4.344  -0.002  25.159  0.00  0.00    -0.003 A 
BRANCH  22  25
ATOM     25  C   UNL     1      -3.833  -1.969  24.363  0.00  0.00    -0.000 A 
ATOM     26  C   UNL     1      -3.301  -2.350  24.866  0.00  0.00    -0.000 A 
ATOM     27  C   UNL     1      -3.197  -3.166  24.814  0.00  0.00    +0.000 A 
ATOM     28  C   UNL     1      -3.625  -3.602  24.259  0.00  0.00    +0.000 A 
ATOM     29  C   UNL     1      -4.157  -3.221  23.756  0.00  0.00    +0.000 A 
ATOM     30  C   UNL     1      -4.261  -2.404  23.808  0.00  0.00    -0.000 A 
ENDBRANCH  22  25
ENDBRANCH  18  19
ENDBRANCH  17  18
ENDBRANCH  16  17
TORSDOF 6
ENDMDL
MODEL 2
REMARK VINA RESULT:     -11.8      1.762      2.347
REMARK  Name = 
REMARK  6 active torsions:
REMARK  status: ('A' for Active; 'I' for Inactive)
REMARK    1  A    between atoms: C_2  and  C_4
REMARK    2  A    between atoms: N_7  and  C_10
REMARK    3  A    between atoms: C_16  and  N_17
REMARK    4  A    between atoms: N_17  and  C_18
REMARK    5  A    between atoms: C_18  and  C_19
REMARK    6  A    between atoms: C_22  and  C_25
REMARK                            x       y       z     vdW  Elec       q    Type
REMARK                         _______ _______ _______ _____ _____    ______ ____
ROOT
ATOM     10  C   UNL     1      -0.809   2.096  25.368  0.00  0.00    +0.147 C 
ATOM     11  C   UNL     1      -0.207   2.575  25.961  0.00  0.00    +0.253 C 
ATOM     12  O   UNL     1      -0.136   3.452  26.032  0.00  0.00    -0.327 OA
ATOM     13  C   UNL     1      -0.388   2.818  25.784  0.00  0.00    +0.176 C 
ATOM     14  C   UNL     1      -0.336   2.043  25.833  0.00  0.00    +0.166 C 
ATOM     15  O   UNL     1       0.166   1.937  26.327  0.00  0.00    -0.328 OA
ATOM     16  C   UNL     1      -0.907   1.572  25.271  0.00  0.00    +0.135 C 
ATOM     31  C   UNL     1      -1.280   2.215  24.904  0.00  0.00    +0.190 C 
ATOM     32  O   UNL     1      -1.787   2.634  24.406  0.00  0.00    -0.220 OA
ENDROOT
BRANCH  10   7
ATOM      4  C   UNL     1      -1.108   4.536  25.077  0.00  0.00    +0.083 C 
ATOM      5  C   UNL     1      -0.544   4.134  24.630  0.00  0.00    +0.027 C 
ATOM      6  C   UNL     1      -0.444   3.321  24.727  0.00  0.00    +0.073 C 
ATOM      7  N   UNL     1      -0.909   2.909  25.271  0.00  0.00    -0.268 NA
ATOM      8  C   UNL     1      -1.474   3.312  25.718  0.00  0.00    +0.073 C 
ATOM      9  C   UNL     1      -1.573   4.126  25.621  0.00  0.00    +0.027 C 
BRANCH   4   2
ATOM      1  N   UNL     1      -1.910   5.710  25.217  0.00  0.00    -0.088 NA
ATOM      2  C   UNL     1      -1.207   5.349  24.980  0.00  0.00    +0.260 C 
ATOM      3  O   UNL     1      -0.604   5.802  24.645  0.00  0.00    -0.272 OA
ENDBRANCH   4   2
ENDBRANCH  10   7
BRANCH  16  17
ATOM     17  N   UNL     1      -1.010   0.760  25.167  0.00  0.00    -0.209 NA
BRANCH  17  18
ATOM     18  C   UNL     1      -1.516   0.341  25.668  0.00  0.00    +0.115 C 
BRANCH  18  19
ATOM     19  C   UNL     1      -1.984  -0.267  25.367  0.00  0.00    -0.005 A 
ATOM     20  C   UNL     1      -1.643  -0.859  24.904  0.00  0.00    -0.003 A 
ATOM     21  C   UNL     1      -2.110  -1.468  24.603  0.00  0.00    -0.000 A 
ATOM     22  C   UNL     1      -2.919  -1.484  24.764  0.00  0.00    -0.000 A 
ATOM     23  C   UNL     1      -3.260  -0.892  25.226  0.00  0.00    -0.000 A 
ATOM     24  C   UNL     1      -2.793  -0.284  25.527  0.00  0.00    -0.003 A 
BRANCH  22  25
ATOM     25  C   UNL     1      -3.388  -2.093  24.462  0.00  0.00    -0.000 A 
ATOM     26  C   UNL     1      -4.011  -1.919  23.950  0.00  0.00    -0.000 A 
ATOM     27  C   UNL     1      -4.479  -2.527  23.649  0.00  0.00    +0.000 A 
ATOM     28  C   UNL     1      -4.325  -3.310  23.859  0.00  0.00    +0.000 A 
ATOM     29  C   UNL     1      -3.702  -3.484  24.371  0.00  0.00    +0.000 A 
ATOM     30  C   UNL     1      -3.233  -2.876  24.673  0.00  0.00    -0.000 A 
ENDBRANCH  22  25
ENDBRANCH  18  19
ENDBRANCH  17  18
ENDBRANCH  16  17
TORSDOF 6
ENDMDL
MODEL 3
REMARK VINA RESULT:     -11.5      2.619      6.339
REMARK  Name = 
REMARK  6 active torsions:
REMARK  status: ('A' for Active; 'I' for Inactive)
REMARK    1  A    between atoms: C_2  and  C_4
REMARK    2  A    between atoms: N_7  and  C_10
REMARK    3  A    between atoms: C_16  and  N_17
REMARK    4  A    between atoms: N_17  and  C_18
REMARK    5  A    between atoms: C_18  and  C_19
REMARK    6  A    between atoms: C_22  and  C_25
REMARK                            x       y       z     vdW  Elec       q    Type
REMARK                         _______ _______ _______ _____ _____    ______ ____
ROOT
ATOM     10  C   UNL     1      -1.534  -0.697  25.293  0.00  0.00    +0.147 C 
ATOM     11  C   UNL     1      -1.133  -1.578  25.213  0.00  0.00    +0.253 C 
ATOM     12  O   UNL     1      -1.548  -2.318  24.973  0.00  0.00    -0.327 OA
ATOM     13  C   UNL     1      -1.471  -1.614  25.128  0.00  0.00    +0.176 C 
ATOM     14  C   UNL     1      -0.976  -1.056  25.351  0.00  0.00    +0.166 C 
ATOM     15  O   UNL     1      -0.356  -1.398  25.426  0.00  0.00    -0.328 OA
ATOM     16  C   UNL     1      -1.347  -0.208  25.431  0.00  0.00    +0.135 C 
ATOM     31  C   UNL     1      -2.126  -0.391  25.216  0.00  0.00    +0.190 C 
ATOM     32  O   UNL     1      -2.928  -0.286  25.052  0.00  0.00    -0.220 OA
ENDROOT
BRANCH  10   7
ATOM      4  C   UNL     1      -3.244  -2.337  24.579  0.00  0.00    +0.083 C 
ATOM      5  C   UNL     1      -2.737  -2.001  24.022  0.00  0.00    +0.027 C 
ATOM      6  C   UNL     1      -2.167  -1.455  24.260  0.00  0.00    +0.073 C 
ATOM      7  N   UNL     1      -2.104  -1.243  25.055  0.00  0.00    -0.268 NA
ATOM      8  C   UNL     1      -2.611  -1.580  25.612  0.00  0.00    +0.073 C 
ATOM      9  C   UNL     1      -3.182  -2.126  25.374  0.00  0.00    +0.027 C 
BRANCH   4   2
ATOM      1  N   UNL     1      -4.358  -2.682  23.753  0.00  0.00    -0.088 NA
ATOM      2  C   UNL     1      -3.814  -2.884  24.340  0.00  0.00    +0.260 C 
ATOM      3  O   UNL     1      -3.841  -3.632  24.687  0.00  0.00    -0.272 OA
ENDBRANCH   4   2
ENDBRANCH  10   7
BRANCH  16  17
ATOM     17  N   UNL     1      -1.004   0.511  25.650  0.00  0.00    -0.209 NA
BRANCH  17  18
ATOM     18  C   UNL     1      -0.627   0.978  25.084  0.00  0.00    +0.115 C 
BRANCH  18  19
ATOM     19  C   UNL     1      -0.753   1.793  25.072  0.00  0.00    -0.005 A 
ATOM     20  C   UNL     1      -0.917   2.175  24.359  0.00  0.00    -0.003 A 
ATOM     21  C   UNL     1      -1.043   2.990  24.347  0.00  0.00    -0.000 A 
ATOM     22  C   UNL     1      -1.004   3.423  25.048  0.00  0.00    -0.000 A 
ATOM     23  C   UNL     1      -0.840   3.041  25.761  0.00  0.00    -0.000 A 
ATOM     24  C   UNL     1      -0.714   2.226  25.773  0.00  0.00    -0.003 A 
BRANCH  22  25
ATOM     25  C   UNL     1      -1.130   4.239  25.037  0.00  0.00    -0.000 A 
ATOM     26  C   UNL     1      -0.546   4.742  24.741  0.00  0.00    -0.000 A 
ATOM     27  C   UNL     1      -0.672   5.557  24.729  0.00  0.00    +0.000 A 
ATOM     28  C   UNL     1      -1.380   5.870  25.014  0.00  0.00    +0.000 A 
ATOM     29  C   UNL     1      -1.963   5.367  25.309  0.00  0.00    +0.000 A 
ATOM     30  C   UNL     1      -1.838   4.551  25.321  0.00  0.00    -0.000 A 
ENDBRANCH  22  25
ENDBRANCH  18  19
ENDBRANCH  17  18
ENDBRANCH  16  17
TORSDOF 6
ENDMDL
MODEL 4
REMARK VINA RESULT:     -10.4      3.671      5.157
REMARK  Name = 
REMARK  6 active torsions:
REMARK  status: ('A' for Active; 'I' for Inactive)
REMARK    1  A    between atoms: C_2  and  C_4
REMARK    2  A    between atoms: N_7  and  C_10
REMARK    3  A    between atoms: C_16  and  N_17
REMARK    4  A    between atoms: N_17  and  C_18
REMARK    5  A    between atoms: C_18  and  C_19
REMARK    6  A    between atoms: C_22  and  C_25
REMARK                            x       y       z     vdW  Elec       q    Type
REMARK                         _______ _______ _______ _____ _____    ______ ____
ROOT
ATOM     10  C   UNL     1      -0.401   0.158  23.998  0.00  0.00    +0.147 C 
ATOM     11  C   UNL     1       0.072  -0.677  24.141  0.00  0.00    +0.253 C 
ATOM     12  O   UNL     1       0.854  -0.898  23.796  0.00  0.00    -0.327 OA
ATOM     13  C   UNL     1       0.272  -0.484  23.928  0.00  0.00    +0.176 C 
ATOM     14  C   UNL     1      -0.409  -0.435  24.300  0.00  0.00    +0.166 C 
ATOM     15  O   UNL     1      -0.462  -1.057  24.643  0.00  0.00    -0.328 OA
ATOM     16  C   UNL     1      -0.873   0.360  24.172  0.00  0.00    +0.135 C 
ATOM     31  C   UNL     1      -0.335   0.739  23.668  0.00  0.00    +0.190 C 
ATOM     32  O   UNL     1      -0.006   1.321  23.185  0.00  0.00    -0.220 OA
ENDROOT
BRANCH  10   7
ATOM      4  C   UNL     1       1.733   0.177  22.745  0.00  0.00    +0.083 C 
ATOM      5  C   UNL     1       1.669   0.588  23.457  0.00  0.00    +0.027 C 
ATOM      6  C   UNL     1       0.958   0.582  23.875  0.00  0.00    +0.073 C 
ATOM      7  N   UNL     1       0.310   0.164  23.581  0.00  0.00    -0.268 NA
ATOM      8  C   UNL     1       0.374  -0.247  22.868  0.00  0.00    +0.073 C 
ATOM      9  C   UNL     1       1.086  -0.241  22.451  0.00  0.00    +0.027 C 
BRANCH   4   2
ATOM      1  N   UNL     1       3.129   0.476  22.685  0.00  0.00    -0.088 NA
ATOM      2  C   UNL     1       2.445   0.184  22.328  0.00  0.00    +0.260 C 
ATOM      3  O   UNL     1       2.474  -0.101  21.554  0.00  0.00    -0.272 OA
ENDBRANCH   4   2
ENDBRANCH  10   7
BRANCH  16  17
ATOM     17  N   UNL     1      -1.601   0.612  24.470  0.00  0.00    -0.209 NA
BRANCH  17  18
ATOM     18  C   UNL     1      -2.231   0.750  23.955  0.00  0.00    +0.115 C 
BRANCH  18  19
ATOM     19  C   UNL     1      -2.928   1.088  24.238  0.00  0.00    -0.005 A 
ATOM     20  C   UNL     1      -3.101   1.877  24.068  0.00  0.00    -0.003 A 
ATOM     21  C   UNL     1      -3.798   2.217  24.351  0.00  0.00    -0.000 A 
ATOM     22  C   UNL     1      -4.321   1.767  24.804  0.00  0.00    -0.000 A 
ATOM     23  C   UNL     1      -4.147   0.979  24.974  0.00  0.00    -0.000 A 
ATOM     24  C   UNL     1      -3.451   0.640  24.691  0.00  0.00    -0.003 A 
BRANCH  22  25
ATOM     25  C   UNL     1      -5.018   2.106  25.088  0.00  0.00    -0.000 A 
ATOM     26  C   UNL     1      -5.736   1.710  24.998  0.00  0.00    -0.000 A 
ATOM     27  C   UNL     1      -6.432   2.049  25.281  0.00  0.00    +0.000 A 
ATOM     28  C   UNL     1      -6.412   2.784  25.654  0.00  0.00    +0.000 A 
ATOM     29  C   UNL     1      -5.694   3.180  25.744  0.00  0.00    +0.000 A 
ATOM     30  C   UNL     1      -4.996   2.842  25.461  0.00  0.00    -0.000 A 
ENDBRANCH  22  25
ENDBRANCH  18  19
ENDBRANCH  17  18
ENDBRANCH  16  17
TORSDOF 6
ENDMDL
MODEL 5
REMARK VINA RESULT:     -10.2      2.070      6.078
REMARK  Name = 
REMARK  6 active torsions:
REMARK  status: ('A' for Active; 'I' for Inactive)
REMARK    1  A    between atoms: C_2  and  C_4
REMARK    2  A    between atoms: N_7  and  C_10
REMARK    3  A    between atoms: C_16  and  N_17
REMARK    4  A    between atoms: N_17  and  C_18
REMARK    5  A    between atoms: C_18  and  C_19
REMARK    6  A    between atoms: C_22  and  C_25
REMARK                            x       y       z     vdW  Elec       q    Type
REMARK                         _______ _______ _______ _____ _____    ______ ____
ROOT
ATOM     10  C   UNL     1      -3.705   0.078  24.554  0.00  0.00    +0.147 C 
ATOM     11  C   UNL     1      -4.603  -0.288  24.607  0.00  0.00    +0.253 C 
ATOM     12  O   UNL     1      -4.815  -1.144  24.628  0.00  0.00    -0.327 OA
ATOM     13  C   UNL     1      -4.384  -0.561  24.598  0.00  0.00    +0.176 C 
ATOM     14  C   UNL     1      -4.355   0.216  24.588  0.00  0.00    +0.166 C 
ATOM     15  O   UNL     1      -5.039   0.413  24.624  0.00  0.00    -0.328 OA
ATOM     16  C   UNL     1      -3.502   0.580  24.537  0.00  0.00    +0.135 C 
ATOM     31  C   UNL     1      -3.066  -0.125  24.521  0.00  0.00    +0.190 C 
ATOM     32  O   UNL     1      -2.416  -0.632  24.490  0.00  0.00    -0.220 OA
ENDROOT
BRANCH  10   7
ATOM      4  C   UNL     1      -3.605  -2.395  24.574  0.00  0.00    +0.083 C 
ATOM      5  C   UNL     1      -3.509  -1.973  25.276  0.00  0.00    +0.027 C 
ATOM      6  C   UNL     1      -3.543  -1.148  25.269  0.00  0.00    +0.073 C 
ATOM      7  N   UNL     1      -3.672  -0.746  24.561  0.00  0.00    -0.268 NA
ATOM      8  C   UNL     1      -3.768  -1.169  23.859  0.00  0.00    +0.073 C 
ATOM      9  C   UNL     1      -3.735  -1.993  23.865  0.00  0.00    +0.027 C 
BRANCH   4   2
ATOM      1  N   UNL     1      -3.733  -3.645  23.893  0.00  0.00    -0.088 NA
ATOM      2  C   UNL     1      -3.572  -3.219  24.582  0.00  0.00    +0.260 C 
ATOM      3  O   UNL     1      -3.378  -3.619  25.277  0.00  0.00    -0.272 OA
ENDBRANCH   4   2
ENDBRANCH  10   7
BRANCH  16  17
ATOM     17  N   UNL     1      -3.252   1.367  24.516  0.00  0.00    -0.209 NA
BRANCH  17  18
ATOM     18  C   UNL     1      -2.901   1.707  25.180  0.00  0.00    +0.115 C 
BRANCH  18  19
ATOM     19  C   UNL     1      -2.538   2.445  25.122  0.00  0.00    -0.005 A 
ATOM     20  C   UNL     1      -2.978   3.104  24.893  0.00  0.00    -0.003 A 
ATOM     21  C   UNL     1      -2.615   3.843  24.835  0.00  0.00    -0.000 A 
ATOM     22  C   UNL     1      -1.812   3.921  25.006  0.00  0.00    -0.000 A 
ATOM     23  C   UNL     1      -1.372   3.262  25.235  0.00  0.00    -0.000 A 
ATOM     24  C   UNL     1      -1.735   2.524  25.293  0.00  0.00    -0.003 A 
BRANCH  22  25
ATOM     25  C   UNL     1      -1.448   4.661  24.948  0.00  0.00    -0.000 A 
ATOM     26  C   UNL     1      -0.669   4.717  24.682  0.00  0.00    -0.000 A 
ATOM     27  C   UNL     1      -0.306   5.455  24.624  0.00  0.00    +0.000 A 
ATOM     28  C   UNL     1      -0.721   6.137  24.832  0.00  0.00    +0.000 A 
ATOM     29  C   UNL     1      -1.500   6.080  25.099  0.00  0.00    +0.000 A 
ATOM     30  C   UNL     1      -1.864   5.342  25.157  0.00  0.00    -0.000 A 
ENDBRANCH  22  25
ENDBRANCH  18  19
ENDBRANCH  17  18
ENDBRANCH  16  17
TORSDOF 6
ENDMDL
MODEL 6
REMARK VINA RESULT:     -10.1      3.517      4.518
REMARK  Name = 
REMARK  6 active torsions:
REMARK  status: ('A' for Active; 'I' for Inactive)
REMARK    1  A    between atoms: C_2  and  C_4
REMARK    2  A    between atoms: N_7  and  C_10
REMARK    3  A    between atoms: C_16  and  N_17
REMARK    4  A    between atoms: N_17  and  C_18
REMARK    5  A    between atoms: C_18  and  C_19
REMARK    6  A    between atoms: C_22  and  C_25
REMARK                            x       y       z     vdW  Elec       q    Type
REMARK                         _______ _______ _______ _____ _____    ______ ____
ROOT
ATOM     10  C   UNL     1      -2.722   2.417  24.090  0.00  0.00    +0.147 C 
ATOM     11  C   UNL     1      -3.481   2.468  23.487  0.00  0.00    +0.253 C 
ATOM     12  O   UNL     1      -4.316   2.641  23.714  0.00  0.00    -0.327 OA
ATOM     13  C   UNL     1      -3.605   2.531  23.808  0.00  0.00    +0.176 C 
ATOM     14  C   UNL     1      -2.929   2.369  23.459  0.00  0.00    +0.166 C 
ATOM     15  O   UNL     1      -3.102   2.308  22.771  0.00  0.00    -0.328 OA
ATOM     16  C   UNL     1      -2.194   2.318  24.025  0.00  0.00    +0.135 C 
ATOM     31  C   UNL     1      -2.577   2.478  24.742  0.00  0.00    +0.190 C 
ATOM     32  O   UNL     1      -2.684   2.603  25.551  0.00  0.00    -0.220 OA
ENDROOT
BRANCH  10   7
ATOM      4  C   UNL     1      -4.777   2.937  25.367  0.00  0.00    +0.083 C 
ATOM      5  C   UNL     1      -4.298   3.549  25.091  0.00  0.00    +0.027 C 
ATOM      6  C   UNL     1      -3.613   3.375  24.666  0.00  0.00    +0.073 C 
ATOM      7  N   UNL     1      -3.407   2.591  24.516  0.00  0.00    -0.268 NA
ATOM      8  C   UNL     1      -3.888   1.979  24.792  0.00  0.00    +0.073 C 
ATOM      9  C   UNL     1      -4.573   2.152  25.218  0.00  0.00    +0.027 C 
BRANCH   4   2
ATOM      1  N   UNL     1      -5.840   2.520  26.228  0.00  0.00    -0.088 NA
ATOM      2  C   UNL     1      -5.463   3.112  25.793  0.00  0.00    +0.260 C 
ATOM      3  O   UNL     1      -5.771   3.877  25.785  0.00  0.00    -0.272 OA
ENDBRANCH   4   2
ENDBRANCH  10   7
BRANCH  16  17
ATOM     17  N   UNL     1      -1.400   2.161  23.862  0.00  0.00    -0.209 NA
BRANCH  17  18
ATOM     18  C   UNL     1      -1.052   1.466  24.140  0.00  0.00    +0.115 C 
BRANCH  18  19
ATOM     19  C   UNL     1      -0.299   1.250  23.882  0.00  0.00    -0.005 A 
ATOM     20  C   UNL     1      -0.184   0.525  23.506  0.00  0.00    -0.003 A 
ATOM     21  C   UNL     1       0.569   0.308  23.247  0.00  0.00    -0.000 A 
ATOM     22  C   UNL     1       1.207   0.818  23.365  0.00  0.00    -0.000 A 
ATOM     23  C   UNL     1       1.092   1.543  23.741  0.00  0.00    -0.000 A 
ATOM     24  C   UNL     1       0.339   1.759  24.000  0.00  0.00    -0.003 A 
BRANCH  22  25
ATOM     25  C   UNL     1       1.961   0.602  23.107  0.00  0.00    -0.000 A 
ATOM     26  C   UNL     1       2.591   1.128  23.188  0.00  0.00    -0.000 A 
ATOM     27  C   UNL     1       3.344   0.913  22.930  0.00  0.00    +0.000 A 
ATOM     28  C   UNL     1       3.467   0.171  22.590  0.00  0.00    +0.000 A 
ATOM     29  C   UNL     1       2.837  -0.355  22.508  0.00  0.00    +0.000 A 
ATOM     30  C   UNL     1       2.083  -0.140  22.767  0.00  0.00    -0.000 A 
ENDBRANCH  22  25
ENDBRANCH  18  19
ENDBRANCH  17  18
ENDBRANCH  16  17
TORSDOF 6
ENDMDL
