MODEL 1
REMARK VINA RESULT:      -8.3      0.000      0.000
REMARK  Name = 
REMARK  10 active torsions:
REMARK  status: ('A' for Active; 'I' for Inactive)
REMARK    1  A    between atoms: O_2  and  C_3
REMARK    2  A    between atoms: C_3  and  C_4
REMARK    3  A    between atoms: C_4  and  N_5
REMARK    4  A    between atoms: N_5  and  C_6
REMARK    5  A    between atoms: C_6  and  C_7
REMARK    6  A    between atoms: C_11  and  C_12
REMARK    7  A    between atoms: C_12  and  C_13
REMARK    8  A    between atoms: C_16  and  C_18
REMARK    9  A    between atoms: C_21  and  N_24
REMARK   10  A    between atoms: C_28  and  C_29
REMARK                            x       y       z     vdW  Elec       q    Type
REMARK                         _______ _______ _______ _____ _____    ______ ____
ROOT
ATOM      7  C   UNL     1       0.186   0.153  23.840  0.00  0.00    +0.039 C 
ATOM      8  C   UNL     1       0.105  -0.667  23.868  0.00  0.00    -0.033 C 
ATOM      9  C   UNL     1      -0.521  -1.005  24.286  0.00  0.00    -0.048 C 
ATOM     10  C   UNL     1      -0.602  -1.826  24.314  0.00  0.00    +0.026 C 
ATOM     11  C   UNL     1      -1.066  -0.523  24.676  0.00  0.00    +0.027 C 
ATOM     27  C   UNL     1      -0.984   0.298  24.648  0.00  0.00    +0.005 C 
ATOM     28  C   UNL     1      -0.358   0.636  24.230  0.00  0.00    +0.006 C 
ENDROOT
BRANCH  28  29
ATOM     29  C   UNL     1      -0.276   1.456  24.201  0.00  0.00    +0.000 C 
ATOM     30  C   UNL     1      -0.618   1.884  23.585  0.00  0.00    +0.000 C 
ATOM     31  C   UNL     1       0.148   1.848  24.790  0.00  0.00    +0.000 C 
ENDBRANCH  28  29
BRANCH   7   6
ATOM      6  C   UNL     1       0.812   0.492  23.422  0.00  0.00    +0.093 C 
BRANCH   6   5
ATOM      5  N   UNL     1       1.411   0.013  23.119  0.00  0.00    -0.215 NA
BRANCH   5   4
ATOM      4  C   UNL     1       2.000   0.341  22.642  0.00  0.00    +0.121 C 
BRANCH   4   3
ATOM      3  C   UNL     1       2.784   0.100  22.730  0.00  0.00    +0.161 C 
BRANCH   3   2
ATOM      1  C   UNL     1       4.117   0.614  22.710  0.00  0.00    +0.174 C 
ATOM      2  O   UNL     1       3.387   0.508  22.341  0.00  0.00    -0.350 OA
ENDBRANCH   3   2
ENDBRANCH   4   3
ENDBRANCH   5   4
ENDBRANCH   6   5
ENDBRANCH   7   6
BRANCH  11  12
ATOM     12  C   UNL     1      -1.691  -0.861  25.094  0.00  0.00    +0.091 C 
BRANCH  12  13
ATOM     13  C   UNL     1      -2.469  -0.657  24.910  0.00  0.00    +0.227 A 
ATOM     14  N   UNL     1      -2.997  -1.110  24.466  0.00  0.00    -0.111 NA
ATOM     15  N   UNL     1      -3.710  -0.697  24.420  0.00  0.00    -0.107 NA
ATOM     16  C   UNL     1      -3.622   0.010  24.835  0.00  0.00    +0.250 A 
ATOM     17  O   UNL     1      -2.855   0.035  25.137  0.00  0.00    -0.420 OA
BRANCH  16  18
ATOM     18  C   UNL     1      -4.200   0.592  24.930  0.00  0.00    +0.055 A 
ATOM     19  C   UNL     1      -4.808   0.482  25.478  0.00  0.00    +0.006 A 
ATOM     20  C   UNL     1      -5.386   1.063  25.574  0.00  0.00    +0.015 A 
ATOM     21  C   UNL     1      -5.356   1.754  25.123  0.00  0.00    +0.048 A 
ATOM     22  C   UNL     1      -4.748   1.863  24.575  0.00  0.00    +0.015 A 
ATOM     23  C   UNL     1      -4.170   1.281  24.480  0.00  0.00    +0.006 A 
BRANCH  21  24
ATOM     24  N   UNL     1      -5.934   2.334  25.219  0.00  0.00    -0.304 N 
ATOM     25  C   UNL     1      -6.711   2.185  24.989  0.00  0.00    +0.112 C 
ATOM     26  C   UNL     1      -5.734   3.065  25.546  0.00  0.00    +0.112 C 
ENDBRANCH  21  24
ENDBRANCH  16  18
ENDBRANCH  12  13
ENDBRANCH  11  12
TORSDOF 10
ENDMDL
MODEL 2
REMARK VINA RESULT:      -7.9      2.390      4.451
REMARK  Name = 
REMARK  10 active torsions:
REMARK  status: ('A' for Active; 'I' for Inactive)
REMARK    1  A    between atoms: O_2  and  C_3
REMARK    2  A    between atoms: C_3  and  C_4
REMARK    3  A    between atoms: C_4  and  N_5
REMARK    4  A    between atoms: N_5  and  C_6
REMARK    5  A    between atoms: C_6  and  C_7
REMARK    6  A    between atoms: C_11  and  C_12
REMARK    7  A    between atoms: C_12  and  C_13
REMARK    8  A    between atoms: C_16  and  C_18
REMARK    9  A    between atoms: C_21  and  N_24
REMARK   10  A    between atoms: C_28  and  C_29
REMARK                            x       y       z     vdW  Elec       q    Type
REMARK                         _______ _______ _______ _____ _____    ______ ____
ROOT
ATOM      7  C   UNL     1      -2.867   3.908  24.931  0.00  0.00    +0.039 C 
ATOM      8  C   UNL     1      -3.038   3.676  24.159  0.00  0.00    -0.033 C 
ATOM      9  C   UNL     1      -3.712   3.225  24.003  0.00  0.00    -0.048 C 
ATOM     10  C   UNL     1      -3.883   2.993  23.231  0.00  0.00    +0.026 C 
ATOM     11  C   UNL     1      -4.214   3.007  24.621  0.00  0.00    +0.027 C 
ATOM     27  C   UNL     1      -4.041   3.240  25.394  0.00  0.00    +0.005 C 
ATOM     28  C   UNL     1      -3.369   3.690  25.549  0.00  0.00    +0.006 C 
ENDROOT
BRANCH  28  29
ATOM     29  C   UNL     1      -3.196   3.923  26.321  0.00  0.00    +0.000 C 
ATOM     30  C   UNL     1      -2.732   3.442  26.804  0.00  0.00    +0.000 C 
ATOM     31  C   UNL     1      -3.488   4.639  26.611  0.00  0.00    +0.000 C 
ENDBRANCH  28  29
BRANCH   7   6
ATOM      6  C   UNL     1      -2.193   4.359  25.086  0.00  0.00    +0.093 C 
BRANCH   6   5
ATOM      5  N   UNL     1      -1.553   4.335  24.566  0.00  0.00    -0.215 NA
BRANCH   5   4
ATOM      4  C   UNL     1      -0.784   4.279  24.862  0.00  0.00    +0.121 C 
BRANCH   4   3
ATOM      3  C   UNL     1      -0.213   3.852  24.445  0.00  0.00    +0.161 C 
BRANCH   3   2
ATOM      1  C   UNL     1       0.450   2.587  24.415  0.00  0.00    +0.174 C 
ATOM      2  O   UNL     1       0.222   3.264  24.828  0.00  0.00    -0.350 OA
ENDBRANCH   3   2
ENDBRANCH   4   3
ENDBRANCH   5   4
ENDBRANCH   6   5
ENDBRANCH   7   6
BRANCH  11  12
ATOM     12  C   UNL     1      -4.887   2.557  24.466  0.00  0.00    +0.091 C 
BRANCH  12  13
ATOM     13  C   UNL     1      -4.925   1.771  24.715  0.00  0.00    +0.227 A 
ATOM     14  N   UNL     1      -5.496   1.449  25.216  0.00  0.00    -0.111 NA
ATOM     15  N   UNL     1      -5.323   0.649  25.318  0.00  0.00    -0.107 NA
ATOM     16  C   UNL     1      -4.646   0.477  24.880  0.00  0.00    +0.250 A 
ATOM     17  O   UNL     1      -4.400   1.171  24.507  0.00  0.00    -0.420 OA
BRANCH  16  18
ATOM     18  C   UNL     1      -4.279  -0.260  24.824  0.00  0.00    +0.055 A 
ATOM     19  C   UNL     1      -4.376  -0.718  24.144  0.00  0.00    +0.006 A 
ATOM     20  C   UNL     1      -4.009  -1.454  24.087  0.00  0.00    +0.015 A 
ATOM     21  C   UNL     1      -3.545  -1.733  24.710  0.00  0.00    +0.048 A 
ATOM     22  C   UNL     1      -3.447  -1.275  25.389  0.00  0.00    +0.015 A 
ATOM     23  C   UNL     1      -3.815  -0.538  25.445  0.00  0.00    +0.006 A 
BRANCH  21  24
ATOM     24  N   UNL     1      -3.178  -2.470  24.653  0.00  0.00    -0.304 N 
ATOM     25  C   UNL     1      -2.357  -2.518  24.595  0.00  0.00    +0.112 C 
ATOM     26  C   UNL     1      -3.633  -3.159  24.653  0.00  0.00    +0.112 C 
ENDBRANCH  21  24
ENDBRANCH  16  18
ENDBRANCH  12  13
ENDBRANCH  11  12
TORSDOF 10
ENDMDL
MODEL 3
REMARK VINA RESULT:      -7.9      2.427      3.969
REMARK  Name = 
REMARK  10 active torsions:
REMARK  status: ('A' for Active; 'I' for Inactive)
REMARK    1  A    between atoms: O_2  and  C_3
REMARK    2  A    between atoms: C_3  and  C_4
REMARK    3  A    between atoms: C_4  and  N_5
REMARK    4  A    between atoms: N_5  and  C_6
REMARK    5  A    between atoms: C_6  and  C_7
REMARK    6  A    between atoms: C_11  and  C_12
REMARK    7  A    between atoms: C_12  and  C_13
REMARK    8  A    between atoms: C_16  and  C_18
REMARK    9  A    between atoms: C_21  and  N_24
REMARK   10  A    between atoms: C_28  and  C_29
REMARK                            x       y       z     vdW  Elec       q    Type
REMARK                         _______ _______ _______ _____ _____    ______ ____
ROOT
ATOM      7  C   UNL     1      -0.627   2.667  25.763  0.00  0.00    +0.039 C 
ATOM      8  C   UNL     1      -1.198   3.147  26.114  0.00  0.00    -0.033 C 
ATOM      9  C   UNL     1      -1.945   3.219  25.769  0.00  0.00    -0.048 C 
ATOM     10  C   UNL     1      -2.516   3.699  26.120  0.00  0.00    +0.026 C 
ATOM     11  C   UNL     1      -2.119   2.811  25.073  0.00  0.00    +0.027 C 
ATOM     27  C   UNL     1      -1.546   2.331  24.723  0.00  0.00    +0.005 C 
ATOM     28  C   UNL     1      -0.801   2.259  25.067  0.00  0.00    +0.006 C 
ENDROOT
BRANCH  28  29
ATOM     29  C   UNL     1      -0.228   1.779  24.717  0.00  0.00    +0.000 C 
ATOM     30  C   UNL     1       0.314   2.103  24.186  0.00  0.00    +0.000 C 
ATOM     31  C   UNL     1      -0.198   0.975  24.897  0.00  0.00    +0.000 C 
ENDBRANCH  28  29
BRANCH   7   6
ATOM      6  C   UNL     1       0.120   2.595  26.108  0.00  0.00    +0.093 C 
BRANCH   6   5
ATOM      5  N   UNL     1       0.207   2.684  26.923  0.00  0.00    -0.215 NA
BRANCH   5   4
ATOM      4  C   UNL     1       0.960   2.683  27.260  0.00  0.00    +0.121 C 
BRANCH   4   3
ATOM      3  C   UNL     1       1.047   2.598  28.076  0.00  0.00    +0.161 C 
BRANCH   3   2
ATOM      1  C   UNL     1       1.885   2.553  29.233  0.00  0.00    +0.174 C 
ATOM      2  O   UNL     1       1.793   2.670  28.421  0.00  0.00    -0.350 OA
ENDBRANCH   3   2
ENDBRANCH   4   3
ENDBRANCH   5   4
ENDBRANCH   6   5
ENDBRANCH   7   6
BRANCH  11  12
ATOM     12  C   UNL     1      -2.864   2.883  24.729  0.00  0.00    +0.091 C 
BRANCH  12  13
ATOM     13  C   UNL     1      -3.370   2.232  24.698  0.00  0.00    +0.227 A 
ATOM     14  N   UNL     1      -4.195   2.257  24.732  0.00  0.00    -0.111 NA
ATOM     15  N   UNL     1      -4.474   1.482  24.682  0.00  0.00    -0.107 NA
ATOM     16  C   UNL     1      -3.824   0.980  24.617  0.00  0.00    +0.250 A 
ATOM     17  O   UNL     1      -3.142   1.443  24.627  0.00  0.00    -0.420 OA
BRANCH  16  18
ATOM     18  C   UNL     1      -3.850   0.157  24.554  0.00  0.00    +0.055 A 
ATOM     19  C   UNL     1      -3.824  -0.309  25.234  0.00  0.00    +0.006 A 
ATOM     20  C   UNL     1      -3.850  -1.131  25.172  0.00  0.00    +0.015 A 
ATOM     21  C   UNL     1      -3.903  -1.487  24.429  0.00  0.00    +0.048 A 
ATOM     22  C   UNL     1      -3.929  -1.021  23.748  0.00  0.00    +0.015 A 
ATOM     23  C   UNL     1      -3.903  -0.198  23.812  0.00  0.00    +0.006 A 
BRANCH  21  24
ATOM     24  N   UNL     1      -3.929  -2.309  24.366  0.00  0.00    -0.304 N 
ATOM     25  C   UNL     1      -4.375  -2.664  23.770  0.00  0.00    +0.112 C 
ATOM     26  C   UNL     1      -3.509  -2.777  24.901  0.00  0.00    +0.112 C 
ENDBRANCH  21  24
ENDBRANCH  16  18
ENDBRANCH  12  13
ENDBRANCH  11  12
TORSDOF 10
ENDMDL
MODEL 4
REMARK VINA RESULT:      -7.7      1.522      2.493
REMARK  Name = 
REMARK  10 active torsions:
REMARK  status: ('A' for Active; 'I' for Inactive)
REMARK    1  A    between atoms: O_2  and  C_3
REMARK    2  A    between atoms: C_3  and  C_4
REMARK    3  A    between atoms: C_4  and  N_5
REMARK    4  A    between atoms: N_5  and  C_6
REMARK    5  A    between atoms: C_6  and  C_7
REMARK    6  A    between atoms: C_11  and  C_12
REMARK    7  A    between atoms: C_12  and  C_13
REMARK    8  A    between atoms: C_16  and  C_18
REMARK    9  A    between atoms: C_21  and  N_24
REMARK   10  A    between atoms: C_28  and  C_29
REMARK                            x       y       z     vdW  Elec       q    Type
REMARK                         _______ _______ _______ _____ _____    ______ ____
ROOT
ATOM      7  C   UNL     1      -0.031   1.129  24.263  0.00  0.00    +0.039 C 
ATOM      8  C   UNL     1       0.255   1.895  24.157  0.00  0.00    -0.033 C 
ATOM      9  C   UNL     1      -0.118   2.530  24.530  0.00  0.00    -0.048 C 
ATOM     10  C   UNL     1       0.168   3.296  24.423  0.00  0.00    +0.026 C 
ATOM     11  C   UNL     1      -0.777   2.398  25.009  0.00  0.00    +0.027 C 
ATOM     27  C   UNL     1      -1.062   1.631  25.114  0.00  0.00    +0.005 C 
ATOM     28  C   UNL     1      -0.689   0.997  24.742  0.00  0.00    +0.006 C 
ENDROOT
BRANCH  28  29
ATOM     29  C   UNL     1      -0.975   0.230  24.848  0.00  0.00    +0.000 C 
ATOM     30  C   UNL     1      -1.473  -0.107  24.284  0.00  0.00    +0.000 C 
ATOM     31  C   UNL     1      -0.760  -0.201  25.519  0.00  0.00    +0.000 C 
ENDBRANCH  28  29
BRANCH   7   6
ATOM      6  C   UNL     1       0.343   0.494  23.891  0.00  0.00    +0.093 C 
BRANCH   6   5
ATOM      5  N   UNL     1       0.973   0.632  23.376  0.00  0.00    -0.215 NA
BRANCH   5   4
ATOM      4  C   UNL     1       1.410  -0.004  23.081  0.00  0.00    +0.121 C 
BRANCH   4   3
ATOM      3  C   UNL     1       2.002   0.128  22.522  0.00  0.00    +0.161 C 
BRANCH   3   2
ATOM      1  C   UNL     1       3.406   0.317  22.335  0.00  0.00    +0.174 C 
ATOM      2  O   UNL     1       2.781  -0.091  22.686  0.00  0.00    -0.350 OA
ENDBRANCH   3   2
ENDBRANCH   4   3
ENDBRANCH   5   4
ENDBRANCH   6   5
ENDBRANCH   7   6
BRANCH  11  12
ATOM     12  C   UNL     1      -1.150   3.032  25.381  0.00  0.00    +0.091 C 
BRANCH  12  13
ATOM     13  C   UNL     1      -1.940   3.203  25.214  0.00  0.00    +0.227 A 
ATOM     14  N   UNL     1      -2.219   3.873  24.822  0.00  0.00    -0.111 NA
ATOM     15  N   UNL     1      -3.040   3.818  24.776  0.00  0.00    -0.107 NA
ATOM     16  C   UNL     1      -3.269   3.114  25.140  0.00  0.00    +0.250 A 
ATOM     17  O   UNL     1      -2.589   2.734  25.411  0.00  0.00    -0.420 OA
BRANCH  16  18
ATOM     18  C   UNL     1      -4.043   2.838  25.220  0.00  0.00    +0.055 A 
ATOM     19  C   UNL     1      -4.292   2.179  24.789  0.00  0.00    +0.006 A 
ATOM     20  C   UNL     1      -5.065   1.903  24.869  0.00  0.00    +0.015 A 
ATOM     21  C   UNL     1      -5.590   2.285  25.378  0.00  0.00    +0.048 A 
ATOM     22  C   UNL     1      -5.341   2.944  25.809  0.00  0.00    +0.015 A 
ATOM     23  C   UNL     1      -4.567   3.220  25.729  0.00  0.00    +0.006 A 
BRANCH  21  24
ATOM     24  N   UNL     1      -6.362   2.009  25.457  0.00  0.00    -0.304 N 
ATOM     25  C   UNL     1      -6.831   1.897  24.788  0.00  0.00    +0.112 C 
ATOM     26  C   UNL     1      -6.667   1.844  26.207  0.00  0.00    +0.112 C 
ENDBRANCH  21  24
ENDBRANCH  16  18
ENDBRANCH  12  13
ENDBRANCH  11  12
TORSDOF 10
ENDMDL
MODEL 5
REMARK VINA RESULT:      -7.5      2.135      5.940
REMARK  Name = 
REMARK  10 active torsions:
REMARK  status: ('A' for Active; 'I' for Inactive)
REMARK    1  A    between atoms: O_2  and  C_3
REMARK    2  A    between atoms: C_3  and  C_4
REMARK    3  A    between atoms: C_4  and  N_5
REMARK    4  A    between atoms: N_5  and  C_6
REMARK    5  A    between atoms: C_6  and  C_7
REMARK    6  A    between atoms: C_11  and  C_12
REMARK    7  A    between atoms: C_12  and  C_13
REMARK    8  A    between atoms: C_16  and  C_18
REMARK    9  A    between atoms: C_21  and  N_24
REMARK   10  A    between atoms: C_28  and  C_29
REMARK                            x       y       z     vdW  Elec       q    Type
REMARK                         _______ _______ _______ _____ _____    ______ ____
ROOT
ATOM      7  C   UNL     1      -3.558   3.488  24.868  0.00  0.00    +0.039 C 
ATOM      8  C   UNL     1      -3.131   3.725  25.533  0.00  0.00    -0.033 C 
ATOM      9  C   UNL     1      -2.306   3.679  25.531  0.00  0.00    -0.048 C 
ATOM     10  C   UNL     1      -1.880   3.916  26.196  0.00  0.00    +0.026 C 
ATOM     11  C   UNL     1      -1.910   3.396  24.865  0.00  0.00    +0.027 C 
ATOM     27  C   UNL     1      -2.338   3.160  24.200  0.00  0.00    +0.005 C 
ATOM     28  C   UNL     1      -3.161   3.205  24.202  0.00  0.00    +0.006 C 
ENDROOT
BRANCH  28  29
ATOM     29  C   UNL     1      -3.590   2.969  23.537  0.00  0.00    +0.000 C 
ATOM     30  C   UNL     1      -3.773   2.173  23.426  0.00  0.00    +0.000 C 
ATOM     31  C   UNL     1      -3.834   3.530  22.984  0.00  0.00    +0.000 C 
ENDBRANCH  28  29
BRANCH   7   6
ATOM      6  C   UNL     1      -4.382   3.534  24.870  0.00  0.00    +0.093 C 
BRANCH   6   5
ATOM      5  N   UNL     1      -4.796   3.483  25.581  0.00  0.00    -0.215 NA
BRANCH   5   4
ATOM      4  C   UNL     1      -5.588   3.250  25.582  0.00  0.00    +0.121 C 
BRANCH   4   3
ATOM      3  C   UNL     1      -5.880   2.786  26.198  0.00  0.00    +0.161 C 
BRANCH   3   2
ATOM      1  C   UNL     1      -6.581   1.623  26.644  0.00  0.00    +0.174 C 
ATOM      2  O   UNL     1      -6.240   2.061  26.034  0.00  0.00    -0.350 OA
ENDBRANCH   3   2
ENDBRANCH   4   3
ENDBRANCH   5   4
ENDBRANCH   6   5
ENDBRANCH   7   6
BRANCH  11  12
ATOM     12  C   UNL     1      -1.087   3.351  24.863  0.00  0.00    +0.091 C 
BRANCH  12  13
ATOM     13  C   UNL     1      -0.713   2.629  24.723  0.00  0.00    +0.227 A 
ATOM     14  N   UNL     1       0.025   2.526  24.369  0.00  0.00    -0.111 NA
ATOM     15  N   UNL     1       0.183   1.717  24.339  0.00  0.00    -0.107 NA
ATOM     16  C   UNL     1      -0.457   1.320  24.674  0.00  0.00    +0.250 A 
ATOM     17  O   UNL     1      -1.011   1.884  24.911  0.00  0.00    -0.420 OA
BRANCH  16  18
ATOM     18  C   UNL     1      -0.532   0.502  24.757  0.00  0.00    +0.055 A 
ATOM     19  C   UNL     1      -0.274   0.001  24.154  0.00  0.00    +0.006 A 
ATOM     20  C   UNL     1      -0.348  -0.816  24.237  0.00  0.00    +0.015 A 
ATOM     21  C   UNL     1      -0.680  -1.133  24.923  0.00  0.00    +0.048 A 
ATOM     22  C   UNL     1      -0.938  -0.632  25.526  0.00  0.00    +0.015 A 
ATOM     23  C   UNL     1      -0.864   0.186  25.442  0.00  0.00    +0.006 A 
BRANCH  21  24
ATOM     24  N   UNL     1      -0.754  -1.950  25.005  0.00  0.00    -0.304 N 
ATOM     25  C   UNL     1      -1.438  -2.331  24.745  0.00  0.00    +0.112 C 
ATOM     26  C   UNL     1      -0.144  -2.387  25.348  0.00  0.00    +0.112 C 
ENDBRANCH  21  24
ENDBRANCH  16  18
ENDBRANCH  12  13
ENDBRANCH  11  12
TORSDOF 10
ENDMDL
MODEL 6
REMARK VINA RESULT:      -7.3      1.808      3.115
REMARK  Name = 
REMARK  10 active torsions:
REMARK  status: ('A' for Active; 'I' for Inactive)
REMARK    1  A    between atoms: O_2  and  C_3
REMARK    2  A    between atoms: C_3  and  C_4
REMARK    3  A    between atoms: C_4  and  N_5
REMARK    4  A    between atoms: N_5  and  C_6
REMARK    5  A    between atoms: C_6  and  C_7
REMARK    6  A    between atoms: C_11  and  C_12
REMARK    7  A    between atoms: C_12  and  C_13
REMARK    8  A    between atoms: C_16  and  C_18
REMARK    9  A    between atoms: C_21  and  N_24
REMARK   10  A    between atoms: C_28  and  C_29
REMARK                            x       y       z     vdW  Elec       q    Type
REMARK                         _______ _______ _______ _____ _____    ______ ____
ROOT
ATOM      7  C   UNL     1      -0.530   2.235  24.426  0.00  0.00    +0.039 C 
ATOM      8  C   UNL     1      -0.942   2.303  23.715  0.00  0.00    -0.033 C 
ATOM      9  C   UNL     1      -1.767   2.344  23.720  0.00  0.00    -0.048 C 
ATOM     10  C   UNL     1      -2.179   2.412  23.008  0.00  0.00    +0.026 C 
ATOM     11  C   UNL     1      -2.178   2.317  24.434  0.00  0.00    +0.027 C 
ATOM     27  C   UNL     1      -1.764   2.249  25.145  0.00  0.00    +0.005 C 
ATOM     28  C   UNL     1      -0.941   2.208  25.141  0.00  0.00    +0.006 C 
ENDROOT
BRANCH  28  29
ATOM     29  C   UNL     1      -0.527   2.140  25.852  0.00  0.00    +0.000 C 
ATOM     30  C   UNL     1      -0.400   1.397  26.186  0.00  0.00    +0.000 C 
ATOM     31  C   UNL     1      -0.239   2.815  26.228  0.00  0.00    +0.000 C 
ENDBRANCH  28  29
BRANCH   7   6
ATOM      6  C   UNL     1       0.295   2.193  24.422  0.00  0.00    +0.093 C 
BRANCH   6   5
ATOM      5  N   UNL     1       0.685   1.819  23.799  0.00  0.00    -0.215 NA
BRANCH   5   4
ATOM      4  C   UNL     1       1.503   1.711  23.831  0.00  0.00    +0.121 C 
BRANCH   4   3
ATOM      3  C   UNL     1       1.862   1.144  23.351  0.00  0.00    +0.161 C 
BRANCH   3   2
ATOM      1  C   UNL     1       3.034   0.613  22.729  0.00  0.00    +0.174 C 
ATOM      2  O   UNL     1       2.674   1.182  23.206  0.00  0.00    -0.350 OA
ENDBRANCH   3   2
ENDBRANCH   4   3
ENDBRANCH   5   4
ENDBRANCH   6   5
ENDBRANCH   7   6
BRANCH  11  12
ATOM     12  C   UNL     1      -3.001   2.359  24.438  0.00  0.00    +0.091 C 
BRANCH  12  13
ATOM     13  C   UNL     1      -3.448   1.684  24.598  0.00  0.00    +0.227 A 
ATOM     14  N   UNL     1      -4.188   1.668  24.965  0.00  0.00    -0.111 NA
ATOM     15  N   UNL     1      -4.431   0.881  25.013  0.00  0.00    -0.107 NA
ATOM     16  C   UNL     1      -3.843   0.412  24.677  0.00  0.00    +0.250 A 
ATOM     17  O   UNL     1      -3.235   0.908  24.421  0.00  0.00    -0.420 OA
BRANCH  16  18
ATOM     18  C   UNL     1      -3.858  -0.411  24.609  0.00  0.00    +0.055 A 
ATOM     19  C   UNL     1      -4.228  -0.764  23.961  0.00  0.00    +0.006 A 
ATOM     20  C   UNL     1      -4.244  -1.585  23.892  0.00  0.00    +0.015 A 
ATOM     21  C   UNL     1      -3.890  -2.055  24.471  0.00  0.00    +0.048 A 
ATOM     22  C   UNL     1      -3.520  -1.702  25.119  0.00  0.00    +0.015 A 
ATOM     23  C   UNL     1      -3.504  -0.880  25.187  0.00  0.00    +0.006 A 
BRANCH  21  24
ATOM     24  N   UNL     1      -3.906  -2.876  24.402  0.00  0.00    -0.304 N 
ATOM     25  C   UNL     1      -4.305  -3.230  23.773  0.00  0.00    +0.112 C 
ATOM     26  C   UNL     1      -3.522  -3.345  24.962  0.00  0.00    +0.112 C 
ENDBRANCH  21  24
ENDBRANCH  16  18
ENDBRANCH  12  13
ENDBRANCH  11  12
TORSDOF 10
ENDMDL
MODEL 7
REMARK VINA RESULT:      -7.2      1.465      6.017
REMARK  Name = 
REMARK  10 active torsions:
REMARK  status: ('A' for Active; 'I' for Inactive)
REMARK    1  A    between atoms: O_2  and  C_3
REMARK    2  A    between atoms: C_3  and  C_4
REMARK    3  A    between atoms: C_4  and  N_5
REMARK    4  A    between atoms: N_5  and  C_6
REMARK    5  A    between atoms: C_6  and  C_7
REMARK    6  A    between atoms: C_11  and  C_12
REMARK    7  A    between atoms: C_12  and  C_13
REMARK    8  A    between atoms: C_16  and  C_18
REMARK    9  A    between atoms: C_21  and  N_24
REMARK   10  A    between atoms: C_28  and  C_29
REMARK                            x       y       z     vdW  Elec       q    Type
REMARK                         _______ _______ _______ _____ _____    ______ ____
ROOT
ATOM      7  C   UNL     1      -4.095   1.393  24.527  0.00  0.00    +0.039 C 
ATOM      8  C   UNL     1      -4.294   0.722  24.964  0.00  0.00    -0.033 C 
ATOM      9  C   UNL     1      -3.791   0.067  24.965  0.00  0.00    -0.048 C 
ATOM     10  C   UNL     1      -3.990  -0.604  25.401  0.00  0.00    +0.026 C 
ATOM     11  C   UNL     1      -3.090   0.084  24.529  0.00  0.00    +0.027 C 
ATOM     27  C   UNL     1      -2.893   0.756  24.093  0.00  0.00    +0.005 C 
ATOM     28  C   UNL     1      -3.394   1.410  24.092  0.00  0.00    +0.006 C 
ENDROOT
BRANCH  28  29
ATOM     29  C   UNL     1      -3.197   2.082  23.656  0.00  0.00    +0.000 C 
ATOM     30  C   UNL     1      -3.433   2.147  22.868  0.00  0.00    +0.000 C 
ATOM     31  C   UNL     1      -2.763   2.689  24.008  0.00  0.00    +0.000 C 
ENDBRANCH  28  29
BRANCH   7   6
ATOM      6  C   UNL     1      -4.598   2.048  24.527  0.00  0.00    +0.093 C 
BRANCH   6   5
ATOM      5  N   UNL     1      -5.135   2.155  25.143  0.00  0.00    -0.215 NA
BRANCH   5   4
ATOM      4  C   UNL     1      -5.676   2.778  25.115  0.00  0.00    +0.121 C 
BRANCH   4   3
ATOM      3  C   UNL     1      -5.739   3.298  25.752  0.00  0.00    +0.161 C 
BRANCH   3   2
ATOM      1  C   UNL     1      -5.905   4.712  25.631  0.00  0.00    +0.174 C 
ATOM      2  O   UNL     1      -6.232   3.958  25.699  0.00  0.00    -0.350 OA
ENDBRANCH   3   2
ENDBRANCH   4   3
ENDBRANCH   5   4
ENDBRANCH   6   5
ENDBRANCH   7   6
BRANCH  11  12
ATOM     12  C   UNL     1      -2.589  -0.570  24.530  0.00  0.00    +0.091 C 
BRANCH  12  13
ATOM     13  C   UNL     1      -1.773  -0.465  24.594  0.00  0.00    +0.227 A 
ATOM     14  N   UNL     1      -1.337  -0.477  25.295  0.00  0.00    -0.111 NA
ATOM     15  N   UNL     1      -0.544  -0.349  25.104  0.00  0.00    -0.107 NA
ATOM     16  C   UNL     1      -0.491  -0.259  24.286  0.00  0.00    +0.250 A 
ATOM     17  O   UNL     1      -1.250  -0.331  23.971  0.00  0.00    -0.420 OA
BRANCH  16  18
ATOM     18  C   UNL     1       0.200  -0.121  23.857  0.00  0.00    +0.055 A 
ATOM     19  C   UNL     1       0.535  -0.728  23.409  0.00  0.00    +0.006 A 
ATOM     20  C   UNL     1       1.226  -0.591  22.979  0.00  0.00    +0.015 A 
ATOM     21  C   UNL     1       1.583   0.153  22.998  0.00  0.00    +0.048 A 
ATOM     22  C   UNL     1       1.248   0.760  23.446  0.00  0.00    +0.015 A 
ATOM     23  C   UNL     1       0.556   0.622  23.875  0.00  0.00    +0.006 A 
BRANCH  21  24
ATOM     24  N   UNL     1       2.273   0.290  22.569  0.00  0.00    -0.304 N 
ATOM     25  C   UNL     1       2.378  -0.063  21.831  0.00  0.00    +0.112 C 
ATOM     26  C   UNL     1       2.860   0.782  22.878  0.00  0.00    +0.112 C 
ENDBRANCH  21  24
ENDBRANCH  16  18
ENDBRANCH  12  13
ENDBRANCH  11  12
TORSDOF 10
ENDMDL
MODEL 8
REMARK VINA RESULT:      -5.3     17.655     18.338
REMARK  Name = 
REMARK  10 active torsions:
REMARK  status: ('A' for Active; 'I' for Inactive)
REMARK    1  A    between atoms: O_2  and  C_3
REMARK    2  A    between atoms: C_3  and  C_4
REMARK    3  A    between atoms: C_4  and  N_5
REMARK    4  A    between atoms: N_5  and  C_6
REMARK    5  A    between atoms: C_6  and  C_7
REMARK    6  A    between atoms: C_11  and  C_12
REMARK    7  A    between atoms: C_12  and  C_13
REMARK    8  A    between atoms: C_16  and  C_18
REMARK    9  A    between atoms: C_21  and  N_24
REMARK   10  A    between atoms: C_28  and  C_29
REMARK                            x       y       z     vdW  Elec       q    Type
REMARK                         _______ _______ _______ _____ _____    ______ ____
ROOT
ATOM      7  C   UNL     1      -5.059 -10.154  10.151  0.00  0.00    +0.039 C 
ATOM      8  C   UNL     1      -5.556 -10.267  10.800  0.00  0.00    -0.033 C 
ATOM      9  C   UNL     1      -6.374 -10.285  10.694  0.00  0.00    -0.048 C 
ATOM     10  C   UNL     1      -6.871 -10.398  11.343  0.00  0.00    +0.026 C 
ATOM     11  C   UNL     1      -6.695 -10.190   9.940  0.00  0.00    +0.027 C 
ATOM     27  C   UNL     1      -6.198 -10.077   9.292  0.00  0.00    +0.005 C 
ATOM     28  C   UNL     1      -5.380 -10.059   9.397  0.00  0.00    +0.006 C 
ENDROOT
BRANCH  28  29
ATOM     29  C   UNL     1      -4.882  -9.945   8.749  0.00  0.00    +0.000 C 
ATOM     30  C   UNL     1      -4.658 -10.588   8.283  0.00  0.00    +0.000 C 
ATOM     31  C   UNL     1      -4.609  -9.189   8.566  0.00  0.00    +0.000 C 
ENDBRANCH  28  29
BRANCH   7   6
ATOM      6  C   UNL     1      -4.241 -10.135  10.257  0.00  0.00    +0.093 C 
BRANCH   6   5
ATOM      5  N   UNL     1      -3.922 -10.204  11.014  0.00  0.00    -0.215 NA
BRANCH   5   4
ATOM      4  C   UNL     1      -3.120 -10.379  11.110  0.00  0.00    +0.121 C 
BRANCH   4   3
ATOM      3  C   UNL     1      -2.759 -10.268  11.843  0.00  0.00    +0.161 C 
BRANCH   3   2
ATOM      1  C   UNL     1      -1.545 -10.272  12.597  0.00  0.00    +0.174 C 
ATOM      2  O   UNL     1      -1.944 -10.144  11.886  0.00  0.00    -0.350 OA
ENDBRANCH   3   2
ENDBRANCH   4   3
ENDBRANCH   5   4
ENDBRANCH   6   5
ENDBRANCH   7   6
BRANCH  11  12
ATOM     12  C   UNL     1      -7.513 -10.208   9.835  0.00  0.00    +0.091 C 
BRANCH  12  13
ATOM     13  C   UNL     1      -7.875  -9.679   9.315  0.00  0.00    +0.227 A 
ATOM     14  N   UNL     1      -8.114  -9.846   8.543  0.00  0.00    -0.111 NA
ATOM     15  N   UNL     1      -8.448  -9.162   8.226  0.00  0.00    -0.107 NA
ATOM     16  C   UNL     1      -8.414  -8.572   8.802  0.00  0.00    +0.250 A 
ATOM     17  O   UNL     1      -8.060  -8.893   9.475  0.00  0.00    -0.420 OA
BRANCH  16  18
ATOM     18  C   UNL     1      -8.688  -7.798   8.720  0.00  0.00    +0.055 A 
ATOM     19  C   UNL     1      -8.195  -7.219   8.396  0.00  0.00    +0.006 A 
ATOM     20  C   UNL     1      -8.467  -6.445   8.314  0.00  0.00    +0.015 A 
ATOM     21  C   UNL     1      -9.232  -6.249   8.556  0.00  0.00    +0.048 A 
ATOM     22  C   UNL     1      -9.724  -6.827   8.880  0.00  0.00    +0.015 A 
ATOM     23  C   UNL     1      -9.451  -7.602   8.962  0.00  0.00    +0.006 A 
BRANCH  21  24
ATOM     24  N   UNL     1      -9.504  -5.474   8.474  0.00  0.00    -0.304 N 
ATOM     25  C   UNL     1      -8.981  -4.842   8.559  0.00  0.00    +0.112 C 
ATOM     26  C   UNL     1     -10.299  -5.332   8.307  0.00  0.00    +0.112 C 
ENDBRANCH  21  24
ENDBRANCH  16  18
ENDBRANCH  12  13
ENDBRANCH  11  12
TORSDOF 10
ENDMDL
MODEL 9
REMARK VINA RESULT:      -5.0     16.596     17.324
REMARK  Name = 
REMARK  10 active torsions:
REMARK  status: ('A' for Active; 'I' for Inactive)
REMARK    1  A    between atoms: O_2  and  C_3
REMARK    2  A    between atoms: C_3  and  C_4
REMARK    3  A    between atoms: C_4  and  N_5
REMARK    4  A    between atoms: N_5  and  C_6
REMARK    5  A    between atoms: C_6  and  C_7
REMARK    6  A    between atoms: C_11  and  C_12
REMARK    7  A    between atoms: C_12  and  C_13
REMARK    8  A    between atoms: C_16  and  C_18
REMARK    9  A    between atoms: C_21  and  N_24
REMARK   10  A    between atoms: C_28  and  C_29
REMARK                            x       y       z     vdW  Elec       q    Type
REMARK                         _______ _______ _______ _____ _____    ______ ____
ROOT
ATOM      7  C   UNL     1      -3.458  -9.856  10.987  0.00  0.00    +0.039 C 
ATOM      8  C   UNL     1      -3.547 -10.036  11.787  0.00  0.00    -0.033 C 
ATOM      9  C   UNL     1      -4.294 -10.217  12.089  0.00  0.00    -0.048 C 
ATOM     10  C   UNL     1      -4.383 -10.397  12.889  0.00  0.00    +0.026 C 
ATOM     11  C   UNL     1      -4.951 -10.217  11.590  0.00  0.00    +0.027 C 
ATOM     27  C   UNL     1      -4.861 -10.036  10.790  0.00  0.00    +0.005 C 
ATOM     28  C   UNL     1      -4.115  -9.856  10.489  0.00  0.00    +0.006 C 
ENDROOT
BRANCH  28  29
ATOM     29  C   UNL     1      -4.025  -9.676   9.688  0.00  0.00    +0.000 C 
ATOM     30  C   UNL     1      -3.990  -8.889   9.444  0.00  0.00    +0.000 C 
ATOM     31  C   UNL     1      -3.970 -10.283   9.133  0.00  0.00    +0.000 C 
ENDBRANCH  28  29
BRANCH   7   6
ATOM      6  C   UNL     1      -2.711  -9.676  10.686  0.00  0.00    +0.093 C 
BRANCH   6   5
ATOM      5  N   UNL     1      -2.082  -9.535  11.201  0.00  0.00    -0.215 NA
BRANCH   5   4
ATOM      4  C   UNL     1      -1.354  -9.282  10.904  0.00  0.00    +0.121 C 
BRANCH   4   3
ATOM      3  C   UNL     1      -0.764  -9.029  11.422  0.00  0.00    +0.161 C 
BRANCH   3   2
ATOM      1  C   UNL     1       0.416  -8.233  11.547  0.00  0.00    +0.174 C 
ATOM      2  O   UNL     1      -0.035  -8.780  11.125  0.00  0.00    -0.350 OA
ENDBRANCH   3   2
ENDBRANCH   4   3
ENDBRANCH   5   4
ENDBRANCH   6   5
ENDBRANCH   7   6
BRANCH  11  12
ATOM     12  C   UNL     1      -5.697 -10.397  11.891  0.00  0.00    +0.091 C 
BRANCH  12  13
ATOM     13  C   UNL     1      -6.335  -9.894  11.744  0.00  0.00    +0.227 A 
ATOM     14  N   UNL     1      -6.562  -9.252  12.210  0.00  0.00    -0.111 NA
ATOM     15  N   UNL     1      -7.224  -8.906  11.860  0.00  0.00    -0.107 NA
ATOM     16  C   UNL     1      -7.406  -9.333  11.179  0.00  0.00    +0.250 A 
ATOM     17  O   UNL     1      -6.856  -9.944  11.107  0.00  0.00    -0.420 OA
BRANCH  16  18
ATOM     18  C   UNL     1      -8.028  -9.178  10.659  0.00  0.00    +0.055 A 
ATOM     19  C   UNL     1      -8.774  -9.503  10.801  0.00  0.00    +0.006 A 
ATOM     20  C   UNL     1      -9.396  -9.349  10.282  0.00  0.00    +0.015 A 
ATOM     21  C   UNL     1      -9.273  -8.869   9.622  0.00  0.00    +0.048 A 
ATOM     22  C   UNL     1      -8.528  -8.544   9.480  0.00  0.00    +0.015 A 
ATOM     23  C   UNL     1      -7.905  -8.699  10.000  0.00  0.00    +0.006 A 
BRANCH  21  24
ATOM     24  N   UNL     1      -9.896  -8.715   9.103  0.00  0.00    -0.304 N 
ATOM     25  C   UNL     1      -9.978  -9.158   8.413  0.00  0.00    +0.112 C 
ATOM     26  C   UNL     1     -10.437  -8.116   9.275  0.00  0.00    +0.112 C 
ENDBRANCH  21  24
ENDBRANCH  16  18
ENDBRANCH  12  13
ENDBRANCH  11  12
TORSDOF 10
ENDMDL
