REMARK  Name = 
REMARK  5 active torsions:
REMARK  status: ('A' for Active; 'I' for Inactive)
REMARK    1  A    between atoms: C_2  and  C_5
REMARK    2  A    between atoms: C_7  and  C_8
REMARK    3  A    between atoms: C_8  and  N_9
REMARK    4  A    between atoms: C_14  and  O_16
REMARK    5  A    between atoms: O_16  and  C_17
REMARK                            x       y       z     vdW  Elec       q    Type
REMARK                         _______ _______ _______ _____ _____    ______ ____
ROOT
ATOM      9  N   UNL     1       1.028  -2.217   0.000  0.00  0.00    -0.264 NA
ATOM     10  C   UNL     1       0.967  -1.395   0.000  0.00  0.00    +0.105 C 
ATOM     11  C   UNL     1       1.571  -0.834   0.000  0.00  0.00    +0.160 C 
ATOM     12  O   UNL     1       2.387  -0.957   0.000  0.00  0.00    -0.348 OA
ATOM     13  C   UNL     1       2.800  -1.671   0.000  0.00  0.00    +0.187 C 
ATOM     14  C   UNL     1       2.498  -2.439   0.000  0.00  0.00    +0.213 C 
ATOM     15  C   UNL     1       1.710  -2.682   0.000  0.00  0.00    +0.119 C 
ENDROOT
BRANCH   9   8
ATOM      8  C   UNL     1       0.314  -2.630   0.000  0.00  0.00    +0.099 C 
BRANCH   8   7
ATOM      5  C   UNL     1      -1.115  -0.980   0.000  0.00  0.00    +0.071 A 
ATOM      6  C   UNL     1      -0.401  -1.393   0.000  0.00  0.00    +0.001 A 
ATOM      7  C   UNL     1      -0.401  -2.217   0.000  0.00  0.00    -0.006 A 
ATOM     23  C   UNL     1      -1.115  -2.630   0.000  0.00  0.00    -0.003 A 
ATOM     24  C   UNL     1      -1.830  -2.217   0.000  0.00  0.00    -0.000 A 
ATOM     25  C   UNL     1      -1.830  -1.393   0.000  0.00  0.00    +0.004 A 
BRANCH   5   2
ATOM      1  F   UNL     1      -1.115   0.670   0.000  0.00  0.00    -0.166 F 
ATOM      2  C   UNL     1      -1.115  -0.155   0.000  0.00  0.00    +0.419 C 
ATOM      3  F   UNL     1      -1.940  -0.155   0.000  0.00  0.00    -0.166 F 
ATOM      4  F   UNL     1      -0.290  -0.155   0.000  0.00  0.00    -0.166 F 
ENDBRANCH   5   2
ENDBRANCH   8   7
ENDBRANCH   9   8
BRANCH  14  16
ATOM     16  O   UNL     1       3.059  -3.044   0.000  0.00  0.00    -0.459 OA
BRANCH  16  17
ATOM     17  C   UNL     1       2.816  -3.832   0.000  0.00  0.00    +0.245 A 
ATOM     18  C   UNL     1       3.377  -4.437   0.000  0.00  0.00    +0.156 A 
ATOM     19  N   UNL     1       3.134  -5.225   0.000  0.00  0.00    -0.236 NA
ATOM     20  C   UNL     1       2.330  -5.409   0.000  0.00  0.00    +0.120 A 
ATOM     21  C   UNL     1       1.769  -4.804   0.000  0.00  0.00    +0.123 A 
ATOM     22  N   UNL     1       2.012  -4.016   0.000  0.00  0.00    -0.207 NA
ENDBRANCH  16  17
ENDBRANCH  14  16
TORSDOF 5
