MODEL 1
REMARK VINA RESULT:     -11.1      0.000      0.000
REMARK  Name = 
REMARK  9 active torsions:
REMARK  status: ('A' for Active; 'I' for Inactive)
REMARK    1  A    between atoms: O_2  and  C_3
REMARK    2  A    between atoms: C_3  and  C_5
REMARK    3  A    between atoms: C_5  and  C_6
REMARK    4  A    between atoms: C_5  and  N_15
REMARK    5  A    between atoms: C_6  and  C_7
REMARK    6  A    between atoms: C_10  and  O_11
REMARK    7  A    between atoms: C_16  and  C_18
REMARK    8  A    between atoms: C_24  and  C_26
REMARK    9  A    between atoms: N_33  and  C_34
REMARK                            x       y       z     vdW  Elec       q    Type
REMARK                         _______ _______ _______ _____ _____    ______ ____
ROOT
ATOM     18  C   UNL     1      -2.811   0.194  24.871  0.00  0.00    +0.174 C 
ATOM     19  C   UNL     1      -3.276   0.868  24.962  0.00  0.00    +0.124 C 
ATOM     20  N   UNL     1      -4.099   0.803  24.978  0.00  0.00    -0.259 N 
ATOM     21  C   UNL     1      -4.456   0.063  24.904  0.00  0.00    +0.117 C 
ATOM     22  C   UNL     1      -3.990  -0.612  24.813  0.00  0.00    +0.116 C 
ATOM     23  N   UNL     1      -3.167  -0.547  24.796  0.00  0.00    -0.266 N 
ATOM     24  C   UNL     1      -2.702  -1.222  24.706  0.00  0.00    +0.255 C 
ATOM     25  O   UNL     1      -1.880  -1.156  24.689  0.00  0.00    -0.269 OA
ATOM     31  C   UNL     1      -4.565   1.477  25.069  0.00  0.00    +0.328 C 
ATOM     32  O   UNL     1      -5.387   1.412  25.085  0.00  0.00    -0.250 OA
ATOM     33  N   UNL     1      -4.208   2.218  25.143  0.00  0.00    -0.162 NA
ENDROOT
BRANCH  33  34
ATOM     34  C   UNL     1      -4.674   2.893  25.234  0.00  0.00    +0.075 A 
ATOM     35  C   UNL     1      -4.596   3.521  24.705  0.00  0.00    +0.017 A 
ATOM     36  C   UNL     1      -5.062   4.196  24.795  0.00  0.00    +0.001 A 
ATOM     37  C   UNL     1      -5.606   4.242  25.414  0.00  0.00    +0.000 A 
ATOM     38  C   UNL     1      -5.683   3.614  25.943  0.00  0.00    +0.001 A 
ATOM     39  C   UNL     1      -5.217   2.939  25.853  0.00  0.00    +0.017 A 
ENDBRANCH  33  34
BRANCH  24  26
ATOM     26  C   UNL     1      -3.058  -1.962  24.631  0.00  0.00    +0.083 A 
ATOM     27  C   UNL     1      -3.367  -2.284  23.936  0.00  0.00    +0.012 A 
ATOM     28  C   UNL     1      -3.668  -3.031  24.114  0.00  0.00    +0.008 A 
ATOM     29  C   UNL     1      -3.545  -3.172  24.917  0.00  0.00    +0.036 A 
ATOM     30  S   UNL     1      -3.168  -2.512  25.237  0.00  0.00    -0.082 S 
ENDBRANCH  24  26
BRANCH  18  16
ATOM     15  N   UNL     1      -1.630   0.829  24.378  0.00  0.00    -0.194 NA
ATOM     16  C   UNL     1      -1.989   0.259  24.854  0.00  0.00    +0.262 C 
ATOM     17  O   UNL     1      -1.526  -0.245  25.314  0.00  0.00    -0.271 OA
BRANCH  15   5
ATOM      5  C   UNL     1      -0.807   0.894  24.361  0.00  0.00    +0.198 C 
BRANCH   5   3
ATOM      3  C   UNL     1      -0.379   0.553  23.744  0.00  0.00    +0.337 C 
ATOM      4  O   UNL     1      -0.634   0.643  22.966  0.00  0.00    -0.248 OA
BRANCH   3   2
ATOM      1  C   UNL     1       0.768  -0.168  23.289  0.00  0.00    +0.256 C 
ATOM      2  O   UNL     1       0.304   0.120  23.907  0.00  0.00    -0.443 OA
ENDBRANCH   3   2
ENDBRANCH   5   3
BRANCH   5   6
ATOM      6  C   UNL     1      -0.414   1.301  24.961  0.00  0.00    +0.059 C 
BRANCH   6   7
ATOM      7  C   UNL     1      -0.477   2.122  25.013  0.00  0.00    -0.020 A 
ATOM      8  C   UNL     1      -0.586   2.482  25.748  0.00  0.00    -0.001 A 
ATOM      9  C   UNL     1      -0.649   3.303  25.800  0.00  0.00    +0.037 A 
ATOM     10  C   UNL     1      -0.603   3.764  25.116  0.00  0.00    +0.139 A 
ATOM     13  C   UNL     1      -0.494   3.404  24.383  0.00  0.00    +0.037 A 
ATOM     14  C   UNL     1      -0.431   2.583  24.331  0.00  0.00    -0.001 A 
BRANCH  10  11
ATOM     11  O   UNL     1      -0.666   4.585  25.168  0.00  0.00    -0.471 OA
ATOM     12  C   UNL     1      -1.409   4.943  25.167  0.00  0.00    +0.252 C 
ENDBRANCH  10  11
ENDBRANCH   6   7
ENDBRANCH   5   6
ENDBRANCH  15   5
ENDBRANCH  18  16
TORSDOF 9
ENDMDL
MODEL 2
REMARK VINA RESULT:     -10.4      1.556      4.374
REMARK  Name = 
REMARK  9 active torsions:
REMARK  status: ('A' for Active; 'I' for Inactive)
REMARK    1  A    between atoms: O_2  and  C_3
REMARK    2  A    between atoms: C_3  and  C_5
REMARK    3  A    between atoms: C_5  and  C_6
REMARK    4  A    between atoms: C_5  and  N_15
REMARK    5  A    between atoms: C_6  and  C_7
REMARK    6  A    between atoms: C_10  and  O_11
REMARK    7  A    between atoms: C_16  and  C_18
REMARK    8  A    between atoms: C_24  and  C_26
REMARK    9  A    between atoms: N_33  and  C_34
REMARK                            x       y       z     vdW  Elec       q    Type
REMARK                         _______ _______ _______ _____ _____    ______ ____
ROOT
ATOM     18  C   UNL     1      -3.148   1.720  24.747  0.00  0.00    +0.174 C 
ATOM     19  C   UNL     1      -3.242   0.904  24.670  0.00  0.00    +0.124 C 
ATOM     20  N   UNL     1      -3.980   0.560  24.807  0.00  0.00    -0.259 N 
ATOM     21  C   UNL     1      -4.622   1.031  25.021  0.00  0.00    +0.117 C 
ATOM     22  C   UNL     1      -4.527   1.848  25.097  0.00  0.00    +0.116 C 
ATOM     23  N   UNL     1      -3.790   2.192  24.960  0.00  0.00    -0.266 N 
ATOM     24  C   UNL     1      -3.695   3.007  25.037  0.00  0.00    +0.255 C 
ATOM     25  O   UNL     1      -2.958   3.352  24.900  0.00  0.00    -0.269 OA
ATOM     31  C   UNL     1      -4.075  -0.255  24.730  0.00  0.00    +0.328 C 
ATOM     32  O   UNL     1      -4.812  -0.600  24.867  0.00  0.00    -0.250 OA
ATOM     33  N   UNL     1      -3.432  -0.727  24.516  0.00  0.00    -0.162 NA
ENDROOT
BRANCH  33  34
ATOM     34  C   UNL     1      -3.528  -1.543  24.440  0.00  0.00    +0.075 A 
ATOM     35  C   UNL     1      -3.191  -2.052  24.996  0.00  0.00    +0.017 A 
ATOM     36  C   UNL     1      -3.286  -2.867  24.920  0.00  0.00    +0.001 A 
ATOM     37  C   UNL     1      -3.719  -3.175  24.288  0.00  0.00    +0.000 A 
ATOM     38  C   UNL     1      -4.055  -2.667  23.733  0.00  0.00    +0.001 A 
ATOM     39  C   UNL     1      -3.960  -1.851  23.808  0.00  0.00    +0.017 A 
ENDBRANCH  33  34
BRANCH  24  26
ATOM     26  C   UNL     1      -4.337   3.480  25.251  0.00  0.00    +0.083 A 
ATOM     27  C   UNL     1      -4.862   3.848  24.731  0.00  0.00    +0.012 A 
ATOM     28  C   UNL     1      -5.416   4.263  25.180  0.00  0.00    +0.008 A 
ATOM     29  C   UNL     1      -5.234   4.151  25.977  0.00  0.00    +0.036 A 
ATOM     30  S   UNL     1      -4.567   3.667  26.021  0.00  0.00    -0.082 S 
ENDBRANCH  24  26
BRANCH  18  16
ATOM     15  N   UNL     1      -1.730   1.727  24.934  0.00  0.00    -0.194 NA
ATOM     16  C   UNL     1      -2.411   2.064  24.610  0.00  0.00    +0.262 C 
ATOM     17  O   UNL     1      -2.352   2.745  24.148  0.00  0.00    -0.271 OA
BRANCH  15   5
ATOM      5  C   UNL     1      -0.993   2.071  24.797  0.00  0.00    +0.198 C 
BRANCH   5   3
ATOM      3  C   UNL     1      -0.583   2.426  25.419  0.00  0.00    +0.337 C 
ATOM      4  O   UNL     1      -0.263   3.180  25.324  0.00  0.00    -0.248 OA
BRANCH   3   2
ATOM      1  C   UNL     1      -0.109   2.393  26.766  0.00  0.00    +0.256 C 
ATOM      2  O   UNL     1      -0.493   2.027  26.135  0.00  0.00    -0.443 OA
ENDBRANCH   3   2
ENDBRANCH   5   3
BRANCH   5   6
ATOM      6  C   UNL     1      -0.668   2.059  24.040  0.00  0.00    +0.059 C 
BRANCH   6   7
ATOM      7  C   UNL     1      -0.148   1.456  23.824  0.00  0.00    -0.020 A 
ATOM      8  C   UNL     1       0.658   1.617  23.737  0.00  0.00    -0.001 A 
ATOM      9  C   UNL     1       1.178   1.014  23.521  0.00  0.00    +0.037 A 
ATOM     10  C   UNL     1       0.893   0.250  23.392  0.00  0.00    +0.139 A 
ATOM     13  C   UNL     1       0.089   0.090  23.479  0.00  0.00    +0.037 A 
ATOM     14  C   UNL     1      -0.431   0.693  23.695  0.00  0.00    -0.001 A 
BRANCH  10  11
ATOM     11  O   UNL     1       1.413  -0.353  23.176  0.00  0.00    -0.471 OA
ATOM     12  C   UNL     1       1.968  -0.225  22.580  0.00  0.00    +0.252 C 
ENDBRANCH  10  11
ENDBRANCH   6   7
ENDBRANCH   5   6
ENDBRANCH  15   5
ENDBRANCH  18  16
TORSDOF 9
ENDMDL
MODEL 3
REMARK VINA RESULT:      -9.2      1.780      4.427
REMARK  Name = 
REMARK  9 active torsions:
REMARK  status: ('A' for Active; 'I' for Inactive)
REMARK    1  A    between atoms: O_2  and  C_3
REMARK    2  A    between atoms: C_3  and  C_5
REMARK    3  A    between atoms: C_5  and  C_6
REMARK    4  A    between atoms: C_5  and  N_15
REMARK    5  A    between atoms: C_6  and  C_7
REMARK    6  A    between atoms: C_10  and  O_11
REMARK    7  A    between atoms: C_16  and  C_18
REMARK    8  A    between atoms: C_24  and  C_26
REMARK    9  A    between atoms: N_33  and  C_34
REMARK                            x       y       z     vdW  Elec       q    Type
REMARK                         _______ _______ _______ _____ _____    ______ ____
ROOT
ATOM     18  C   UNL     1      -0.207   0.683  24.037  0.00  0.00    +0.174 C 
ATOM     19  C   UNL     1      -0.833   0.173  24.201  0.00  0.00    +0.124 C 
ATOM     20  N   UNL     1      -0.780  -0.624  23.994  0.00  0.00    -0.259 N 
ATOM     21  C   UNL     1      -0.101  -0.911  23.623  0.00  0.00    +0.117 C 
ATOM     22  C   UNL     1       0.526  -0.399  23.459  0.00  0.00    +0.116 C 
ATOM     23  N   UNL     1       0.473   0.398  23.666  0.00  0.00    -0.266 N 
ATOM     24  C   UNL     1       1.099   0.908  23.502  0.00  0.00    +0.255 C 
ATOM     25  O   UNL     1       1.047   1.705  23.709  0.00  0.00    -0.269 OA
ATOM     31  C   UNL     1      -1.407  -1.136  24.157  0.00  0.00    +0.328 C 
ATOM     32  O   UNL     1      -1.354  -1.933  23.951  0.00  0.00    -0.250 OA
ATOM     33  N   UNL     1      -2.086  -0.849  24.528  0.00  0.00    -0.162 NA
ENDROOT
BRANCH  33  34
ATOM     34  C   UNL     1      -2.712  -1.361  24.692  0.00  0.00    +0.075 A 
ATOM     35  C   UNL     1      -3.334  -1.436  24.154  0.00  0.00    +0.017 A 
ATOM     36  C   UNL     1      -3.960  -1.948  24.318  0.00  0.00    +0.001 A 
ATOM     37  C   UNL     1      -3.966  -2.383  25.018  0.00  0.00    +0.000 A 
ATOM     38  C   UNL     1      -3.345  -2.307  25.555  0.00  0.00    +0.001 A 
ATOM     39  C   UNL     1      -2.718  -1.796  25.393  0.00  0.00    +0.017 A 
ENDBRANCH  33  34
BRANCH  24  26
ATOM     26  C   UNL     1       1.779   0.622  23.131  0.00  0.00    +0.083 A 
ATOM     27  C   UNL     1       1.805   0.216  22.413  0.00  0.00    +0.012 A 
ATOM     28  C   UNL     1       2.593   0.036  22.251  0.00  0.00    +0.008 A 
ATOM     29  C   UNL     1       3.055   0.330  22.868  0.00  0.00    +0.036 A 
ATOM     30  S   UNL     1       2.552   0.692  23.412  0.00  0.00    -0.082 S 
ENDBRANCH  24  26
BRANCH  18  16
ATOM     15  N   UNL     1      -0.635   1.701  24.945  0.00  0.00    -0.194 NA
ATOM     16  C   UNL     1      -0.259   1.480  24.244  0.00  0.00    +0.262 C 
ATOM     17  O   UNL     1       0.064   2.057  23.750  0.00  0.00    -0.271 OA
BRANCH  15   5
ATOM      5  C   UNL     1      -0.688   2.498  25.152  0.00  0.00    +0.198 C 
BRANCH   5   3
ATOM      3  C   UNL     1      -0.235   2.792  25.775  0.00  0.00    +0.337 C 
ATOM      4  O   UNL     1       0.157   3.513  25.696  0.00  0.00    -0.248 OA
BRANCH   3   2
ATOM      1  C   UNL     1       0.393   2.572  27.040  0.00  0.00    +0.256 C 
ATOM      2  O   UNL     1      -0.174   2.364  26.478  0.00  0.00    -0.443 OA
ENDBRANCH   3   2
ENDBRANCH   5   3
BRANCH   5   6
ATOM      6  C   UNL     1      -1.193   2.999  24.735  0.00  0.00    +0.059 C 
BRANCH   6   7
ATOM      7  C   UNL     1      -1.951   3.152  25.023  0.00  0.00    -0.020 A 
ATOM      8  C   UNL     1      -2.116   3.873  25.389  0.00  0.00    -0.001 A 
ATOM      9  C   UNL     1      -2.874   4.026  25.676  0.00  0.00    +0.037 A 
ATOM     10  C   UNL     1      -3.467   3.458  25.597  0.00  0.00    +0.139 A 
ATOM     13  C   UNL     1      -3.303   2.738  25.231  0.00  0.00    +0.037 A 
ATOM     14  C   UNL     1      -2.545   2.585  24.944  0.00  0.00    -0.001 A 
BRANCH  10  11
ATOM     11  O   UNL     1      -4.225   3.611  25.884  0.00  0.00    -0.471 OA
ATOM     12  C   UNL     1      -4.885   3.431  25.424  0.00  0.00    +0.252 C 
ENDBRANCH  10  11
ENDBRANCH   6   7
ENDBRANCH   5   6
ENDBRANCH  15   5
ENDBRANCH  18  16
TORSDOF 9
ENDMDL
MODEL 4
REMARK VINA RESULT:      -9.1      1.350      1.988
REMARK  Name = 
REMARK  9 active torsions:
REMARK  status: ('A' for Active; 'I' for Inactive)
REMARK    1  A    between atoms: O_2  and  C_3
REMARK    2  A    between atoms: C_3  and  C_5
REMARK    3  A    between atoms: C_5  and  C_6
REMARK    4  A    between atoms: C_5  and  N_15
REMARK    5  A    between atoms: C_6  and  C_7
REMARK    6  A    between atoms: C_10  and  O_11
REMARK    7  A    between atoms: C_16  and  C_18
REMARK    8  A    between atoms: C_24  and  C_26
REMARK    9  A    between atoms: N_33  and  C_34
REMARK                            x       y       z     vdW  Elec       q    Type
REMARK                         _______ _______ _______ _____ _____    ______ ____
ROOT
ATOM     18  C   UNL     1      -2.007   0.646  24.882  0.00  0.00    +0.174 C 
ATOM     19  C   UNL     1      -2.767   0.955  24.969  0.00  0.00    +0.124 C 
ATOM     20  N   UNL     1      -3.412   0.446  25.049  0.00  0.00    -0.259 N 
ATOM     21  C   UNL     1      -3.297  -0.371  25.041  0.00  0.00    +0.117 C 
ATOM     22  C   UNL     1      -2.536  -0.679  24.954  0.00  0.00    +0.116 C 
ATOM     23  N   UNL     1      -1.891  -0.171  24.874  0.00  0.00    -0.266 N 
ATOM     24  C   UNL     1      -1.132  -0.480  24.787  0.00  0.00    +0.255 C 
ATOM     25  O   UNL     1      -0.487   0.028  24.708  0.00  0.00    -0.269 OA
ATOM     31  C   UNL     1      -4.172   0.754  25.136  0.00  0.00    +0.328 C 
ATOM     32  O   UNL     1      -4.817   0.246  25.215  0.00  0.00    -0.250 OA
ATOM     33  N   UNL     1      -4.287   1.572  25.144  0.00  0.00    -0.162 NA
ENDROOT
BRANCH  33  34
ATOM     34  C   UNL     1      -5.047   1.880  25.231  0.00  0.00    +0.075 A 
ATOM     35  C   UNL     1      -5.215   2.391  25.858  0.00  0.00    +0.017 A 
ATOM     36  C   UNL     1      -5.976   2.699  25.945  0.00  0.00    +0.001 A 
ATOM     37  C   UNL     1      -6.567   2.497  25.406  0.00  0.00    +0.000 A 
ATOM     38  C   UNL     1      -6.399   1.987  24.781  0.00  0.00    +0.001 A 
ATOM     39  C   UNL     1      -5.639   1.678  24.693  0.00  0.00    +0.017 A 
ENDBRANCH  33  34
BRANCH  24  26
ATOM     26  C   UNL     1      -1.016  -1.297  24.779  0.00  0.00    +0.083 A 
ATOM     27  C   UNL     1      -1.232  -1.811  24.171  0.00  0.00    +0.012 A 
ATOM     28  C   UNL     1      -1.014  -2.575  24.394  0.00  0.00    +0.008 A 
ATOM     29  C   UNL     1      -0.663  -2.533  25.139  0.00  0.00    +0.036 A 
ATOM     30  S   UNL     1      -0.665  -1.744  25.377  0.00  0.00    -0.082 S 
ENDBRANCH  24  26
BRANCH  18  16
ATOM     15  N   UNL     1      -1.255   1.772  25.340  0.00  0.00    -0.194 NA
ATOM     16  C   UNL     1      -1.362   1.154  24.803  0.00  0.00    +0.262 C 
ATOM     17  O   UNL     1      -0.824   1.046  24.187  0.00  0.00    -0.271 OA
BRANCH  15   5
ATOM      5  C   UNL     1      -0.609   2.280  25.260  0.00  0.00    +0.198 C 
BRANCH   5   3
ATOM      3  C   UNL     1       0.008   2.251  25.807  0.00  0.00    +0.337 C 
ATOM      4  O   UNL     1       0.787   2.184  25.547  0.00  0.00    -0.248 OA
BRANCH   3   2
ATOM      1  C   UNL     1       0.463   2.302  27.161  0.00  0.00    +0.256 C 
ATOM      2  O   UNL     1      -0.155   2.287  26.615  0.00  0.00    -0.443 OA
ENDBRANCH   3   2
ENDBRANCH   5   3
BRANCH   5   6
ATOM      6  C   UNL     1      -0.582   2.817  24.635  0.00  0.00    +0.059 C 
BRANCH   6   7
ATOM      7  C   UNL     1      -0.838   3.593  24.747  0.00  0.00    -0.020 A 
ATOM      8  C   UNL     1      -1.598   3.740  25.035  0.00  0.00    -0.001 A 
ATOM      9  C   UNL     1      -1.854   4.517  25.146  0.00  0.00    +0.037 A 
ATOM     10  C   UNL     1      -1.349   5.146  24.970  0.00  0.00    +0.139 A 
ATOM     13  C   UNL     1      -0.591   4.999  24.683  0.00  0.00    +0.037 A 
ATOM     14  C   UNL     1      -0.335   4.223  24.571  0.00  0.00    -0.001 A 
BRANCH  10  11
ATOM     11  O   UNL     1      -1.605   5.922  25.082  0.00  0.00    -0.471 OA
ATOM     12  C   UNL     1      -2.369   6.070  25.355  0.00  0.00    +0.252 C 
ENDBRANCH  10  11
ENDBRANCH   6   7
ENDBRANCH   5   6
ENDBRANCH  15   5
ENDBRANCH  18  16
TORSDOF 9
ENDMDL
MODEL 5
REMARK VINA RESULT:      -9.0      1.289      3.880
REMARK  Name = 
REMARK  9 active torsions:
REMARK  status: ('A' for Active; 'I' for Inactive)
REMARK    1  A    between atoms: O_2  and  C_3
REMARK    2  A    between atoms: C_3  and  C_5
REMARK    3  A    between atoms: C_5  and  C_6
REMARK    4  A    between atoms: C_5  and  N_15
REMARK    5  A    between atoms: C_6  and  C_7
REMARK    6  A    between atoms: C_10  and  O_11
REMARK    7  A    between atoms: C_16  and  C_18
REMARK    8  A    between atoms: C_24  and  C_26
REMARK    9  A    between atoms: N_33  and  C_34
REMARK                            x       y       z     vdW  Elec       q    Type
REMARK                         _______ _______ _______ _____ _____    ______ ____
ROOT
ATOM     18  C   UNL     1      -3.274   0.260  24.755  0.00  0.00    +0.174 C 
ATOM     19  C   UNL     1      -2.603   0.676  24.994  0.00  0.00    +0.124 C 
ATOM     20  N   UNL     1      -1.908   0.270  25.172  0.00  0.00    -0.259 N 
ATOM     21  C   UNL     1      -1.883  -0.553  25.111  0.00  0.00    +0.117 C 
ATOM     22  C   UNL     1      -2.554  -0.969  24.872  0.00  0.00    +0.116 C 
ATOM     23  N   UNL     1      -3.250  -0.563  24.694  0.00  0.00    -0.266 N 
ATOM     24  C   UNL     1      -3.920  -0.978  24.455  0.00  0.00    +0.255 C 
ATOM     25  O   UNL     1      -4.616  -0.572  24.277  0.00  0.00    -0.269 OA
ATOM     31  C   UNL     1      -1.236   0.685  25.411  0.00  0.00    +0.328 C 
ATOM     32  O   UNL     1      -0.541   0.279  25.589  0.00  0.00    -0.250 OA
ATOM     33  N   UNL     1      -1.261   1.508  25.472  0.00  0.00    -0.162 NA
ENDROOT
BRANCH  33  34
ATOM     34  C   UNL     1      -0.590   1.923  25.712  0.00  0.00    +0.075 A 
ATOM     35  C   UNL     1      -0.469   2.085  26.512  0.00  0.00    +0.017 A 
ATOM     36  C   UNL     1       0.202   2.501  26.751  0.00  0.00    +0.001 A 
ATOM     37  C   UNL     1       0.753   2.754  26.191  0.00  0.00    +0.000 A 
ATOM     38  C   UNL     1       0.632   2.592  25.392  0.00  0.00    +0.001 A 
ATOM     39  C   UNL     1      -0.039   2.177  25.152  0.00  0.00    +0.017 A 
ENDBRANCH  33  34
BRANCH  24  26
ATOM     26  C   UNL     1      -3.896  -1.801  24.394  0.00  0.00    +0.083 A 
ATOM     27  C   UNL     1      -3.722  -2.327  25.005  0.00  0.00    +0.012 A 
ATOM     28  C   UNL     1      -3.760  -3.093  24.700  0.00  0.00    +0.008 A 
ATOM     29  C   UNL     1      -3.959  -3.041  23.901  0.00  0.00    +0.036 A 
ATOM     30  S   UNL     1      -4.042  -2.242  23.712  0.00  0.00    -0.082 S 
ENDBRANCH  24  26
BRANCH  18  16
ATOM     15  N   UNL     1      -4.206   1.304  25.045  0.00  0.00    -0.194 NA
ATOM     16  C   UNL     1      -3.969   0.666  24.577  0.00  0.00    +0.262 C 
ATOM     17  O   UNL     1      -4.428   0.436  23.932  0.00  0.00    -0.271 OA
BRANCH  15   5
ATOM      5  C   UNL     1      -4.902   1.711  24.867  0.00  0.00    +0.198 C 
BRANCH   5   3
ATOM      3  C   UNL     1      -5.605   1.511  25.250  0.00  0.00    +0.337 C 
ATOM      4  O   UNL     1      -6.294   1.395  24.813  0.00  0.00    -0.248 OA
BRANCH   3   2
ATOM      1  C   UNL     1      -6.337   1.413  26.473  0.00  0.00    +0.256 C 
ATOM      2  O   UNL     1      -5.618   1.428  26.070  0.00  0.00    -0.443 OA
ENDBRANCH   3   2
ENDBRANCH   5   3
BRANCH   5   6
ATOM      6  C   UNL     1      -4.894   2.315  24.306  0.00  0.00    +0.059 C 
BRANCH   6   7
ATOM      7  C   UNL     1      -4.422   2.981  24.425  0.00  0.00    -0.020 A 
ATOM      8  C   UNL     1      -3.934   3.256  23.818  0.00  0.00    -0.001 A 
ATOM      9  C   UNL     1      -3.462   3.922  23.937  0.00  0.00    +0.037 A 
ATOM     10  C   UNL     1      -3.478   4.314  24.663  0.00  0.00    +0.139 A 
ATOM     13  C   UNL     1      -3.964   4.040  25.269  0.00  0.00    +0.037 A 
ATOM     14  C   UNL     1      -4.436   3.374  25.150  0.00  0.00    -0.001 A 
BRANCH  10  11
ATOM     11  O   UNL     1      -3.006   4.980  24.782  0.00  0.00    -0.471 OA
ATOM     12  C   UNL     1      -2.366   4.945  25.301  0.00  0.00    +0.252 C 
ENDBRANCH  10  11
ENDBRANCH   6   7
ENDBRANCH   5   6
ENDBRANCH  15   5
ENDBRANCH  18  16
TORSDOF 9
ENDMDL
MODEL 6
REMARK VINA RESULT:      -8.9      1.506      4.159
REMARK  Name = 
REMARK  9 active torsions:
REMARK  status: ('A' for Active; 'I' for Inactive)
REMARK    1  A    between atoms: O_2  and  C_3
REMARK    2  A    between atoms: C_3  and  C_5
REMARK    3  A    between atoms: C_5  and  C_6
REMARK    4  A    between atoms: C_5  and  N_15
REMARK    5  A    between atoms: C_6  and  C_7
REMARK    6  A    between atoms: C_10  and  O_11
REMARK    7  A    between atoms: C_16  and  C_18
REMARK    8  A    between atoms: C_24  and  C_26
REMARK    9  A    between atoms: N_33  and  C_34
REMARK                            x       y       z     vdW  Elec       q    Type
REMARK                         _______ _______ _______ _____ _____    ______ ____
ROOT
ATOM     18  C   UNL     1      -1.707   0.017  24.534  0.00  0.00    +0.174 C 
ATOM     19  C   UNL     1      -0.954   0.120  24.216  0.00  0.00    +0.124 C 
ATOM     20  N   UNL     1      -0.547  -0.525  23.901  0.00  0.00    -0.259 N 
ATOM     21  C   UNL     1      -0.893  -1.274  23.905  0.00  0.00    +0.117 C 
ATOM     22  C   UNL     1      -1.648  -1.377  24.224  0.00  0.00    +0.116 C 
ATOM     23  N   UNL     1      -2.055  -0.732  24.538  0.00  0.00    -0.266 N 
ATOM     24  C   UNL     1      -2.808  -0.835  24.856  0.00  0.00    +0.255 C 
ATOM     25  O   UNL     1      -3.215  -0.190  25.171  0.00  0.00    -0.269 OA
ATOM     31  C   UNL     1       0.207  -0.422  23.583  0.00  0.00    +0.328 C 
ATOM     32  O   UNL     1       0.614  -1.067  23.268  0.00  0.00    -0.250 OA
ATOM     33  N   UNL     1       0.554   0.327  23.579  0.00  0.00    -0.162 NA
ENDROOT
BRANCH  33  34
ATOM     34  C   UNL     1       1.308   0.430  23.261  0.00  0.00    +0.075 A 
ATOM     35  C   UNL     1       1.820   0.991  23.585  0.00  0.00    +0.017 A 
ATOM     36  C   UNL     1       2.574   1.093  23.267  0.00  0.00    +0.001 A 
ATOM     37  C   UNL     1       2.817   0.636  22.624  0.00  0.00    +0.000 A 
ATOM     38  C   UNL     1       2.306   0.076  22.301  0.00  0.00    +0.001 A 
ATOM     39  C   UNL     1       1.551  -0.028  22.618  0.00  0.00    +0.017 A 
ENDBRANCH  33  34
BRANCH  24  26
ATOM     26  C   UNL     1      -3.156  -1.584  24.861  0.00  0.00    +0.083 A 
ATOM     27  C   UNL     1      -3.048  -2.165  25.437  0.00  0.00    +0.012 A 
ATOM     28  C   UNL     1      -3.498  -2.822  25.222  0.00  0.00    +0.008 A 
ATOM     29  C   UNL     1      -3.883  -2.649  24.514  0.00  0.00    +0.036 A 
ATOM     30  S   UNL     1      -3.672  -1.883  24.291  0.00  0.00    -0.082 S 
ENDBRANCH  24  26
BRANCH  18  16
ATOM     15  N   UNL     1      -2.162   1.367  24.423  0.00  0.00    -0.194 NA
ATOM     16  C   UNL     1      -2.114   0.662  24.849  0.00  0.00    +0.262 C 
ATOM     17  O   UNL     1      -2.473   0.602  25.589  0.00  0.00    -0.271 OA
BRANCH  15   5
ATOM      5  C   UNL     1      -2.569   2.012  24.737  0.00  0.00    +0.198 C 
BRANCH   5   3
ATOM      3  C   UNL     1      -3.281   2.256  24.397  0.00  0.00    +0.337 C 
ATOM      4  O   UNL     1      -3.938   2.399  24.873  0.00  0.00    -0.248 OA
BRANCH   3   2
ATOM      1  C   UNL     1      -4.047   2.588  23.238  0.00  0.00    +0.256 C 
ATOM      2  O   UNL     1      -3.334   2.357  23.580  0.00  0.00    -0.443 OA
ENDBRANCH   3   2
ENDBRANCH   5   3
BRANCH   5   6
ATOM      6  C   UNL     1      -2.265   2.413  25.390  0.00  0.00    +0.059 C 
BRANCH   6   7
ATOM      7  C   UNL     1      -1.861   3.124  25.286  0.00  0.00    -0.020 A 
ATOM      8  C   UNL     1      -2.178   3.827  25.582  0.00  0.00    -0.001 A 
ATOM      9  C   UNL     1      -1.774   4.538  25.478  0.00  0.00    +0.037 A 
ATOM     10  C   UNL     1      -1.053   4.548  25.079  0.00  0.00    +0.139 A 
ATOM     13  C   UNL     1      -0.735   3.847  24.783  0.00  0.00    +0.037 A 
ATOM     14  C   UNL     1      -1.139   3.135  24.887  0.00  0.00    -0.001 A 
BRANCH  10  11
ATOM     11  O   UNL     1      -0.648   5.259  24.975  0.00  0.00    -0.471 OA
ATOM     12  C   UNL     1      -1.055   5.933  24.727  0.00  0.00    +0.252 C 
ENDBRANCH  10  11
ENDBRANCH   6   7
ENDBRANCH   5   6
ENDBRANCH  15   5
ENDBRANCH  18  16
TORSDOF 9
ENDMDL
MODEL 7
REMARK VINA RESULT:      -8.8      1.764      4.329
REMARK  Name = 
REMARK  9 active torsions:
REMARK  status: ('A' for Active; 'I' for Inactive)
REMARK    1  A    between atoms: O_2  and  C_3
REMARK    2  A    between atoms: C_3  and  C_5
REMARK    3  A    between atoms: C_5  and  C_6
REMARK    4  A    between atoms: C_5  and  N_15
REMARK    5  A    between atoms: C_6  and  C_7
REMARK    6  A    between atoms: C_10  and  O_11
REMARK    7  A    between atoms: C_16  and  C_18
REMARK    8  A    between atoms: C_24  and  C_26
REMARK    9  A    between atoms: N_33  and  C_34
REMARK                            x       y       z     vdW  Elec       q    Type
REMARK                         _______ _______ _______ _____ _____    ______ ____
ROOT
ATOM     18  C   UNL     1      -2.108   2.336  25.083  0.00  0.00    +0.174 C 
ATOM     19  C   UNL     1      -2.923   2.224  25.138  0.00  0.00    +0.124 C 
ATOM     20  N   UNL     1      -3.436   2.861  25.028  0.00  0.00    -0.259 N 
ATOM     21  C   UNL     1      -3.134   3.610  24.863  0.00  0.00    +0.117 C 
ATOM     22  C   UNL     1      -2.317   3.723  24.808  0.00  0.00    +0.116 C 
ATOM     23  N   UNL     1      -1.805   3.086  24.918  0.00  0.00    -0.266 N 
ATOM     24  C   UNL     1      -0.990   3.198  24.863  0.00  0.00    +0.255 C 
ATOM     25  O   UNL     1      -0.477   2.561  24.973  0.00  0.00    -0.269 OA
ATOM     31  C   UNL     1      -4.251   2.749  25.084  0.00  0.00    +0.328 C 
ATOM     32  O   UNL     1      -4.764   3.386  24.974  0.00  0.00    -0.250 OA
ATOM     33  N   UNL     1      -4.554   1.999  25.249  0.00  0.00    -0.162 NA
ENDROOT
BRANCH  33  34
ATOM     34  C   UNL     1      -5.369   1.887  25.304  0.00  0.00    +0.075 A 
ATOM     35  C   UNL     1      -5.800   1.660  24.637  0.00  0.00    +0.017 A 
ATOM     36  C   UNL     1      -6.616   1.549  24.692  0.00  0.00    +0.001 A 
ATOM     37  C   UNL     1      -7.001   1.663  25.413  0.00  0.00    +0.000 A 
ATOM     38  C   UNL     1      -6.570   1.890  26.078  0.00  0.00    +0.001 A 
ATOM     39  C   UNL     1      -5.754   2.002  26.025  0.00  0.00    +0.017 A 
ENDBRANCH  33  34
BRANCH  24  26
ATOM     26  C   UNL     1      -0.686   3.948  24.698  0.00  0.00    +0.083 A 
ATOM     27  C   UNL     1      -0.712   4.602  25.200  0.00  0.00    +0.012 A 
ATOM     28  C   UNL     1      -0.346   5.233  24.815  0.00  0.00    +0.008 A 
ATOM     29  C   UNL     1      -0.094   4.969  24.075  0.00  0.00    +0.036 A 
ATOM     30  S   UNL     1      -0.305   4.175  24.003  0.00  0.00    -0.082 S 
ENDBRANCH  24  26
BRANCH  18  16
ATOM     15  N   UNL     1      -1.682   1.016  24.737  0.00  0.00    -0.194 NA
ATOM     16  C   UNL     1      -1.596   1.699  25.193  0.00  0.00    +0.262 C 
ATOM     17  O   UNL     1      -0.996   1.744  25.758  0.00  0.00    -0.271 OA
BRANCH  15   5
ATOM      5  C   UNL     1      -1.170   0.379  24.847  0.00  0.00    +0.198 C 
BRANCH   5   3
ATOM      3  C   UNL     1      -0.524   0.278  24.343  0.00  0.00    +0.337 C 
ATOM      4  O   UNL     1       0.224   0.128  24.655  0.00  0.00    -0.248 OA
BRANCH   3   2
ATOM      1  C   UNL     1       0.011   0.197  23.020  0.00  0.00    +0.256 C 
ATOM      2  O   UNL     1      -0.627   0.328  23.526  0.00  0.00    -0.443 OA
ENDBRANCH   3   2
ENDBRANCH   5   3
BRANCH   5   6
ATOM      6  C   UNL     1      -1.303  -0.156  25.460  0.00  0.00    +0.059 C 
BRANCH   6   7
ATOM      7  C   UNL     1      -1.840  -0.774  25.358  0.00  0.00    -0.020 A 
ATOM      8  C   UNL     1      -2.600  -0.716  25.676  0.00  0.00    -0.001 A 
ATOM      9  C   UNL     1      -3.138  -1.334  25.574  0.00  0.00    +0.037 A 
ATOM     10  C   UNL     1      -2.915  -2.009  25.155  0.00  0.00    +0.139 A 
ATOM     13  C   UNL     1      -2.156  -2.067  24.839  0.00  0.00    +0.037 A 
ATOM     14  C   UNL     1      -1.619  -1.449  24.940  0.00  0.00    -0.001 A 
BRANCH  10  11
ATOM     11  O   UNL     1      -3.452  -2.627  25.054  0.00  0.00    -0.471 OA
ATOM     12  C   UNL     1      -3.795  -2.759  24.315  0.00  0.00    +0.252 C 
ENDBRANCH  10  11
ENDBRANCH   6   7
ENDBRANCH   5   6
ENDBRANCH  15   5
ENDBRANCH  18  16
TORSDOF 9
ENDMDL
MODEL 8
REMARK VINA RESULT:      -8.7      1.715      4.256
REMARK  Name = 
REMARK  9 active torsions:
REMARK  status: ('A' for Active; 'I' for Inactive)
REMARK    1  A    between atoms: O_2  and  C_3
REMARK    2  A    between atoms: C_3  and  C_5
REMARK    3  A    between atoms: C_5  and  C_6
REMARK    4  A    between atoms: C_5  and  N_15
REMARK    5  A    between atoms: C_6  and  C_7
REMARK    6  A    between atoms: C_10  and  O_11
REMARK    7  A    between atoms: C_16  and  C_18
REMARK    8  A    between atoms: C_24  and  C_26
REMARK    9  A    between atoms: N_33  and  C_34
REMARK                            x       y       z     vdW  Elec       q    Type
REMARK                         _______ _______ _______ _____ _____    ______ ____
ROOT
ATOM     18  C   UNL     1      -0.467   0.768  23.976  0.00  0.00    +0.174 C 
ATOM     19  C   UNL     1      -0.766   1.473  24.280  0.00  0.00    +0.124 C 
ATOM     20  N   UNL     1      -0.300   2.154  24.278  0.00  0.00    -0.259 N 
ATOM     21  C   UNL     1       0.465   2.129  23.971  0.00  0.00    +0.117 C 
ATOM     22  C   UNL     1       0.765   1.423  23.666  0.00  0.00    +0.116 C 
ATOM     23  N   UNL     1       0.299   0.742  23.669  0.00  0.00    -0.266 N 
ATOM     24  C   UNL     1       0.598   0.036  23.364  0.00  0.00    +0.255 C 
ATOM     25  O   UNL     1       0.132  -0.644  23.367  0.00  0.00    -0.269 OA
ATOM     31  C   UNL     1      -0.599   2.860  24.582  0.00  0.00    +0.328 C 
ATOM     32  O   UNL     1      -0.133   3.540  24.579  0.00  0.00    -0.250 OA
ATOM     33  N   UNL     1      -1.365   2.885  24.889  0.00  0.00    -0.162 NA
ENDROOT
BRANCH  33  34
ATOM     34  C   UNL     1      -1.663   3.591  25.193  0.00  0.00    +0.075 A 
ATOM     35  C   UNL     1      -2.215   3.574  25.808  0.00  0.00    +0.017 A 
ATOM     36  C   UNL     1      -2.513   4.280  26.112  0.00  0.00    +0.001 A 
ATOM     37  C   UNL     1      -2.262   5.002  25.803  0.00  0.00    +0.000 A 
ATOM     38  C   UNL     1      -1.711   5.019  25.190  0.00  0.00    +0.001 A 
ATOM     39  C   UNL     1      -1.412   4.313  24.884  0.00  0.00    +0.017 A 
ENDBRANCH  33  34
BRANCH  24  26
ATOM     26  C   UNL     1       1.364   0.011  23.057  0.00  0.00    +0.083 A 
ATOM     27  C   UNL     1       2.063   0.023  23.496  0.00  0.00    +0.012 A 
ATOM     28  C   UNL     1       2.695  -0.012  22.968  0.00  0.00    +0.008 A 
ATOM     29  C   UNL     1       2.388  -0.046  22.203  0.00  0.00    +0.036 A 
ATOM     30  S   UNL     1       1.566  -0.032  22.258  0.00  0.00    -0.082 S 
ENDBRANCH  24  26
BRANCH  18  16
ATOM     15  N   UNL     1      -1.453  -0.055  24.604  0.00  0.00    -0.194 NA
ATOM     16  C   UNL     1      -0.932   0.087  23.979  0.00  0.00    +0.262 C 
ATOM     17  O   UNL     1      -0.879  -0.453  23.357  0.00  0.00    -0.271 OA
BRANCH  15   5
ATOM      5  C   UNL     1      -1.919  -0.736  24.606  0.00  0.00    +0.198 C 
BRANCH   5   3
ATOM      3  C   UNL     1      -1.671  -1.403  25.023  0.00  0.00    +0.337 C 
ATOM      4  O   UNL     1      -1.349  -1.323  25.778  0.00  0.00    -0.248 OA
BRANCH   3   2
ATOM      1  C   UNL     1      -1.497  -2.820  25.100  0.00  0.00    +0.256 C 
ATOM      2  O   UNL     1      -1.745  -2.152  24.685  0.00  0.00    -0.443 OA
ENDBRANCH   3   2
ENDBRANCH   5   3
BRANCH   5   6
ATOM      6  C   UNL     1      -2.632  -0.749  24.192  0.00  0.00    +0.059 C 
BRANCH   6   7
ATOM      7  C   UNL     1      -3.276  -0.312  24.467  0.00  0.00    -0.020 A 
ATOM      8  C   UNL     1      -3.623   0.260  23.983  0.00  0.00    -0.001 A 
ATOM      9  C   UNL     1      -4.267   0.697  24.257  0.00  0.00    +0.037 A 
ATOM     10  C   UNL     1      -4.564   0.561  25.015  0.00  0.00    +0.139 A 
ATOM     13  C   UNL     1      -4.217  -0.010  25.498  0.00  0.00    +0.037 A 
ATOM     14  C   UNL     1      -3.573  -0.447  25.224  0.00  0.00    -0.001 A 
BRANCH  10  11
ATOM     11  O   UNL     1      -5.208   0.998  25.289  0.00  0.00    -0.471 OA
ATOM     12  C   UNL     1      -5.306   1.782  25.051  0.00  0.00    +0.252 C 
ENDBRANCH  10  11
ENDBRANCH   6   7
ENDBRANCH   5   6
ENDBRANCH  15   5
ENDBRANCH  18  16
TORSDOF 9
ENDMDL
MODEL 9
REMARK VINA RESULT:      -8.6      1.450      3.887
REMARK  Name = 
REMARK  9 active torsions:
REMARK  status: ('A' for Active; 'I' for Inactive)
REMARK    1  A    between atoms: O_2  and  C_3
REMARK    2  A    between atoms: C_3  and  C_5
REMARK    3  A    between atoms: C_5  and  C_6
REMARK    4  A    between atoms: C_5  and  N_15
REMARK    5  A    between atoms: C_6  and  C_7
REMARK    6  A    between atoms: C_10  and  O_11
REMARK    7  A    between atoms: C_16  and  C_18
REMARK    8  A    between atoms: C_24  and  C_26
REMARK    9  A    between atoms: N_33  and  C_34
REMARK                            x       y       z     vdW  Elec       q    Type
REMARK                         _______ _______ _______ _____ _____    ______ ____
ROOT
ATOM     18  C   UNL     1      -1.882   0.745  24.608  0.00  0.00    +0.174 C 
ATOM     19  C   UNL     1      -1.764   1.557  24.690  0.00  0.00    +0.124 C 
ATOM     20  N   UNL     1      -1.030   1.846  24.929  0.00  0.00    -0.259 N 
ATOM     21  C   UNL     1      -0.412   1.322  25.088  0.00  0.00    +0.117 C 
ATOM     22  C   UNL     1      -0.530   0.509  25.006  0.00  0.00    +0.116 C 
ATOM     23  N   UNL     1      -1.265   0.221  24.766  0.00  0.00    -0.266 N 
ATOM     24  C   UNL     1      -1.383  -0.591  24.685  0.00  0.00    +0.255 C 
ATOM     25  O   UNL     1      -2.118  -0.879  24.445  0.00  0.00    -0.269 OA
ATOM     31  C   UNL     1      -0.911   2.658  25.011  0.00  0.00    +0.328 C 
ATOM     32  O   UNL     1      -0.176   2.946  25.251  0.00  0.00    -0.250 OA
ATOM     33  N   UNL     1      -1.529   3.182  24.853  0.00  0.00    -0.162 NA
ENDROOT
BRANCH  33  34
ATOM     34  C   UNL     1      -1.410   3.994  24.934  0.00  0.00    +0.075 A 
ATOM     35  C   UNL     1      -1.929   4.442  25.395  0.00  0.00    +0.017 A 
ATOM     36  C   UNL     1      -1.811   5.255  25.476  0.00  0.00    +0.001 A 
ATOM     37  C   UNL     1      -1.174   5.619  25.099  0.00  0.00    +0.000 A 
ATOM     38  C   UNL     1      -0.657   5.172  24.639  0.00  0.00    +0.001 A 
ATOM     39  C   UNL     1      -0.774   4.359  24.557  0.00  0.00    +0.017 A 
ENDBRANCH  33  34
BRANCH  24  26
ATOM     26  C   UNL     1      -0.766  -1.116  24.843  0.00  0.00    +0.083 A 
ATOM     27  C   UNL     1      -0.660  -1.543  25.542  0.00  0.00    +0.012 A 
ATOM     28  C   UNL     1       0.024  -1.997  25.461  0.00  0.00    +0.008 A 
ATOM     29  C   UNL     1       0.341  -1.852  24.714  0.00  0.00    +0.036 A 
ATOM     30  S   UNL     1      -0.148  -1.308  24.332  0.00  0.00    -0.082 S 
ENDBRANCH  24  26
BRANCH  18  16
ATOM     15  N   UNL     1      -3.273   0.536  24.863  0.00  0.00    -0.194 NA
ATOM     16  C   UNL     1      -2.617   0.457  24.368  0.00  0.00    +0.262 C 
ATOM     17  O   UNL     1      -2.697   0.090  23.634  0.00  0.00    -0.271 OA
BRANCH  15   5
ATOM      5  C   UNL     1      -4.008   0.248  24.624  0.00  0.00    +0.198 C 
BRANCH   5   3
ATOM      3  C   UNL     1      -4.220  -0.532  24.792  0.00  0.00    +0.337 C 
ATOM      4  O   UNL     1      -4.161  -0.819  25.562  0.00  0.00    -0.248 OA
BRANCH   3   2
ATOM      1  C   UNL     1      -4.602  -1.829  24.330  0.00  0.00    +0.256 C 
ATOM      2  O   UNL     1      -4.490  -1.025  24.188  0.00  0.00    -0.443 OA
ENDBRANCH   3   2
ENDBRANCH   5   3
BRANCH   5   6
ATOM      6  C   UNL     1      -4.530   0.739  24.216  0.00  0.00    +0.059 C 
BRANCH   6   7
ATOM      7  C   UNL     1      -4.868   1.388  24.598  0.00  0.00    -0.020 A 
ATOM      8  C   UNL     1      -5.288   1.281  25.301  0.00  0.00    -0.001 A 
ATOM      9  C   UNL     1      -5.626   1.930  25.682  0.00  0.00    +0.037 A 
ATOM     10  C   UNL     1      -5.544   2.686  25.360  0.00  0.00    +0.139 A 
ATOM     13  C   UNL     1      -5.125   2.792  24.658  0.00  0.00    +0.037 A 
ATOM     14  C   UNL     1      -4.787   2.143  24.277  0.00  0.00    -0.001 A 
BRANCH  10  11
ATOM     11  O   UNL     1      -5.882   3.334  25.741  0.00  0.00    -0.471 OA
ATOM     12  C   UNL     1      -5.507   4.069  25.718  0.00  0.00    +0.252 C 
ENDBRANCH  10  11
ENDBRANCH   6   7
ENDBRANCH   5   6
ENDBRANCH  15   5
ENDBRANCH  18  16
TORSDOF 9
ENDMDL
