REMARK  Name = 
REMARK  8 active torsions:
REMARK  status: ('A' for Active; 'I' for Inactive)
REMARK    1  A    between atoms: O_2  and  C_3
REMARK    2  A    between atoms: C_3  and  C_4
REMARK    3  A    between atoms: C_6  and  C_7
REMARK    4  A    between atoms: C_7  and  C_8
REMARK    5  A    between atoms: C_13  and  C_14
REMARK    6  A    between atoms: C_14  and  C_15
REMARK    7  A    between atoms: C_22  and  O_23
REMARK    8  A    between atoms: C_25  and  O_26
REMARK                            x       y       z     vdW  Elec       q    Type
REMARK                         _______ _______ _______ _____ _____    ______ ____
ROOT
ATOM     14  C   UNL     1       0.000  -2.475   0.000  0.00  0.00    +0.085 C 
ENDROOT
BRANCH  14  15
ATOM     15  C   UNL     1       0.000  -1.650   0.000  0.00  0.00    +0.226 C 
ATOM     16  O   UNL     1      -0.715  -1.238   0.000  0.00  0.00    -0.275 OA
ATOM     17  N   UNL     1       0.715  -1.238   0.000  0.00  0.00    -0.275 N 
ATOM     18  C   UNL     1       0.715  -0.412   0.000  0.00  0.00    +0.098 C 
ATOM     19  C   UNL     1       1.429   0.000   0.000  0.00  0.00    +0.048 C 
ATOM     20  C   UNL     1       2.143  -0.412   0.000  0.00  0.00    -0.020 A 
ATOM     21  C   UNL     1       2.858   0.000   0.000  0.00  0.00    +0.036 A 
ATOM     22  C   UNL     1       3.572  -0.412   0.000  0.00  0.00    +0.172 A 
ATOM     25  C   UNL     1       3.572  -1.238   0.000  0.00  0.00    +0.172 A 
ATOM     28  C   UNL     1       2.858  -1.650   0.000  0.00  0.00    +0.037 A 
ATOM     29  C   UNL     1       2.143  -1.238   0.000  0.00  0.00    -0.003 A 
ATOM     30  C   UNL     1       1.429  -1.650   0.000  0.00  0.00    +0.120 C 
BRANCH  22  23
ATOM     23  O   UNL     1       4.287   0.000   0.000  0.00  0.00    -0.468 OA
ATOM     24  C   UNL     1       4.287   0.825   0.000  0.00  0.00    +0.253 C 
ENDBRANCH  22  23
BRANCH  25  26
ATOM     26  O   UNL     1       4.287  -1.650   0.000  0.00  0.00    -0.468 OA
ATOM     27  C   UNL     1       4.287  -2.475   0.000  0.00  0.00    +0.253 C 
ENDBRANCH  25  26
ENDBRANCH  14  15
BRANCH  14  13
ATOM      8  C   UNL     1      -0.715  -3.712   0.000  0.00  0.00    +0.024 C 
ATOM      9  C   UNL     1      -1.429  -4.125   0.000  0.00  0.00    +0.089 C 
ATOM     10  N   UNL     1      -2.143  -3.712   0.000  0.00  0.00    -0.218 NA
ATOM     11  C   UNL     1      -2.143  -2.888   0.000  0.00  0.00    +0.089 C 
ATOM     12  C   UNL     1      -1.429  -2.475   0.000  0.00  0.00    +0.019 C 
ATOM     13  C   UNL     1      -0.715  -2.888   0.000  0.00  0.00    +0.012 C 
BRANCH   8   7
ATOM      7  C   UNL     1       0.000  -4.125   0.000  0.00  0.00    +0.051 C 
BRANCH   7   6
ATOM      4  C   UNL     1      -0.412  -6.220   0.000  0.00  0.00    +0.184 A 
ATOM      5  C   UNL     1      -0.667  -5.435   0.000  0.00  0.00    +0.056 A 
ATOM      6  C   UNL     1       0.000  -4.950   0.000  0.00  0.00    +0.100 A 
ATOM     31  N   UNL     1       0.667  -5.435   0.000  0.00  0.00    -0.082 NA
ATOM     32  O   UNL     1       0.412  -6.220   0.000  0.00  0.00    -0.356 OA
BRANCH   4   3
ATOM      3  C   UNL     1      -0.897  -6.887   0.000  0.00  0.00    +0.209 C 
BRANCH   3   2
ATOM      1  C   UNL     1      -1.047  -8.308   0.000  0.00  0.00    +0.175 C 
ATOM      2  O   UNL     1      -0.562  -7.641   0.000  0.00  0.00    -0.343 OA
ENDBRANCH   3   2
ENDBRANCH   4   3
ENDBRANCH   7   6
ENDBRANCH   8   7
ENDBRANCH  14  13
TORSDOF 8
