MODEL 1
REMARK VINA RESULT:     -10.1      0.000      0.000
REMARK  Name = 
REMARK  7 active torsions:
REMARK  status: ('A' for Active; 'I' for Inactive)
REMARK    1  A    between atoms: O_2  and  C_3
REMARK    2  A    between atoms: C_3  and  C_4
REMARK    3  A    between atoms: C_4  and  N_5
REMARK    4  A    between atoms: N_5  and  C_6
REMARK    5  A    between atoms: C_12  and  N_13
REMARK    6  A    between atoms: N_13  and  C_14
REMARK    7  A    between atoms: C_14  and  C_15
REMARK                            x       y       z     vdW  Elec       q    Type
REMARK                         _______ _______ _______ _____ _____    ______ ____
ROOT
ATOM      6  C   UNL     1      -4.489   1.735  24.756  0.00  0.00    +0.161 C 
ATOM      7  C   UNL     1      -5.123   2.291  25.238  0.00  0.00    +0.254 C 
ATOM      8  O   UNL     1      -5.075   3.166  25.339  0.00  0.00    -0.327 OA
ATOM      9  C   UNL     1      -4.875   2.506  25.114  0.00  0.00    +0.176 C 
ATOM     10  C   UNL     1      -5.051   1.748  25.111  0.00  0.00    +0.166 C 
ATOM     11  O   UNL     1      -5.656   1.712  25.486  0.00  0.00    -0.328 OA
ATOM     12  C   UNL     1      -4.453   1.204  24.653  0.00  0.00    +0.135 C 
ATOM     22  C   UNL     1      -3.919   1.787  24.405  0.00  0.00    +0.191 C 
ATOM     23  O   UNL     1      -3.262   2.131  24.044  0.00  0.00    -0.220 OA
ENDROOT
BRANCH   6   5
ATOM      5  N   UNL     1      -4.250   2.524  24.724  0.00  0.00    -0.209 NA
BRANCH   5   4
ATOM      4  C   UNL     1      -3.740   2.824  25.299  0.00  0.00    +0.121 C 
BRANCH   4   3
ATOM      3  C   UNL     1      -3.305   3.509  25.148  0.00  0.00    +0.161 C 
BRANCH   3   2
ATOM      1  C   UNL     1      -2.259   4.408  25.522  0.00  0.00    +0.174 C 
ATOM      2  O   UNL     1      -2.778   3.795  25.714  0.00  0.00    -0.350 OA
ENDBRANCH   3   2
ENDBRANCH   4   3
ENDBRANCH   5   4
ENDBRANCH   6   5
BRANCH  12  13
ATOM     13  N   UNL     1      -4.453   0.388  24.531  0.00  0.00    -0.209 NA
BRANCH  13  14
ATOM     14  C   UNL     1      -3.912  -0.089  24.931  0.00  0.00    +0.118 C 
BRANCH  14  15
ATOM     15  C   UNL     1      -3.868  -0.895  24.760  0.00  0.00    +0.034 A 
ATOM     16  C   UNL     1      -3.473  -1.404  25.275  0.00  0.00    +0.193 A 
ATOM     17  O   UNL     1      -3.123  -1.108  25.961  0.00  0.00    -0.287 OA
ATOM     18  C   UNL     1      -3.428  -2.211  25.105  0.00  0.00    +0.042 A 
ATOM     19  C   UNL     1      -3.779  -2.506  24.420  0.00  0.00    +0.003 A 
ATOM     20  C   UNL     1      -4.173  -1.997  23.904  0.00  0.00    -0.000 A 
ATOM     21  C   UNL     1      -4.218  -1.192  24.075  0.00  0.00    +0.000 A 
ENDBRANCH  14  15
ENDBRANCH  13  14
ENDBRANCH  12  13
TORSDOF 7
ENDMDL
MODEL 2
REMARK VINA RESULT:      -9.5      0.796      1.464
REMARK  Name = 
REMARK  7 active torsions:
REMARK  status: ('A' for Active; 'I' for Inactive)
REMARK    1  A    between atoms: O_2  and  C_3
REMARK    2  A    between atoms: C_3  and  C_4
REMARK    3  A    between atoms: C_4  and  N_5
REMARK    4  A    between atoms: N_5  and  C_6
REMARK    5  A    between atoms: C_12  and  N_13
REMARK    6  A    between atoms: N_13  and  C_14
REMARK    7  A    between atoms: C_14  and  C_15
REMARK                            x       y       z     vdW  Elec       q    Type
REMARK                         _______ _______ _______ _____ _____    ______ ____
ROOT
ATOM      6  C   UNL     1      -3.641   1.517  24.009  0.00  0.00    +0.161 C 
ATOM      7  C   UNL     1      -3.118   2.109  23.444  0.00  0.00    +0.254 C 
ATOM      8  O   UNL     1      -3.044   2.983  23.534  0.00  0.00    -0.327 OA
ATOM      9  C   UNL     1      -3.269   2.311  23.687  0.00  0.00    +0.176 C 
ATOM     10  C   UNL     1      -3.236   1.561  23.483  0.00  0.00    +0.166 C 
ATOM     11  O   UNL     1      -2.806   1.558  22.915  0.00  0.00    -0.328 OA
ATOM     12  C   UNL     1      -3.732   0.983  24.015  0.00  0.00    +0.135 C 
ATOM     22  C   UNL     1      -4.044   1.538  24.545  0.00  0.00    +0.191 C 
ATOM     23  O   UNL     1      -4.474   1.847  25.178  0.00  0.00    -0.220 OA
ENDROOT
BRANCH   6   5
ATOM      5  N   UNL     1      -3.716   2.295  24.273  0.00  0.00    -0.209 NA
BRANCH   5   4
ATOM      4  C   UNL     1      -3.175   2.600  24.816  0.00  0.00    +0.121 C 
BRANCH   4   3
ATOM      3  C   UNL     1      -3.360   3.279  25.246  0.00  0.00    +0.161 C 
BRANCH   3   2
ATOM      1  C   UNL     1      -3.023   4.237  26.252  0.00  0.00    +0.174 C 
ATOM      2  O   UNL     1      -2.833   3.564  25.813  0.00  0.00    -0.350 OA
ENDBRANCH   3   2
ENDBRANCH   4   3
ENDBRANCH   5   4
ENDBRANCH   6   5
BRANCH  12  13
ATOM     13  N   UNL     1      -3.832   0.164  23.972  0.00  0.00    -0.209 NA
BRANCH  13  14
ATOM     14  C   UNL     1      -3.675  -0.305  24.633  0.00  0.00    +0.118 C 
BRANCH  14  15
ATOM     15  C   UNL     1      -3.710  -1.127  24.572  0.00  0.00    +0.034 A 
ATOM     16  C   UNL     1      -3.345  -1.598  25.142  0.00  0.00    +0.193 A 
ATOM     17  O   UNL     1      -2.946  -1.247  25.773  0.00  0.00    -0.287 OA
ATOM     18  C   UNL     1      -3.380  -2.420  25.082  0.00  0.00    +0.042 A 
ATOM     19  C   UNL     1      -3.779  -2.770  24.451  0.00  0.00    +0.003 A 
ATOM     20  C   UNL     1      -4.144  -2.299  23.880  0.00  0.00    -0.000 A 
ATOM     21  C   UNL     1      -4.109  -1.477  23.941  0.00  0.00    +0.000 A 
ENDBRANCH  14  15
ENDBRANCH  13  14
ENDBRANCH  12  13
TORSDOF 7
ENDMDL
MODEL 3
REMARK VINA RESULT:      -8.9      1.361      4.235
REMARK  Name = 
REMARK  7 active torsions:
REMARK  status: ('A' for Active; 'I' for Inactive)
REMARK    1  A    between atoms: O_2  and  C_3
REMARK    2  A    between atoms: C_3  and  C_4
REMARK    3  A    between atoms: C_4  and  N_5
REMARK    4  A    between atoms: N_5  and  C_6
REMARK    5  A    between atoms: C_12  and  N_13
REMARK    6  A    between atoms: N_13  and  C_14
REMARK    7  A    between atoms: C_14  and  C_15
REMARK                            x       y       z     vdW  Elec       q    Type
REMARK                         _______ _______ _______ _____ _____    ______ ____
ROOT
ATOM      6  C   UNL     1      -3.753  -1.037  24.877  0.00  0.00    +0.161 C 
ATOM      7  C   UNL     1      -3.805  -1.768  24.239  0.00  0.00    +0.254 C 
ATOM      8  O   UNL     1      -3.268  -2.468  24.206  0.00  0.00    -0.327 OA
ATOM      9  C   UNL     1      -3.534  -1.838  24.450  0.00  0.00    +0.176 C 
ATOM     10  C   UNL     1      -4.078  -1.291  24.354  0.00  0.00    +0.166 C 
ATOM     11  O   UNL     1      -4.456  -1.522  23.796  0.00  0.00    -0.328 OA
ATOM     12  C   UNL     1      -4.041  -0.585  24.957  0.00  0.00    +0.135 C 
ATOM     22  C   UNL     1      -3.387  -0.834  25.401  0.00  0.00    +0.191 C 
ATOM     23  O   UNL     1      -2.799  -0.833  25.980  0.00  0.00    -0.220 OA
ENDROOT
BRANCH   6   5
ATOM      5  N   UNL     1      -3.154  -1.583  25.028  0.00  0.00    -0.209 NA
BRANCH   5   4
ATOM      4  C   UNL     1      -2.414  -1.493  24.674  0.00  0.00    +0.121 C 
BRANCH   4   3
ATOM      3  C   UNL     1      -1.749  -1.842  25.014  0.00  0.00    +0.161 C 
BRANCH   3   2
ATOM      1  C   UNL     1      -0.324  -1.902  25.120  0.00  0.00    +0.174 C 
ATOM      2  O   UNL     1      -1.002  -1.707  24.691  0.00  0.00    -0.350 OA
ENDBRANCH   3   2
ENDBRANCH   4   3
ENDBRANCH   5   4
ENDBRANCH   6   5
BRANCH  12  13
ATOM     13  N   UNL     1      -4.515   0.087  25.029  0.00  0.00    -0.209 NA
BRANCH  13  14
ATOM     14  C   UNL     1      -4.208   0.830  24.845  0.00  0.00    +0.118 C 
BRANCH  14  15
ATOM     15  C   UNL     1      -4.653   1.508  24.994  0.00  0.00    +0.034 A 
ATOM     16  C   UNL     1      -4.353   2.251  24.794  0.00  0.00    +0.193 A 
ATOM     17  O   UNL     1      -3.608   2.314  24.446  0.00  0.00    -0.287 OA
ATOM     18  C   UNL     1      -4.798   2.930  24.943  0.00  0.00    +0.042 A 
ATOM     19  C   UNL     1      -5.543   2.865  25.292  0.00  0.00    +0.003 A 
ATOM     20  C   UNL     1      -5.843   2.123  25.492  0.00  0.00    -0.000 A 
ATOM     21  C   UNL     1      -5.398   1.445  25.343  0.00  0.00    +0.000 A 
ENDBRANCH  14  15
ENDBRANCH  13  14
ENDBRANCH  12  13
TORSDOF 7
ENDMDL
MODEL 4
REMARK VINA RESULT:      -8.9      1.115      4.318
REMARK  Name = 
REMARK  7 active torsions:
REMARK  status: ('A' for Active; 'I' for Inactive)
REMARK    1  A    between atoms: O_2  and  C_3
REMARK    2  A    between atoms: C_3  and  C_4
REMARK    3  A    between atoms: C_4  and  N_5
REMARK    4  A    between atoms: N_5  and  C_6
REMARK    5  A    between atoms: C_12  and  N_13
REMARK    6  A    between atoms: N_13  and  C_14
REMARK    7  A    between atoms: C_14  and  C_15
REMARK                            x       y       z     vdW  Elec       q    Type
REMARK                         _______ _______ _______ _____ _____    ______ ____
ROOT
ATOM      6  C   UNL     1      -3.667   1.473  24.744  0.00  0.00    +0.161 C 
ATOM      7  C   UNL     1      -4.633   1.433  24.656  0.00  0.00    +0.254 C 
ATOM      8  O   UNL     1      -5.137   0.719  24.777  0.00  0.00    -0.327 OA
ATOM      9  C   UNL     1      -4.527   1.111  24.744  0.00  0.00    +0.176 C 
ATOM     10  C   UNL     1      -4.223   1.813  24.606  0.00  0.00    +0.166 C 
ATOM     11  O   UNL     1      -4.788   2.217  24.452  0.00  0.00    -0.328 OA
ATOM     12  C   UNL     1      -3.298   1.866  24.687  0.00  0.00    +0.135 C 
ATOM     22  C   UNL     1      -3.145   1.078  24.891  0.00  0.00    +0.191 C 
ATOM     23  O   UNL     1      -2.722   0.400  25.097  0.00  0.00    -0.220 OA
ENDROOT
BRANCH   6   5
ATOM      5  N   UNL     1      -3.931   0.708  24.901  0.00  0.00    -0.209 NA
BRANCH   5   4
ATOM      4  C   UNL     1      -3.979   0.154  24.292  0.00  0.00    +0.121 C 
BRANCH   4   3
ATOM      3  C   UNL     1      -4.037  -0.650  24.467  0.00  0.00    +0.161 C 
BRANCH   3   2
ATOM      1  C   UNL     1      -4.083  -2.010  24.031  0.00  0.00    +0.174 C 
ATOM      2  O   UNL     1      -4.073  -1.204  23.857  0.00  0.00    -0.350 OA
ENDBRANCH   3   2
ENDBRANCH   4   3
ENDBRANCH   5   4
ENDBRANCH   6   5
BRANCH  12  13
ATOM     13  N   UNL     1      -2.785   2.505  24.585  0.00  0.00    -0.209 NA
BRANCH  13  14
ATOM     14  C   UNL     1      -2.538   2.944  25.238  0.00  0.00    +0.118 C 
BRANCH  14  15
ATOM     15  C   UNL     1      -2.001   3.561  25.141  0.00  0.00    +0.034 A 
ATOM     16  C   UNL     1      -2.118   4.276  25.537  0.00  0.00    +0.193 A 
ATOM     17  O   UNL     1      -2.772   4.371  26.030  0.00  0.00    -0.287 OA
ATOM     18  C   UNL     1      -1.581   4.895  25.440  0.00  0.00    +0.042 A 
ATOM     19  C   UNL     1      -0.927   4.798  24.946  0.00  0.00    +0.003 A 
ATOM     20  C   UNL     1      -0.810   4.084  24.550  0.00  0.00    -0.000 A 
ATOM     21  C   UNL     1      -1.347   3.466  24.648  0.00  0.00    +0.000 A 
ENDBRANCH  14  15
ENDBRANCH  13  14
ENDBRANCH  12  13
TORSDOF 7
ENDMDL
MODEL 5
REMARK VINA RESULT:      -8.7      2.312      2.976
REMARK  Name = 
REMARK  7 active torsions:
REMARK  status: ('A' for Active; 'I' for Inactive)
REMARK    1  A    between atoms: O_2  and  C_3
REMARK    2  A    between atoms: C_3  and  C_4
REMARK    3  A    between atoms: C_4  and  N_5
REMARK    4  A    between atoms: N_5  and  C_6
REMARK    5  A    between atoms: C_12  and  N_13
REMARK    6  A    between atoms: N_13  and  C_14
REMARK    7  A    between atoms: C_14  and  C_15
REMARK                            x       y       z     vdW  Elec       q    Type
REMARK                         _______ _______ _______ _____ _____    ______ ____
ROOT
ATOM      6  C   UNL     1      -1.289   1.001  24.514  0.00  0.00    +0.161 C 
ATOM      7  C   UNL     1      -0.370   1.105  24.217  0.00  0.00    +0.254 C 
ATOM      8  O   UNL     1       0.187   1.744  24.464  0.00  0.00    -0.327 OA
ATOM      9  C   UNL     1      -0.434   1.369  24.439  0.00  0.00    +0.176 C 
ATOM     10  C   UNL     1      -0.802   0.755  24.133  0.00  0.00    +0.166 C 
ATOM     11  O   UNL     1      -0.312   0.456  23.712  0.00  0.00    -0.328 OA
ATOM     12  C   UNL     1      -1.682   0.643  24.409  0.00  0.00    +0.135 C 
ATOM     22  C   UNL     1      -1.738   1.296  24.916  0.00  0.00    +0.191 C 
ATOM     23  O   UNL     1      -2.062   1.836  25.449  0.00  0.00    -0.220 OA
ENDROOT
BRANCH   6   5
ATOM      5  N   UNL     1      -0.953   1.665  24.870  0.00  0.00    -0.209 NA
BRANCH   5   4
ATOM      4  C   UNL     1      -1.032   2.407  24.518  0.00  0.00    +0.121 C 
BRANCH   4   3
ATOM      3  C   UNL     1      -0.909   3.091  24.963  0.00  0.00    +0.161 C 
BRANCH   3   2
ATOM      1  C   UNL     1      -0.934   4.516  25.073  0.00  0.00    +0.174 C 
ATOM      2  O   UNL     1      -1.022   3.832  24.619  0.00  0.00    -0.350 OA
ENDBRANCH   3   2
ENDBRANCH   4   3
ENDBRANCH   5   4
ENDBRANCH   6   5
BRANCH  12  13
ATOM     13  N   UNL     1      -2.239   0.068  24.209  0.00  0.00    -0.209 NA
BRANCH  13  14
ATOM     14  C   UNL     1      -2.385  -0.561  24.723  0.00  0.00    +0.118 C 
BRANCH  14  15
ATOM     15  C   UNL     1      -2.951  -1.128  24.530  0.00  0.00    +0.034 A 
ATOM     16  C   UNL     1      -2.823  -1.921  24.722  0.00  0.00    +0.193 A 
ATOM     17  O   UNL     1      -2.129  -2.145  25.106  0.00  0.00    -0.287 OA
ATOM     18  C   UNL     1      -3.390  -2.489  24.529  0.00  0.00    +0.042 A 
ATOM     19  C   UNL     1      -4.084  -2.263  24.145  0.00  0.00    +0.003 A 
ATOM     20  C   UNL     1      -4.212  -1.471  23.953  0.00  0.00    -0.000 A 
ATOM     21  C   UNL     1      -3.646  -0.904  24.146  0.00  0.00    +0.000 A 
ENDBRANCH  14  15
ENDBRANCH  13  14
ENDBRANCH  12  13
TORSDOF 7
ENDMDL
