MODEL 1
REMARK VINA RESULT:     -12.5      0.000      0.000
REMARK  Name = 
REMARK  4 active torsions:
REMARK  status: ('A' for Active; 'I' for Inactive)
REMARK    1  A    between atoms: C_2  and  C_4
REMARK    2  A    between atoms: C_11  and  C_13
REMARK    3  A    between atoms: N_16  and  C_17
REMARK    4  A    between atoms: C_17  and  C_18
REMARK                            x       y       z     vdW  Elec       q    Type
REMARK                         _______ _______ _______ _____ _____    ______ ____
ROOT
ATOM     13  C   UNL     1      -3.060   1.591  24.345  0.00  0.00    +0.076 C 
ATOM     14  C   UNL     1      -3.151   1.315  23.573  0.00  0.00    +0.026 C 
ATOM     15  C   UNL     1      -3.645   0.654  23.595  0.00  0.00    +0.073 C 
ATOM     16  N   UNL     1      -3.860   0.522  24.381  0.00  0.00    -0.269 NA
ATOM     25  C   UNL     1      -3.498   1.101  24.845  0.00  0.00    +0.080 C 
ENDROOT
BRANCH  13  11
ATOM      4  C   UNL     1      -0.881   3.313  25.272  0.00  0.00    +0.076 A 
ATOM      5  C   UNL     1      -0.815   4.125  25.405  0.00  0.00    +0.006 A 
ATOM      6  C   UNL     1      -1.461   4.620  25.269  0.00  0.00    +0.002 A 
ATOM      7  C   UNL     1      -2.173   4.303  25.000  0.00  0.00    +0.021 A 
ATOM      8  C   UNL     1      -2.240   3.491  24.867  0.00  0.00    +0.100 A 
ATOM      9  C   UNL     1      -1.594   2.997  25.003  0.00  0.00    +0.105 A 
ATOM     10  N   UNL     1      -1.822   2.225  24.824  0.00  0.00    -0.229 NA
ATOM     11  C   UNL     1      -2.610   2.242  24.577  0.00  0.00    +0.140 A 
ATOM     12  N   UNL     1      -2.867   3.025  24.604  0.00  0.00    -0.229 NA
BRANCH   4   2
ATOM      1  N   UNL     1      -0.065   2.564  26.174  0.00  0.00    -0.084 NA
ATOM      2  C   UNL     1      -0.236   2.819  25.408  0.00  0.00    +0.286 C 
ATOM      3  O   UNL     1       0.241   2.579  24.778  0.00  0.00    -0.267 OA
ENDBRANCH   4   2
ENDBRANCH  13  11
BRANCH  16  17
ATOM     17  C   UNL     1      -4.350  -0.082  24.655  0.00  0.00    +0.099 C 
BRANCH  17  18
ATOM     18  C   UNL     1      -4.042  -0.835  24.785  0.00  0.00    -0.005 A 
ATOM     19  C   UNL     1      -3.628  -0.998  25.480  0.00  0.00    -0.003 A 
ATOM     20  C   UNL     1      -3.320  -1.752  25.610  0.00  0.00    +0.001 A 
ATOM     21  C   UNL     1      -3.426  -2.344  25.045  0.00  0.00    +0.011 A 
ATOM     22  C   UNL     1      -3.840  -2.182  24.351  0.00  0.00    +0.057 A 
ATOM     23 CL   UNL     1      -3.946  -2.774  23.786  0.00  0.00    -0.082 Cl
ATOM     24  C   UNL     1      -4.148  -1.428  24.221  0.00  0.00    +0.008 A 
ENDBRANCH  17  18
ENDBRANCH  16  17
TORSDOF 4
ENDMDL
MODEL 2
REMARK VINA RESULT:     -12.4      2.226      4.833
REMARK  Name = 
REMARK  4 active torsions:
REMARK  status: ('A' for Active; 'I' for Inactive)
REMARK    1  A    between atoms: C_2  and  C_4
REMARK    2  A    between atoms: C_11  and  C_13
REMARK    3  A    between atoms: N_16  and  C_17
REMARK    4  A    between atoms: C_17  and  C_18
REMARK                            x       y       z     vdW  Elec       q    Type
REMARK                         _______ _______ _______ _____ _____    ______ ____
ROOT
ATOM     13  C   UNL     1      -4.217   0.920  24.625  0.00  0.00    +0.076 C 
ATOM     14  C   UNL     1      -4.898   1.210  24.987  0.00  0.00    +0.026 C 
ATOM     15  C   UNL     1      -4.880   2.034  24.941  0.00  0.00    +0.073 C 
ATOM     16  N   UNL     1      -4.187   2.253  24.551  0.00  0.00    -0.269 NA
ATOM     25  C   UNL     1      -3.777   1.564  24.355  0.00  0.00    +0.080 C 
ENDROOT
BRANCH  13  11
ATOM      4  C   UNL     1      -2.775  -1.628  24.690  0.00  0.00    +0.076 A 
ATOM      5  C   UNL     1      -2.966  -2.395  24.455  0.00  0.00    +0.006 A 
ATOM      6  C   UNL     1      -3.704  -2.554  24.122  0.00  0.00    +0.002 A 
ATOM      7  C   UNL     1      -4.251  -1.945  24.023  0.00  0.00    +0.021 A 
ATOM      8  C   UNL     1      -4.061  -1.177  24.258  0.00  0.00    +0.100 A 
ATOM      9  C   UNL     1      -3.323  -1.019  24.592  0.00  0.00    +0.105 A 
ATOM     10  N   UNL     1      -3.291  -0.214  24.770  0.00  0.00    -0.229 NA
ATOM     11  C   UNL     1      -4.010   0.125  24.546  0.00  0.00    +0.140 A 
ATOM     12  N   UNL     1      -4.485  -0.471  24.230  0.00  0.00    -0.229 NA
BRANCH   4   2
ATOM      1  N   UNL     1      -1.372  -1.406  24.540  0.00  0.00    -0.084 NA
ATOM      2  C   UNL     1      -2.038  -1.470  25.023  0.00  0.00    +0.286 C 
ATOM      3  O   UNL     1      -1.966  -1.375  25.840  0.00  0.00    -0.267 OA
ENDBRANCH   4   2
ENDBRANCH  13  11
BRANCH  16  17
ATOM     17  C   UNL     1      -3.947   3.024  24.385  0.00  0.00    +0.099 C 
BRANCH  17  18
ATOM     18  C   UNL     1      -3.444   3.420  24.905  0.00  0.00    -0.005 A 
ATOM     19  C   UNL     1      -3.743   3.742  25.603  0.00  0.00    -0.003 A 
ATOM     20  C   UNL     1      -3.239   4.139  26.123  0.00  0.00    +0.001 A 
ATOM     21  C   UNL     1      -2.437   4.213  25.944  0.00  0.00    +0.011 A 
ATOM     22  C   UNL     1      -2.139   3.891  25.246  0.00  0.00    +0.057 A 
ATOM     23 CL   UNL     1      -1.336   3.966  25.068  0.00  0.00    -0.082 Cl
ATOM     24  C   UNL     1      -2.642   3.495  24.727  0.00  0.00    +0.008 A 
ENDBRANCH  17  18
ENDBRANCH  16  17
TORSDOF 4
ENDMDL
MODEL 3
REMARK VINA RESULT:     -12.0      2.324      5.231
REMARK  Name = 
REMARK  4 active torsions:
REMARK  status: ('A' for Active; 'I' for Inactive)
REMARK    1  A    between atoms: C_2  and  C_4
REMARK    2  A    between atoms: C_11  and  C_13
REMARK    3  A    between atoms: N_16  and  C_17
REMARK    4  A    between atoms: C_17  and  C_18
REMARK                            x       y       z     vdW  Elec       q    Type
REMARK                         _______ _______ _______ _____ _____    ______ ____
ROOT
ATOM     13  C   UNL     1      -1.029   0.739  24.853  0.00  0.00    +0.076 C 
ATOM     14  C   UNL     1      -0.509   1.041  24.289  0.00  0.00    +0.026 C 
ATOM     15  C   UNL     1      -0.239   1.774  24.557  0.00  0.00    +0.073 C 
ATOM     16  N   UNL     1      -0.594   1.925  25.287  0.00  0.00    -0.269 NA
ATOM     25  C   UNL     1      -1.082   1.285  25.470  0.00  0.00    +0.080 C 
ENDROOT
BRANCH  13  11
ATOM      4  C   UNL     1      -3.106  -1.324  24.781  0.00  0.00    +0.076 A 
ATOM      5  C   UNL     1      -3.089  -2.145  24.704  0.00  0.00    +0.006 A 
ATOM      6  C   UNL     1      -2.368  -2.538  24.625  0.00  0.00    +0.002 A 
ATOM      7  C   UNL     1      -1.664  -2.110  24.624  0.00  0.00    +0.021 A 
ATOM      8  C   UNL     1      -1.679  -1.288  24.701  0.00  0.00    +0.100 A 
ATOM      9  C   UNL     1      -2.400  -0.895  24.780  0.00  0.00    +0.105 A 
ATOM     10  N   UNL     1      -2.245  -0.088  24.847  0.00  0.00    -0.229 NA
ATOM     11  C   UNL     1      -1.427   0.017  24.809  0.00  0.00    +0.140 A 
ATOM     12  N   UNL     1      -1.078  -0.724  24.719  0.00  0.00    -0.229 NA
BRANCH   4   2
ATOM      1  N   UNL     1      -4.291  -0.783  24.194  0.00  0.00    -0.084 NA
ATOM      2  C   UNL     1      -3.826  -0.931  24.860  0.00  0.00    +0.286 C 
ATOM      3  O   UNL     1      -4.083  -0.686  25.605  0.00  0.00    -0.267 OA
ENDBRANCH   4   2
ENDBRANCH  13  11
BRANCH  16  17
ATOM     17  C   UNL     1      -0.480   2.596  25.751  0.00  0.00    +0.099 C 
BRANCH  17  18
ATOM     18  C   UNL     1      -0.901   3.287  25.588  0.00  0.00    -0.005 A 
ATOM     19  C   UNL     1      -0.574   3.862  25.096  0.00  0.00    -0.003 A 
ATOM     20  C   UNL     1      -0.995   4.554  24.933  0.00  0.00    +0.001 A 
ATOM     21  C   UNL     1      -1.742   4.668  25.262  0.00  0.00    +0.011 A 
ATOM     22  C   UNL     1      -2.069   4.093  25.754  0.00  0.00    +0.057 A 
ATOM     23 CL   UNL     1      -2.817   4.208  26.084  0.00  0.00    -0.082 Cl
ATOM     24  C   UNL     1      -1.649   3.402  25.918  0.00  0.00    +0.008 A 
ENDBRANCH  17  18
ENDBRANCH  16  17
TORSDOF 4
ENDMDL
MODEL 4
REMARK VINA RESULT:     -11.8      2.151      2.898
REMARK  Name = 
REMARK  4 active torsions:
REMARK  status: ('A' for Active; 'I' for Inactive)
REMARK    1  A    between atoms: C_2  and  C_4
REMARK    2  A    between atoms: C_11  and  C_13
REMARK    3  A    between atoms: N_16  and  C_17
REMARK    4  A    between atoms: C_17  and  C_18
REMARK                            x       y       z     vdW  Elec       q    Type
REMARK                         _______ _______ _______ _____ _____    ______ ____
ROOT
ATOM     13  C   UNL     1      -4.346   0.226  24.848  0.00  0.00    +0.076 C 
ATOM     14  C   UNL     1      -4.544  -0.225  24.187  0.00  0.00    +0.026 C 
ATOM     15  C   UNL     1      -4.239  -0.984  24.295  0.00  0.00    +0.073 C 
ATOM     16  N   UNL     1      -3.854  -1.003  25.024  0.00  0.00    -0.269 NA
ATOM     25  C   UNL     1      -3.919  -0.255  25.367  0.00  0.00    +0.080 C 
ENDROOT
BRANCH  13  11
ATOM      4  C   UNL     1      -4.349   3.154  24.826  0.00  0.00    +0.076 A 
ATOM      5  C   UNL     1      -4.847   3.724  25.153  0.00  0.00    +0.006 A 
ATOM      6  C   UNL     1      -5.505   3.494  25.594  0.00  0.00    +0.002 A 
ATOM      7  C   UNL     1      -5.666   2.694  25.707  0.00  0.00    +0.021 A 
ATOM      8  C   UNL     1      -5.169   2.122  25.381  0.00  0.00    +0.100 A 
ATOM      9  C   UNL     1      -4.510   2.352  24.940  0.00  0.00    +0.105 A 
ATOM     10  N   UNL     1      -4.122   1.670  24.687  0.00  0.00    -0.229 NA
ATOM     11  C   UNL     1      -4.541   1.018  24.971  0.00  0.00    +0.140 A 
ATOM     12  N   UNL     1      -5.187   1.298  25.400  0.00  0.00    -0.229 NA
BRANCH   4   2
ATOM      1  N   UNL     1      -2.989   3.586  24.767  0.00  0.00    -0.084 NA
ATOM      2  C   UNL     1      -3.692   3.384  24.385  0.00  0.00    +0.286 C 
ATOM      3  O   UNL     1      -3.736   3.411  23.561  0.00  0.00    -0.267 OA
ENDBRANCH   4   2
ENDBRANCH  13  11
BRANCH  16  17
ATOM     17  C   UNL     1      -3.470  -1.654  25.353  0.00  0.00    +0.099 C 
BRANCH  17  18
ATOM     18  C   UNL     1      -2.731  -1.885  25.069  0.00  0.00    -0.005 A 
ATOM     19  C   UNL     1      -2.674  -2.491  24.512  0.00  0.00    -0.003 A 
ATOM     20  C   UNL     1      -1.935  -2.722  24.227  0.00  0.00    +0.001 A 
ATOM     21  C   UNL     1      -1.253  -2.347  24.499  0.00  0.00    +0.011 A 
ATOM     22  C   UNL     1      -1.310  -1.741  25.056  0.00  0.00    +0.057 A 
ATOM     23 CL   UNL     1      -0.626  -1.366  25.328  0.00  0.00    -0.082 Cl
ATOM     24  C   UNL     1      -2.048  -1.510  25.341  0.00  0.00    +0.008 A 
ENDBRANCH  17  18
ENDBRANCH  16  17
TORSDOF 4
ENDMDL
MODEL 5
REMARK VINA RESULT:     -11.8      1.595      2.061
REMARK  Name = 
REMARK  4 active torsions:
REMARK  status: ('A' for Active; 'I' for Inactive)
REMARK    1  A    between atoms: C_2  and  C_4
REMARK    2  A    between atoms: C_11  and  C_13
REMARK    3  A    between atoms: N_16  and  C_17
REMARK    4  A    between atoms: C_17  and  C_18
REMARK                            x       y       z     vdW  Elec       q    Type
REMARK                         _______ _______ _______ _____ _____    ______ ____
ROOT
ATOM     13  C   UNL     1      -1.154   1.317  24.857  0.00  0.00    +0.076 C 
ATOM     14  C   UNL     1      -0.852   0.903  24.211  0.00  0.00    +0.026 C 
ATOM     15  C   UNL     1      -0.896   0.096  24.381  0.00  0.00    +0.073 C 
ATOM     16  N   UNL     1      -1.226   0.012  25.133  0.00  0.00    -0.269 NA
ATOM     25  C   UNL     1      -1.385   0.767  25.427  0.00  0.00    +0.080 C 
ENDROOT
BRANCH  13  11
ATOM      4  C   UNL     1      -2.165   4.037  25.247  0.00  0.00    +0.076 A 
ATOM      5  C   UNL     1      -1.815   4.783  25.219  0.00  0.00    +0.006 A 
ATOM      6  C   UNL     1      -1.010   4.856  25.051  0.00  0.00    +0.002 A 
ATOM      7  C   UNL     1      -0.556   4.182  24.910  0.00  0.00    +0.021 A 
ATOM      8  C   UNL     1      -0.905   3.435  24.938  0.00  0.00    +0.100 A 
ATOM      9  C   UNL     1      -1.710   3.363  25.106  0.00  0.00    +0.105 A 
ATOM     10  N   UNL     1      -1.901   2.561  25.096  0.00  0.00    -0.229 NA
ATOM     11  C   UNL     1      -1.214   2.137  24.922  0.00  0.00    +0.140 A 
ATOM     12  N   UNL     1      -0.599   2.678  24.824  0.00  0.00    -0.229 NA
BRANCH   4   2
ATOM      1  N   UNL     1      -3.229   3.974  26.197  0.00  0.00    -0.084 NA
ATOM      2  C   UNL     1      -2.968   3.965  25.415  0.00  0.00    +0.286 C 
ATOM      3  O   UNL     1      -3.513   3.882  24.800  0.00  0.00    -0.267 OA
ENDBRANCH   4   2
ENDBRANCH  13  11
BRANCH  16  17
ATOM     17  C   UNL     1      -1.371  -0.700  25.522  0.00  0.00    +0.099 C 
BRANCH  17  18
ATOM     18  C   UNL     1      -2.094  -1.084  25.424  0.00  0.00    -0.005 A 
ATOM     19  C   UNL     1      -2.746  -0.857  25.874  0.00  0.00    -0.003 A 
ATOM     20  C   UNL     1      -3.470  -1.241  25.776  0.00  0.00    +0.001 A 
ATOM     21  C   UNL     1      -3.540  -1.853  25.228  0.00  0.00    +0.011 A 
ATOM     22  C   UNL     1      -2.888  -2.081  24.777  0.00  0.00    +0.057 A 
ATOM     23 CL   UNL     1      -2.959  -2.693  24.229  0.00  0.00    -0.082 Cl
ATOM     24  C   UNL     1      -2.165  -1.697  24.875  0.00  0.00    +0.008 A 
ENDBRANCH  17  18
ENDBRANCH  16  17
TORSDOF 4
ENDMDL
