MODEL 1
REMARK VINA RESULT:      -9.2      0.000      0.000
REMARK  Name = 
REMARK  6 active torsions:
REMARK  status: ('A' for Active; 'I' for Inactive)
REMARK    1  A    between atoms: C_2  and  C_3
REMARK    2  A    between atoms: C_5  and  C_6
REMARK    3  A    between atoms: C_6  and  C_7
REMARK    4  A    between atoms: C_7  and  N_11
REMARK    5  A    between atoms: N_11  and  C_12
REMARK    6  A    between atoms: C_12  and  C_13
REMARK                            x       y       z     vdW  Elec       q    Type
REMARK                         _______ _______ _______ _____ _____    ______ ____
ROOT
ATOM      7  C   UNL     1      -4.212   1.396  24.560  0.00  0.00    +0.119 C 
ATOM      8  C   UNL     1      -4.820   1.235  25.096  0.00  0.00    +0.161 C 
ATOM      9  O   UNL     1      -5.125   1.992  24.975  0.00  0.00    -0.351 OA
ATOM     10  C   UNL     1      -4.518   2.152  24.441  0.00  0.00    +0.161 C 
ENDROOT
BRANCH   7   6
ATOM      6  C   UNL     1      -3.605   1.556  24.026  0.00  0.00    +0.070 C 
BRANCH   6   5
ATOM      3  C   UNL     1      -1.724   2.528  24.301  0.00  0.00    +0.187 A 
ATOM      4  C   UNL     1      -2.231   2.051  23.857  0.00  0.00    +0.056 A 
ATOM      5  C   UNL     1      -2.943   1.983  24.269  0.00  0.00    +0.102 A 
ATOM     19  N   UNL     1      -2.877   2.418  24.966  0.00  0.00    -0.082 NA
ATOM     20  O   UNL     1      -2.124   2.755  24.986  0.00  0.00    -0.355 OA
BRANCH   3   2
ATOM      1  O   UNL     1      -0.535   3.275  24.563  0.00  0.00    -0.212 OA
ATOM      2  C   UNL     1      -0.955   2.740  24.095  0.00  0.00    +0.249 C 
ENDBRANCH   3   2
ENDBRANCH   6   5
ENDBRANCH   7   6
BRANCH   7  11
ATOM     11  N   UNL     1      -3.907   0.638  24.681  0.00  0.00    -0.215 NA
BRANCH  11  12
ATOM     12  C   UNL     1      -4.412  -0.014  24.680  0.00  0.00    +0.089 C 
BRANCH  12  13
ATOM     13  C   UNL     1      -4.099  -0.777  24.707  0.00  0.00    +0.017 C 
ATOM     14  C   UNL     1      -4.180  -1.278  24.056  0.00  0.00    +0.001 C 
ATOM     15  C   UNL     1      -3.868  -2.042  24.082  0.00  0.00    +0.000 C 
ATOM     16  C   UNL     1      -3.474  -2.303  24.758  0.00  0.00    +0.000 C 
ATOM     17  C   UNL     1      -3.393  -1.802  25.409  0.00  0.00    +0.000 C 
ATOM     18  C   UNL     1      -3.706  -1.039  25.382  0.00  0.00    +0.001 C 
ENDBRANCH  12  13
ENDBRANCH  11  12
ENDBRANCH   7  11
TORSDOF 6
ENDMDL
MODEL 2
REMARK VINA RESULT:      -9.2      1.176      1.277
REMARK  Name = 
REMARK  6 active torsions:
REMARK  status: ('A' for Active; 'I' for Inactive)
REMARK    1  A    between atoms: C_2  and  C_3
REMARK    2  A    between atoms: C_5  and  C_6
REMARK    3  A    between atoms: C_6  and  C_7
REMARK    4  A    between atoms: C_7  and  N_11
REMARK    5  A    between atoms: N_11  and  C_12
REMARK    6  A    between atoms: C_12  and  C_13
REMARK                            x       y       z     vdW  Elec       q    Type
REMARK                         _______ _______ _______ _____ _____    ______ ____
ROOT
ATOM      7  C   UNL     1      -4.739   2.129  24.993  0.00  0.00    +0.119 C 
ATOM      8  C   UNL     1      -5.385   1.789  25.377  0.00  0.00    +0.161 C 
ATOM      9  O   UNL     1      -5.794   2.503  25.321  0.00  0.00    -0.351 OA
ATOM     10  C   UNL     1      -5.148   2.843  24.937  0.00  0.00    +0.161 C 
ENDROOT
BRANCH   7   6
ATOM      6  C   UNL     1      -4.093   2.469  24.609  0.00  0.00    +0.070 C 
BRANCH   6   5
ATOM      3  C   UNL     1      -2.529   3.710  25.364  0.00  0.00    +0.187 A 
ATOM      4  C   UNL     1      -2.823   3.186  24.800  0.00  0.00    +0.056 A 
ATOM      5  C   UNL     1      -3.592   2.982  25.018  0.00  0.00    +0.102 A 
ATOM     19  N   UNL     1      -3.774   3.380  25.717  0.00  0.00    -0.082 NA
ATOM     20  O   UNL     1      -3.117   3.831  25.931  0.00  0.00    -0.355 OA
BRANCH   3   2
ATOM      1  O   UNL     1      -1.702   4.875  25.343  0.00  0.00    -0.212 OA
ATOM      2  C   UNL     1      -1.780   4.055  25.362  0.00  0.00    +0.249 C 
ENDBRANCH   3   2
ENDBRANCH   6   5
ENDBRANCH   7   6
BRANCH   7  11
ATOM     11  N   UNL     1      -4.330   1.414  25.049  0.00  0.00    -0.215 NA
BRANCH  11  12
ATOM     12  C   UNL     1      -4.717   0.705  24.884  0.00  0.00    +0.089 C 
BRANCH  12  13
ATOM     13  C   UNL     1      -4.289  -0.000  24.856  0.00  0.00    +0.017 C 
ATOM     14  C   UNL     1      -4.172  -0.382  24.133  0.00  0.00    +0.001 C 
ATOM     15  C   UNL     1      -3.745  -1.087  24.103  0.00  0.00    +0.000 C 
ATOM     16  C   UNL     1      -3.434  -1.410  24.796  0.00  0.00    +0.000 C 
ATOM     17  C   UNL     1      -3.551  -1.029  25.519  0.00  0.00    +0.000 C 
ATOM     18  C   UNL     1      -3.979  -0.324  25.547  0.00  0.00    +0.001 C 
ENDBRANCH  12  13
ENDBRANCH  11  12
ENDBRANCH   7  11
TORSDOF 6
ENDMDL
MODEL 3
REMARK VINA RESULT:      -8.9      1.133      2.341
REMARK  Name = 
REMARK  6 active torsions:
REMARK  status: ('A' for Active; 'I' for Inactive)
REMARK    1  A    between atoms: C_2  and  C_3
REMARK    2  A    between atoms: C_5  and  C_6
REMARK    3  A    between atoms: C_6  and  C_7
REMARK    4  A    between atoms: C_7  and  N_11
REMARK    5  A    between atoms: N_11  and  C_12
REMARK    6  A    between atoms: C_12  and  C_13
REMARK                            x       y       z     vdW  Elec       q    Type
REMARK                         _______ _______ _______ _____ _____    ______ ____
ROOT
ATOM      7  C   UNL     1      -3.152   1.438  23.916  0.00  0.00    +0.119 C 
ATOM      8  C   UNL     1      -2.357   1.219  23.873  0.00  0.00    +0.161 C 
ATOM      9  O   UNL     1      -2.182   1.930  23.492  0.00  0.00    -0.351 OA
ATOM     10  C   UNL     1      -2.976   2.149  23.535  0.00  0.00    +0.161 C 
ENDROOT
BRANCH   7   6
ATOM      6  C   UNL     1      -3.946   1.657  23.959  0.00  0.00    +0.070 C 
BRANCH   6   5
ATOM      3  C   UNL     1      -4.983   2.888  25.361  0.00  0.00    +0.187 A 
ATOM      4  C   UNL     1      -4.984   2.344  24.741  0.00  0.00    +0.056 A 
ATOM      5  C   UNL     1      -4.200   2.175  24.548  0.00  0.00    +0.102 A 
ATOM     19  N   UNL     1      -3.714   2.615  25.049  0.00  0.00    -0.082 NA
ATOM     20  O   UNL     1      -4.197   3.055  25.551  0.00  0.00    -0.355 OA
BRANCH   3   2
ATOM      1  O   UNL     1      -5.768   4.025  25.725  0.00  0.00    -0.212 OA
ATOM      2  C   UNL     1      -5.649   3.209  25.726  0.00  0.00    +0.249 C 
ENDBRANCH   3   2
ENDBRANCH   6   5
ENDBRANCH   7   6
BRANCH   7  11
ATOM     11  N   UNL     1      -3.327   0.727  24.296  0.00  0.00    -0.215 NA
BRANCH  11  12
ATOM     12  C   UNL     1      -3.040   0.016  23.991  0.00  0.00    +0.089 C 
BRANCH  12  13
ATOM     13  C   UNL     1      -3.298  -0.701  24.308  0.00  0.00    +0.017 C 
ATOM     14  C   UNL     1      -3.796  -1.190  23.868  0.00  0.00    +0.001 C 
ATOM     15  C   UNL     1      -4.055  -1.908  24.183  0.00  0.00    +0.000 C 
ATOM     16  C   UNL     1      -3.814  -2.135  24.939  0.00  0.00    +0.000 C 
ATOM     17  C   UNL     1      -3.316  -1.646  25.379  0.00  0.00    +0.000 C 
ATOM     18  C   UNL     1      -3.059  -0.929  25.063  0.00  0.00    +0.001 C 
ENDBRANCH  12  13
ENDBRANCH  11  12
ENDBRANCH   7  11
TORSDOF 6
ENDMDL
MODEL 4
REMARK VINA RESULT:      -8.7      1.821      4.059
REMARK  Name = 
REMARK  6 active torsions:
REMARK  status: ('A' for Active; 'I' for Inactive)
REMARK    1  A    between atoms: C_2  and  C_3
REMARK    2  A    between atoms: C_5  and  C_6
REMARK    3  A    between atoms: C_6  and  C_7
REMARK    4  A    between atoms: C_7  and  N_11
REMARK    5  A    between atoms: N_11  and  C_12
REMARK    6  A    between atoms: C_12  and  C_13
REMARK                            x       y       z     vdW  Elec       q    Type
REMARK                         _______ _______ _______ _____ _____    ______ ____
ROOT
ATOM      7  C   UNL     1      -4.940   1.968  25.017  0.00  0.00    +0.119 C 
ATOM      8  C   UNL     1      -5.364   2.445  25.542  0.00  0.00    +0.161 C 
ATOM      9  O   UNL     1      -6.059   2.050  25.339  0.00  0.00    -0.351 OA
ATOM     10  C   UNL     1      -5.637   1.574  24.815  0.00  0.00    +0.161 C 
ENDROOT
BRANCH   7   6
ATOM      6  C   UNL     1      -4.518   1.492  24.493  0.00  0.00    +0.070 C 
BRANCH   6   5
ATOM      3  C   UNL     1      -4.041  -0.587  24.591  0.00  0.00    +0.187 A 
ATOM      4  C   UNL     1      -4.157   0.106  24.159  0.00  0.00    +0.056 A 
ATOM      5  C   UNL     1      -4.355   0.707  24.689  0.00  0.00    +0.102 A 
ATOM     19  N   UNL     1      -4.362   0.385  25.448  0.00  0.00    -0.082 NA
ATOM     20  O   UNL     1      -4.168  -0.414  25.388  0.00  0.00    -0.355 OA
BRANCH   3   2
ATOM      1  O   UNL     1      -4.410  -1.798  23.929  0.00  0.00    -0.212 OA
ATOM      2  C   UNL     1      -3.835  -1.323  24.282  0.00  0.00    +0.249 C 
ENDBRANCH   3   2
ENDBRANCH   6   5
ENDBRANCH   7   6
BRANCH   7  11
ATOM     11  N   UNL     1      -4.245   2.363  25.220  0.00  0.00    -0.215 NA
BRANCH  11  12
ATOM     12  C   UNL     1      -4.192   3.180  25.122  0.00  0.00    +0.089 C 
BRANCH  12  13
ATOM     13  C   UNL     1      -3.478   3.567  25.271  0.00  0.00    +0.017 C 
ATOM     14  C   UNL     1      -2.939   3.687  24.658  0.00  0.00    +0.001 C 
ATOM     15  C   UNL     1      -2.225   4.074  24.806  0.00  0.00    +0.000 C 
ATOM     16  C   UNL     1      -2.052   4.341  25.567  0.00  0.00    +0.000 C 
ATOM     17  C   UNL     1      -2.591   4.221  26.180  0.00  0.00    +0.000 C 
ATOM     18  C   UNL     1      -3.305   3.834  26.031  0.00  0.00    +0.001 C 
ENDBRANCH  12  13
ENDBRANCH  11  12
ENDBRANCH   7  11
TORSDOF 6
ENDMDL
