MODEL 1
REMARK VINA RESULT:      -9.6      0.000      0.000
REMARK  Name = 
REMARK  3 active torsions:
REMARK  status: ('A' for Active; 'I' for Inactive)
REMARK    1  A    between atoms: C_7  and  C_10
REMARK    2  A    between atoms: N_12  and  C_13
REMARK    3  A    between atoms: N_21  and  C_24
REMARK                            x       y       z     vdW  Elec       q    Type
REMARK                         _______ _______ _______ _____ _____    ______ ____
ROOT
ATOM     13  C   UNL     1      -0.785   0.572  24.419  0.00  0.00    +0.099 C 
ATOM     14  C   UNL     1      -0.966  -0.070  24.903  0.00  0.00    +0.043 C 
ATOM     15  C   UNL     1      -1.731  -0.165  25.195  0.00  0.00    +0.097 C 
ATOM     16  N   UNL     1      -2.317   0.384  25.002  0.00  0.00    -0.257 N 
ATOM     17  C   UNL     1      -2.137   1.026  24.517  0.00  0.00    +0.156 C 
ATOM     18  C   UNL     1      -1.370   1.121  24.225  0.00  0.00    +0.051 C 
ATOM     19  C   UNL     1      -2.822   1.474  24.421  0.00  0.00    +0.254 C 
ATOM     20  O   UNL     1      -2.892   2.166  23.977  0.00  0.00    -0.272 OA
ATOM     21  N   UNL     1      -3.427   1.108  24.846  0.00  0.00    -0.191 N 
ATOM     22  C   UNL     1      -3.115   0.435  25.205  0.00  0.00    +0.317 C 
ATOM     23  O   UNL     1      -3.528  -0.096  25.684  0.00  0.00    -0.252 OA
ENDROOT
BRANCH  21  24
ATOM     24  C   UNL     1      -4.207   1.370  24.903  0.00  0.00    +0.063 A 
ATOM     25  C   UNL     1      -4.806   0.977  24.493  0.00  0.00    +0.018 A 
ATOM     26  C   UNL     1      -5.586   1.239  24.550  0.00  0.00    +0.032 A 
ATOM     27  C   UNL     1      -5.768   1.895  25.017  0.00  0.00    +0.151 A 
ATOM     28  F   UNL     1      -6.548   2.157  25.073  0.00  0.00    -0.203 F 
ATOM     29  C   UNL     1      -5.170   2.288  25.426  0.00  0.00    +0.086 A 
ATOM     30 CL   UNL     1      -5.352   2.944  25.893  0.00  0.00    -0.080 Cl
ATOM     31  C   UNL     1      -4.390   2.026  25.370  0.00  0.00    +0.029 A 
ENDBRANCH  21  24
BRANCH  13  12
ATOM     10  C   UNL     1       0.265   0.158  23.543  0.00  0.00    +0.241 C 
ATOM     11  O   UNL     1      -0.217  -0.444  23.250  0.00  0.00    -0.273 OA
ATOM     12  N   UNL     1      -0.019   0.667  24.127  0.00  0.00    -0.207 NA
BRANCH  10   7
ATOM      1  C   UNL     1       3.843   1.072  22.734  0.00  0.00    +0.095 C 
ATOM      2  C   UNL     1       3.329   0.536  22.376  0.00  0.00    +0.226 C 
ATOM      3  O   UNL     1       3.580   0.094  21.726  0.00  0.00    -0.275 OA
ATOM      4  N   UNL     1       2.563   0.442  22.667  0.00  0.00    -0.280 N 
ATOM      5  C   UNL     1       2.049  -0.095  22.309  0.00  0.00    +0.094 C 
ATOM      6  C   UNL     1       1.282  -0.189  22.601  0.00  0.00    +0.031 C 
ATOM      7  C   UNL     1       1.031   0.253  23.251  0.00  0.00    +0.082 C 
ATOM      8  C   UNL     1       1.546   0.789  23.609  0.00  0.00    +0.031 C 
ATOM      9  C   UNL     1       2.311   0.883  23.317  0.00  0.00    +0.094 C 
ENDBRANCH  10   7
ENDBRANCH  13  12
TORSDOF 3
ENDMDL
MODEL 2
REMARK VINA RESULT:      -9.3      3.369      4.999
REMARK  Name = 
REMARK  3 active torsions:
REMARK  status: ('A' for Active; 'I' for Inactive)
REMARK    1  A    between atoms: C_7  and  C_10
REMARK    2  A    between atoms: N_12  and  C_13
REMARK    3  A    between atoms: N_21  and  C_24
REMARK                            x       y       z     vdW  Elec       q    Type
REMARK                         _______ _______ _______ _____ _____    ______ ____
ROOT
ATOM     13  C   UNL     1      -1.778   0.429  24.890  0.00  0.00    +0.099 C 
ATOM     14  C   UNL     1      -1.212   0.413  25.490  0.00  0.00    +0.043 C 
ATOM     15  C   UNL     1      -0.871   1.116  25.753  0.00  0.00    +0.097 C 
ATOM     16  N   UNL     1      -1.096   1.836  25.417  0.00  0.00    -0.257 N 
ATOM     17  C   UNL     1      -1.663   1.851  24.818  0.00  0.00    +0.156 C 
ATOM     18  C   UNL     1      -2.004   1.147  24.554  0.00  0.00    +0.051 C 
ATOM     19  C   UNL     1      -1.775   2.637  24.593  0.00  0.00    +0.254 C 
ATOM     20  O   UNL     1      -2.293   2.905  24.010  0.00  0.00    -0.272 OA
ATOM     21  N   UNL     1      -1.277   3.107  25.053  0.00  0.00    -0.191 N 
ATOM     22  C   UNL     1      -0.859   2.611  25.563  0.00  0.00    +0.317 C 
ATOM     23  O   UNL     1      -0.299   2.850  26.120  0.00  0.00    -0.252 OA
ENDROOT
BRANCH  21  24
ATOM     24  C   UNL     1      -1.211   3.928  25.012  0.00  0.00    +0.063 A 
ATOM     25  C   UNL     1      -0.554   4.271  24.647  0.00  0.00    +0.018 A 
ATOM     26  C   UNL     1      -0.488   5.092  24.605  0.00  0.00    +0.032 A 
ATOM     27  C   UNL     1      -1.078   5.571  24.929  0.00  0.00    +0.151 A 
ATOM     28  F   UNL     1      -1.011   6.392  24.887  0.00  0.00    -0.203 F 
ATOM     29  C   UNL     1      -1.733   5.228  25.293  0.00  0.00    +0.086 A 
ATOM     30 CL   UNL     1      -2.323   5.706  25.616  0.00  0.00    -0.080 Cl
ATOM     31  C   UNL     1      -1.800   4.407  25.334  0.00  0.00    +0.029 A 
ENDBRANCH  21  24
BRANCH  13  12
ATOM     10  C   UNL     1      -2.853  -0.512  24.919  0.00  0.00    +0.241 C 
ATOM     11  O   UNL     1      -3.246  -0.046  25.475  0.00  0.00    -0.273 OA
ATOM     12  N   UNL     1      -2.120  -0.275  24.626  0.00  0.00    -0.207 NA
BRANCH  10   7
ATOM      1  C   UNL     1      -4.843  -3.305  23.326  0.00  0.00    +0.095 C 
ATOM      2  C   UNL     1      -4.217  -3.326  23.863  0.00  0.00    +0.226 C 
ATOM      3  O   UNL     1      -3.933  -4.051  24.137  0.00  0.00    -0.275 OA
ATOM      4  N   UNL     1      -3.877  -2.623  24.127  0.00  0.00    -0.280 N 
ATOM      5  C   UNL     1      -3.251  -2.644  24.665  0.00  0.00    +0.094 C 
ATOM      6  C   UNL     1      -2.910  -1.940  24.929  0.00  0.00    +0.031 C 
ATOM      7  C   UNL     1      -3.195  -1.216  24.655  0.00  0.00    +0.082 C 
ATOM      8  C   UNL     1      -3.820  -1.195  24.117  0.00  0.00    +0.031 C 
ATOM      9  C   UNL     1      -4.161  -1.898  23.853  0.00  0.00    +0.094 C 
ENDBRANCH  10   7
ENDBRANCH  13  12
TORSDOF 3
ENDMDL
MODEL 3
REMARK VINA RESULT:      -9.3      1.514      1.920
REMARK  Name = 
REMARK  3 active torsions:
REMARK  status: ('A' for Active; 'I' for Inactive)
REMARK    1  A    between atoms: C_7  and  C_10
REMARK    2  A    between atoms: N_12  and  C_13
REMARK    3  A    between atoms: N_21  and  C_24
REMARK                            x       y       z     vdW  Elec       q    Type
REMARK                         _______ _______ _______ _____ _____    ______ ____
ROOT
ATOM     13  C   UNL     1      -0.799   2.453  24.521  0.00  0.00    +0.099 C 
ATOM     14  C   UNL     1      -0.629   2.861  25.218  0.00  0.00    +0.043 C 
ATOM     15  C   UNL     1      -1.240   3.187  25.664  0.00  0.00    +0.097 C 
ATOM     16  N   UNL     1      -2.023   3.106  25.415  0.00  0.00    -0.257 N 
ATOM     17  C   UNL     1      -2.193   2.697  24.719  0.00  0.00    +0.156 C 
ATOM     18  C   UNL     1      -1.581   2.371  24.271  0.00  0.00    +0.051 C 
ATOM     19  C   UNL     1      -3.010   2.705  24.612  0.00  0.00    +0.254 C 
ATOM     20  O   UNL     1      -3.421   2.360  23.984  0.00  0.00    -0.272 OA
ATOM     21  N   UNL     1      -3.346   3.119  25.241  0.00  0.00    -0.191 N 
ATOM     22  C   UNL     1      -2.735   3.366  25.738  0.00  0.00    +0.317 C 
ATOM     23  O   UNL     1      -2.822   3.798  26.435  0.00  0.00    -0.252 OA
ENDROOT
BRANCH  21  24
ATOM     24  C   UNL     1      -4.151   3.260  25.355  0.00  0.00    +0.063 A 
ATOM     25  C   UNL     1      -4.470   4.000  25.175  0.00  0.00    +0.018 A 
ATOM     26  C   UNL     1      -5.275   4.141  25.289  0.00  0.00    +0.032 A 
ATOM     27  C   UNL     1      -5.760   3.542  25.583  0.00  0.00    +0.151 A 
ATOM     28  F   UNL     1      -6.565   3.683  25.697  0.00  0.00    -0.203 F 
ATOM     29  C   UNL     1      -5.442   2.803  25.763  0.00  0.00    +0.086 A 
ATOM     30 CL   UNL     1      -5.928   2.205  26.058  0.00  0.00    -0.080 Cl
ATOM     31  C   UNL     1      -4.637   2.662  25.649  0.00  0.00    +0.029 A 
ENDBRANCH  21  24
BRANCH  13  12
ATOM     10  C   UNL     1       0.049   1.347  24.206  0.00  0.00    +0.241 C 
ATOM     11  O   UNL     1      -0.327   0.894  24.784  0.00  0.00    -0.273 OA
ATOM     12  N   UNL     1      -0.187   2.126  24.074  0.00  0.00    -0.207 NA
BRANCH  10   7
ATOM      1  C   UNL     1       3.253   0.364  22.456  0.00  0.00    +0.095 C 
ATOM      2  C   UNL     1       2.495   0.040  22.418  0.00  0.00    +0.226 C 
ATOM      3  O   UNL     1       2.350  -0.612  21.932  0.00  0.00    -0.275 OA
ATOM      4  N   UNL     1       1.884   0.366  22.864  0.00  0.00    -0.280 N 
ATOM      5  C   UNL     1       1.127   0.042  22.826  0.00  0.00    +0.094 C 
ATOM      6  C   UNL     1       0.515   0.369  23.274  0.00  0.00    +0.031 C 
ATOM      7  C   UNL     1       0.661   1.020  23.758  0.00  0.00    +0.082 C 
ATOM      8  C   UNL     1       1.419   1.344  23.797  0.00  0.00    +0.031 C 
ATOM      9  C   UNL     1       2.030   1.018  23.350  0.00  0.00    +0.094 C 
ENDBRANCH  10   7
ENDBRANCH  13  12
TORSDOF 3
ENDMDL
MODEL 4
REMARK VINA RESULT:      -9.2      2.778      6.425
REMARK  Name = 
REMARK  3 active torsions:
REMARK  status: ('A' for Active; 'I' for Inactive)
REMARK    1  A    between atoms: C_7  and  C_10
REMARK    2  A    between atoms: N_12  and  C_13
REMARK    3  A    between atoms: N_21  and  C_24
REMARK                            x       y       z     vdW  Elec       q    Type
REMARK                         _______ _______ _______ _____ _____    ______ ____
ROOT
ATOM     13  C   UNL     1      -1.845   0.616  24.786  0.00  0.00    +0.099 C 
ATOM     14  C   UNL     1      -1.726  -0.170  25.008  0.00  0.00    +0.043 C 
ATOM     15  C   UNL     1      -1.064  -0.579  24.737  0.00  0.00    +0.097 C 
ATOM     16  N   UNL     1      -0.520  -0.204  24.242  0.00  0.00    -0.257 N 
ATOM     17  C   UNL     1      -0.639   0.581  24.020  0.00  0.00    +0.156 C 
ATOM     18  C   UNL     1      -1.302   0.992  24.292  0.00  0.00    +0.051 C 
ATOM     19  C   UNL     1      -0.014   0.805  23.531  0.00  0.00    +0.254 C 
ATOM     20  O   UNL     1       0.088   1.546  23.182  0.00  0.00    -0.272 OA
ATOM     21  N   UNL     1       0.491   0.158  23.451  0.00  0.00    -0.191 N 
ATOM     22  C   UNL     1       0.178  -0.466  23.891  0.00  0.00    +0.317 C 
ATOM     23  O   UNL     1       0.506  -1.219  23.966  0.00  0.00    -0.252 OA
ENDROOT
BRANCH  21  24
ATOM     24  C   UNL     1       1.187   0.138  23.008  0.00  0.00    +0.063 A 
ATOM     25  C   UNL     1       1.200  -0.244  22.276  0.00  0.00    +0.018 A 
ATOM     26  C   UNL     1       1.897  -0.264  21.834  0.00  0.00    +0.032 A 
ATOM     27  C   UNL     1       2.580   0.097  22.124  0.00  0.00    +0.151 A 
ATOM     28  F   UNL     1       3.276   0.077  21.682  0.00  0.00    -0.203 F 
ATOM     29  C   UNL     1       2.567   0.478  22.855  0.00  0.00    +0.086 A 
ATOM     30 CL   UNL     1       3.250   0.839  23.145  0.00  0.00    -0.080 Cl
ATOM     31  C   UNL     1       1.871   0.498  23.297  0.00  0.00    +0.029 A 
ENDBRANCH  21  24
BRANCH  13  12
ATOM     10  C   UNL     1      -3.186   1.068  24.591  0.00  0.00    +0.241 C 
ATOM     11  O   UNL     1      -3.204   0.699  23.854  0.00  0.00    -0.273 OA
ATOM     12  N   UNL     1      -2.507   1.027  25.058  0.00  0.00    -0.207 NA
BRANCH  10   7
ATOM      1  C   UNL     1      -6.526   2.300  25.866  0.00  0.00    +0.095 C 
ATOM      2  C   UNL     1      -5.835   2.710  25.678  0.00  0.00    +0.226 C 
ATOM      3  O   UNL     1      -5.806   3.530  25.762  0.00  0.00    -0.275 OA
ATOM      4  N   UNL     1      -5.173   2.300  25.407  0.00  0.00    -0.280 N 
ATOM      5  C   UNL     1      -4.482   2.709  25.219  0.00  0.00    +0.094 C 
ATOM      6  C   UNL     1      -3.819   2.299  24.947  0.00  0.00    +0.031 C 
ATOM      7  C   UNL     1      -3.849   1.479  24.863  0.00  0.00    +0.082 C 
ATOM      8  C   UNL     1      -4.540   1.069  25.051  0.00  0.00    +0.031 C 
ATOM      9  C   UNL     1      -5.201   1.479  25.322  0.00  0.00    +0.094 C 
ENDBRANCH  10   7
ENDBRANCH  13  12
TORSDOF 3
ENDMDL
MODEL 5
REMARK VINA RESULT:      -8.6      3.708      4.714
REMARK  Name = 
REMARK  3 active torsions:
REMARK  status: ('A' for Active; 'I' for Inactive)
REMARK    1  A    between atoms: C_7  and  C_10
REMARK    2  A    between atoms: N_12  and  C_13
REMARK    3  A    between atoms: N_21  and  C_24
REMARK                            x       y       z     vdW  Elec       q    Type
REMARK                         _______ _______ _______ _____ _____    ______ ____
ROOT
ATOM     13  C   UNL     1      -3.409   1.990  24.527  0.00  0.00    +0.099 C 
ATOM     14  C   UNL     1      -4.209   1.982  24.727  0.00  0.00    +0.043 C 
ATOM     15  C   UNL     1      -4.615   1.265  24.775  0.00  0.00    +0.097 C 
ATOM     16  N   UNL     1      -4.220   0.557  24.624  0.00  0.00    -0.257 N 
ATOM     17  C   UNL     1      -3.420   0.565  24.424  0.00  0.00    +0.156 C 
ATOM     18  C   UNL     1      -3.014   1.282  24.376  0.00  0.00    +0.051 C 
ATOM     19  C   UNL     1      -3.178  -0.214  24.306  0.00  0.00    +0.254 C 
ATOM     20  O   UNL     1      -2.418  -0.461  24.098  0.00  0.00    -0.272 OA
ATOM     21  N   UNL     1      -3.829  -0.705  24.433  0.00  0.00    -0.191 N 
ATOM     22  C   UNL     1      -4.473  -0.228  24.629  0.00  0.00    +0.317 C 
ATOM     23  O   UNL     1      -5.236  -0.490  24.801  0.00  0.00    -0.252 OA
ENDROOT
BRANCH  21  24
ATOM     24  C   UNL     1      -3.835  -1.528  24.374  0.00  0.00    +0.063 A 
ATOM     25  C   UNL     1      -4.167  -1.892  23.711  0.00  0.00    +0.018 A 
ATOM     26  C   UNL     1      -4.173  -2.714  23.651  0.00  0.00    +0.032 A 
ATOM     27  C   UNL     1      -3.848  -3.174  24.255  0.00  0.00    +0.151 A 
ATOM     28  F   UNL     1      -3.854  -3.996  24.196  0.00  0.00    -0.203 F 
ATOM     29  C   UNL     1      -3.516  -2.811  24.917  0.00  0.00    +0.086 A 
ATOM     30 CL   UNL     1      -3.191  -3.270  25.520  0.00  0.00    -0.080 Cl
ATOM     31  C   UNL     1      -3.510  -1.988  24.976  0.00  0.00    +0.029 A 
ENDBRANCH  21  24
BRANCH  13  12
ATOM     10  C   UNL     1      -2.512   2.945  25.097  0.00  0.00    +0.241 C 
ATOM     11  O   UNL     1      -2.426   2.467  25.764  0.00  0.00    -0.273 OA
ATOM     12  N   UNL     1      -3.003   2.707  24.479  0.00  0.00    -0.207 NA
BRANCH  10   7
ATOM      1  C   UNL     1      -0.111   5.828  24.631  0.00  0.00    +0.095 C 
ATOM      2  C   UNL     1      -0.889   5.812  24.904  0.00  0.00    +0.226 C 
ATOM      3  O   UNL     1      -1.262   6.514  25.127  0.00  0.00    -0.275 OA
ATOM      4  N   UNL     1      -1.294   5.096  24.952  0.00  0.00    -0.280 N 
ATOM      5  C   UNL     1      -2.073   5.080  25.224  0.00  0.00    +0.094 C 
ATOM      6  C   UNL     1      -2.479   4.363  25.273  0.00  0.00    +0.031 C 
ATOM      7  C   UNL     1      -2.106   3.662  25.049  0.00  0.00    +0.082 C 
ATOM      8  C   UNL     1      -1.327   3.678  24.776  0.00  0.00    +0.031 C 
ATOM      9  C   UNL     1      -0.922   4.394  24.728  0.00  0.00    +0.094 C 
ENDBRANCH  10   7
ENDBRANCH  13  12
TORSDOF 3
ENDMDL
MODEL 6
REMARK VINA RESULT:      -8.6     15.023     16.316
REMARK  Name = 
REMARK  3 active torsions:
REMARK  status: ('A' for Active; 'I' for Inactive)
REMARK    1  A    between atoms: C_7  and  C_10
REMARK    2  A    between atoms: N_12  and  C_13
REMARK    3  A    between atoms: N_21  and  C_24
REMARK                            x       y       z     vdW  Elec       q    Type
REMARK                         _______ _______ _______ _____ _____    ______ ____
ROOT
ATOM     13  C   UNL     1      -4.482 -10.686  14.856  0.00  0.00    +0.099 C 
ATOM     14  C   UNL     1      -3.658 -10.727  14.870  0.00  0.00    +0.043 C 
ATOM     15  C   UNL     1      -3.229 -10.632  14.173  0.00  0.00    +0.097 C 
ATOM     16  N   UNL     1      -3.622 -10.495  13.460  0.00  0.00    -0.257 N 
ATOM     17  C   UNL     1      -4.446 -10.454  13.446  0.00  0.00    +0.156 C 
ATOM     18  C   UNL     1      -4.877 -10.549  14.144  0.00  0.00    +0.051 C 
ATOM     19  C   UNL     1      -4.681 -10.314  12.669  0.00  0.00    +0.254 C 
ATOM     20  O   UNL     1      -5.459 -10.233  12.403  0.00  0.00    -0.272 OA
ATOM     21  N   UNL     1      -4.003 -10.268  12.202  0.00  0.00    -0.191 N 
ATOM     22  C   UNL     1      -3.349 -10.380  12.692  0.00  0.00    +0.317 C 
ATOM     23  O   UNL     1      -2.559 -10.378  12.453  0.00  0.00    -0.252 OA
ENDROOT
BRANCH  21  24
ATOM     24  C   UNL     1      -3.982 -10.134  11.388  0.00  0.00    +0.063 A 
ATOM     25  C   UNL     1      -3.905 -10.770  10.866  0.00  0.00    +0.018 A 
ATOM     26  C   UNL     1      -3.884 -10.636  10.053  0.00  0.00    +0.032 A 
ATOM     27  C   UNL     1      -3.941  -9.867   9.760  0.00  0.00    +0.151 A 
ATOM     28  F   UNL     1      -3.920  -9.733   8.946  0.00  0.00    -0.203 F 
ATOM     29  C   UNL     1      -4.018  -9.232  10.280  0.00  0.00    +0.086 A 
ATOM     30 CL   UNL     1      -4.074  -8.462   9.988  0.00  0.00    -0.080 Cl
ATOM     31  C   UNL     1      -4.039  -9.366  11.094  0.00  0.00    +0.029 A 
ENDBRANCH  21  24
BRANCH  13  12
ATOM     10  C   UNL     1      -4.965 -10.160  16.094  0.00  0.00    +0.241 C 
ATOM     11  O   UNL     1      -4.588  -9.443  15.936  0.00  0.00    -0.273 OA
ATOM     12  N   UNL     1      -4.913 -10.781  15.554  0.00  0.00    -0.207 NA
BRANCH  10   7
ATOM      1  C   UNL     1      -6.295 -10.716  19.589  0.00  0.00    +0.095 C 
ATOM      2  C   UNL     1      -6.686 -10.541  18.884  0.00  0.00    +0.226 C 
ATOM      3  O   UNL     1      -7.507 -10.462  18.877  0.00  0.00    -0.275 OA
ATOM      4  N   UNL     1      -6.256 -10.446  18.187  0.00  0.00    -0.280 N 
ATOM      5  C   UNL     1      -6.647 -10.271  17.482  0.00  0.00    +0.094 C 
ATOM      6  C   UNL     1      -6.216 -10.175  16.784  0.00  0.00    +0.031 C 
ATOM      7  C   UNL     1      -5.395 -10.255  16.792  0.00  0.00    +0.082 C 
ATOM      8  C   UNL     1      -5.004 -10.430  17.497  0.00  0.00    +0.031 C 
ATOM      9  C   UNL     1      -5.434 -10.525  18.194  0.00  0.00    +0.094 C 
ENDBRANCH  10   7
ENDBRANCH  13  12
TORSDOF 3
ENDMDL
MODEL 7
REMARK VINA RESULT:      -8.3      3.169      4.540
REMARK  Name = 
REMARK  3 active torsions:
REMARK  status: ('A' for Active; 'I' for Inactive)
REMARK    1  A    between atoms: C_7  and  C_10
REMARK    2  A    between atoms: N_12  and  C_13
REMARK    3  A    between atoms: N_21  and  C_24
REMARK                            x       y       z     vdW  Elec       q    Type
REMARK                         _______ _______ _______ _____ _____    ______ ____
ROOT
ATOM     13  C   UNL     1      -1.294   1.180  25.010  0.00  0.00    +0.099 C 
ATOM     14  C   UNL     1      -0.615   0.740  24.850  0.00  0.00    +0.043 C 
ATOM     15  C   UNL     1      -0.670  -0.074  24.728  0.00  0.00    +0.097 C 
ATOM     16  N   UNL     1      -1.405  -0.448  24.765  0.00  0.00    -0.257 N 
ATOM     17  C   UNL     1      -2.084  -0.008  24.925  0.00  0.00    +0.156 C 
ATOM     18  C   UNL     1      -2.029   0.806  25.048  0.00  0.00    +0.051 C 
ATOM     19  C   UNL     1      -2.727  -0.524  24.929  0.00  0.00    +0.254 C 
ATOM     20  O   UNL     1      -3.514  -0.318  25.066  0.00  0.00    -0.272 OA
ATOM     21  N   UNL     1      -2.446  -1.283  24.770  0.00  0.00    -0.191 N 
ATOM     22  C   UNL     1      -1.629  -1.236  24.670  0.00  0.00    +0.317 C 
ATOM     23  O   UNL     1      -1.123  -1.866  24.502  0.00  0.00    -0.252 OA
ENDROOT
BRANCH  21  24
ATOM     24  C   UNL     1      -2.902  -1.969  24.721  0.00  0.00    +0.063 A 
ATOM     25  C   UNL     1      -2.861  -2.536  25.321  0.00  0.00    +0.018 A 
ATOM     26  C   UNL     1      -3.317  -3.222  25.272  0.00  0.00    +0.032 A 
ATOM     27  C   UNL     1      -3.813  -3.341  24.624  0.00  0.00    +0.151 A 
ATOM     28  F   UNL     1      -4.269  -4.027  24.575  0.00  0.00    -0.203 F 
ATOM     29  C   UNL     1      -3.854  -2.775  24.025  0.00  0.00    +0.086 A 
ATOM     30 CL   UNL     1      -4.351  -2.895  23.377  0.00  0.00    -0.080 Cl
ATOM     31  C   UNL     1      -3.398  -2.089  24.074  0.00  0.00    +0.029 A 
ENDBRANCH  21  24
BRANCH  13  12
ATOM     10  C   UNL     1      -1.406   2.516  24.516  0.00  0.00    +0.241 C 
ATOM     11  O   UNL     1      -1.628   2.224  23.777  0.00  0.00    -0.273 OA
ATOM     12  N   UNL     1      -1.239   1.994  25.133  0.00  0.00    -0.207 NA
BRANCH  10   7
ATOM      1  C   UNL     1      -1.854   6.202  25.228  0.00  0.00    +0.095 C 
ATOM      2  C   UNL     1      -1.186   5.772  25.005  0.00  0.00    +0.226 C 
ATOM      3  O   UNL     1      -0.463   6.157  24.905  0.00  0.00    -0.275 OA
ATOM      4  N   UNL     1      -1.241   4.959  24.883  0.00  0.00    -0.280 N 
ATOM      5  C   UNL     1      -0.573   4.529  24.660  0.00  0.00    +0.094 C 
ATOM      6  C   UNL     1      -0.628   3.714  24.538  0.00  0.00    +0.031 C 
ATOM      7  C   UNL     1      -1.351   3.330  24.638  0.00  0.00    +0.082 C 
ATOM      8  C   UNL     1      -2.019   3.760  24.861  0.00  0.00    +0.031 C 
ATOM      9  C   UNL     1      -1.964   4.574  24.983  0.00  0.00    +0.094 C 
ENDBRANCH  10   7
ENDBRANCH  13  12
TORSDOF 3
ENDMDL
