REMARK  Name = 
REMARK  3 active torsions:
REMARK  status: ('A' for Active; 'I' for Inactive)
REMARK    1  A    between atoms: N_2  and  C_4
REMARK    2  A    between atoms: C_6  and  C_10
REMARK    3  A    between atoms: C_13  and  C_15
REMARK                            x       y       z     vdW  Elec       q    Type
REMARK                         _______ _______ _______ _____ _____    ______ ____
ROOT
ATOM     10  C   UNL     1       4.090   0.420   0.000  0.00  0.00    +0.203 A 
ATOM     11  N   UNL     1       3.678  -0.294   0.000  0.00  0.00    -0.056 NA
ATOM     12  O   UNL     1       2.871  -0.122   0.000  0.00  0.00    -0.336 OA
ATOM     13  C   UNL     1       2.784   0.698   0.000  0.00  0.00    +0.253 A 
ATOM     14  N   UNL     1       3.538   1.034   0.000  0.00  0.00    -0.190 NA
ENDROOT
BRANCH  13  15
ATOM     15  C   UNL     1       2.070   1.110   0.000  0.00  0.00    +0.158 C 
ATOM     16  C   UNL     1       1.356   0.698   0.000  0.00  0.00    +0.074 C 
ATOM     17  C   UNL     1       0.641   1.110   0.000  0.00  0.00    +0.078 A 
ATOM     18  C   UNL     1       0.641   1.935   0.000  0.00  0.00    +0.092 A 
ATOM     19  C   UNL     1       1.356   2.348   0.000  0.00  0.00    +0.136 C 
ATOM     20  N   UNL     1       2.070   1.935   0.000  0.00  0.00    -0.203 NA
ATOM     21  N   UNL     1      -0.143   2.190   0.000  0.00  0.00    -0.226 NA
ATOM     22  C   UNL     1      -0.628   1.523   0.000  0.00  0.00    +0.198 A 
ATOM     23  N   UNL     1      -0.143   0.856   0.000  0.00  0.00    -0.227 NA
ENDBRANCH  13  15
BRANCH  10   6
ATOM      4  C   UNL     1       6.216  -0.075   0.000  0.00  0.00    +0.143 A 
ATOM      5  C   UNL     1       5.396  -0.161   0.000  0.00  0.00    +0.027 A 
ATOM      6  C   UNL     1       4.911   0.507   0.000  0.00  0.00    +0.041 A 
ATOM      7  C   UNL     1       5.246   1.260   0.000  0.00  0.00    +0.003 A 
ATOM      8  C   UNL     1       6.067   1.347   0.000  0.00  0.00    +0.002 A 
ATOM      9  C   UNL     1       6.552   0.679   0.000  0.00  0.00    +0.024 A 
BRANCH   4   2
ATOM      1  O   UNL     1       7.521  -0.656   0.000  0.00  0.00    -0.126 OA
ATOM      2  N   UNL     1       6.701  -0.742   0.000  0.00  0.00    +0.058 N 
ATOM      3  O   UNL     1       6.365  -1.496   0.000  0.00  0.00    -0.126 OA
ENDBRANCH   4   2
ENDBRANCH  10   6
TORSDOF 3
