REMARK  Name = 
REMARK  9 active torsions:
REMARK  status: ('A' for Active; 'I' for Inactive)
REMARK    1  A    between atoms: C_2  and  C_4
REMARK    2  A    between atoms: C_4  and  C_6
REMARK    3  A    between atoms: N_8  and  C_9
REMARK    4  A    between atoms: C_11  and  C_17
REMARK    5  A    between atoms: N_19  and  C_20
REMARK    6  A    between atoms: C_20  and  C_21
REMARK    7  A    between atoms: C_20  and  C_27
REMARK    8  A    between atoms: C_21  and  C_22
REMARK    9  A    between atoms: C_22  and  S_23
REMARK                            x       y       z     vdW  Elec       q    Type
REMARK                         _______ _______ _______ _____ _____    ______ ____
ROOT
ATOM      9  C   UNL     1      -3.572  -0.412   0.000  0.00  0.00    +0.150 C 
ATOM     10  C   UNL     1      -2.858   0.000   0.000  0.00  0.00    -0.002 C 
ATOM     11  C   UNL     1      -2.143  -0.412   0.000  0.00  0.00    +0.033 C 
ATOM     12  C   UNL     1      -2.143  -1.238   0.000  0.00  0.00    +0.066 C 
ATOM     13  C   UNL     1      -2.858  -1.650   0.000  0.00  0.00    +0.189 C 
ATOM     14  O   UNL     1      -2.858  -2.475   0.000  0.00  0.00    -0.220 OA
ATOM     15  C   UNL     1      -3.572  -1.238   0.000  0.00  0.00    +0.206 C 
ATOM     16  O   UNL     1      -4.287  -1.650   0.000  0.00  0.00    -0.218 OA
ENDROOT
BRANCH   9   8
ATOM      6  C   UNL     1      -5.001  -0.412   0.000  0.00  0.00    +0.259 C 
ATOM      7  O   UNL     1      -5.001  -1.238   0.000  0.00  0.00    -0.272 OA
ATOM      8  N   UNL     1      -4.287   0.000   0.000  0.00  0.00    -0.199 NA
BRANCH   6   4
ATOM      4  C   UNL     1      -5.716   0.000   0.000  0.00  0.00    +0.169 C 
ATOM      5  N   UNL     1      -5.716   0.825   0.000  0.00  0.00    -0.123 NA
BRANCH   4   2
ATOM      1  C   UNL     1      -7.145   0.000   0.000  0.00  0.00    +0.002 C 
ATOM      2  C   UNL     1      -6.430  -0.412   0.000  0.00  0.00    +0.027 C 
ATOM      3  C   UNL     1      -6.430  -1.238   0.000  0.00  0.00    +0.002 C 
ENDBRANCH   4   2
ENDBRANCH   6   4
ENDBRANCH   9   8
BRANCH  11  17
ATOM     17  C   UNL     1      -1.429   0.000   0.000  0.00  0.00    +0.261 C 
ATOM     18  O   UNL     1      -0.715  -0.412   0.000  0.00  0.00    -0.269 OA
ATOM     19  N   UNL     1      -1.429   0.825   0.000  0.00  0.00    -0.194 NA
BRANCH  19  20
ATOM     20  C   UNL     1      -0.715   1.238   0.000  0.00  0.00    +0.176 C 
BRANCH  20  27
ATOM     27  C   UNL     1       0.000   0.825   0.000  0.00  0.00    +0.281 C 
ATOM     28  N   UNL     1       0.715   1.238   0.000  0.00  0.00    -0.086 NA
ATOM     29  O   UNL     1       0.000   0.000   0.000  0.00  0.00    -0.270 OA
ENDBRANCH  20  27
BRANCH  20  21
ATOM     21  C   UNL     1      -0.715   2.062   0.000  0.00  0.00    +0.056 C 
BRANCH  21  22
ATOM     22  C   UNL     1       0.000   2.475   0.000  0.00  0.00    +0.153 C 
BRANCH  22  23
ATOM     23  S   UNL     1       0.000   3.300   0.000  0.00  0.00    -0.008 S 
ATOM     24  C   UNL     1       0.000   4.125   0.000  0.00  0.00    +0.176 C 
ATOM     25  O   UNL     1       0.825   3.300   0.000  0.00  0.00    -0.173 OA
ATOM     26  O   UNL     1      -0.825   3.300   0.000  0.00  0.00    -0.173 OA
ENDBRANCH  22  23
ENDBRANCH  21  22
ENDBRANCH  20  21
ENDBRANCH  19  20
ENDBRANCH  11  17
TORSDOF 9
