MODEL 1
REMARK VINA RESULT:     -12.5      0.000      0.000
REMARK  Name = 
REMARK  5 active torsions:
REMARK  status: ('A' for Active; 'I' for Inactive)
REMARK    1  A    between atoms: C_2  and  C_4
REMARK    2  A    between atoms: C_7  and  N_10
REMARK    3  A    between atoms: C_14  and  C_15
REMARK    4  A    between atoms: C_17  and  N_18
REMARK    5  A    between atoms: N_21  and  C_22
REMARK                            x       y       z     vdW  Elec       q    Type
REMARK                         _______ _______ _______ _____ _____    ______ ____
ROOT
ATOM     10  N   UNL     1      -4.573   0.101  24.911  0.00  0.00    -0.234 N 
ATOM     11  N   UNL     1      -5.363   0.245  25.101  0.00  0.00    -0.170 NA
ATOM     12  C   UNL     1      -5.460   1.061  25.184  0.00  0.00    +0.077 A 
ATOM     13  C   UNL     1      -6.164   1.449  25.373  0.00  0.00    +0.054 C 
ATOM     14  C   UNL     1      -4.730   1.420  25.047  0.00  0.00    +0.010 A 
ATOM     30  C   UNL     1      -4.182   0.827  24.878  0.00  0.00    +0.058 A 
ATOM     31  C   UNL     1      -3.384   0.941  24.707  0.00  0.00    +0.052 C 
ENDROOT
BRANCH  10   7
ATOM      4  C   UNL     1      -3.555  -2.119  24.513  0.00  0.00    -0.022 A 
ATOM      5  C   UNL     1      -3.963  -1.738  23.907  0.00  0.00    -0.003 A 
ATOM      6  C   UNL     1      -4.303  -0.998  24.039  0.00  0.00    +0.019 A 
ATOM      7  C   UNL     1      -4.234  -0.638  24.779  0.00  0.00    +0.082 A 
ATOM      8  C   UNL     1      -3.825  -1.020  25.386  0.00  0.00    +0.019 A 
ATOM      9  C   UNL     1      -3.486  -1.760  25.253  0.00  0.00    -0.003 A 
BRANCH   4   2
ATOM      1  C   UNL     1      -3.697  -3.526  24.304  0.00  0.00    +0.005 C 
ATOM      2  C   UNL     1      -3.216  -2.860  24.380  0.00  0.00    +0.022 C 
ATOM      3  C   UNL     1      -2.396  -2.933  24.324  0.00  0.00    +0.005 C 
ENDBRANCH   4   2
ENDBRANCH  10   7
BRANCH  14  15
ATOM     15  C   UNL     1      -4.576   2.231  25.074  0.00  0.00    +0.048 C 
ATOM     16  C   UNL     1      -3.974   2.595  25.502  0.00  0.00    +0.035 C 
ATOM     17  C   UNL     1      -4.023   3.408  25.370  0.00  0.00    +0.119 C 
ATOM     28  C   UNL     1      -4.657   3.545  24.859  0.00  0.00    -0.009 C 
ATOM     29  C   UNL     1      -4.998   2.818  24.676  0.00  0.00    -0.025 C 
BRANCH  17  18
ATOM     18  N   UNL     1      -3.526   3.983  25.691  0.00  0.00    -0.184 NA
ATOM     19  C   UNL     1      -2.808   4.161  25.324  0.00  0.00    +0.344 C 
ATOM     20  O   UNL     1      -2.588   3.763  24.635  0.00  0.00    -0.249 OA
ATOM     21  N   UNL     1      -2.312   4.735  25.645  0.00  0.00    -0.161 NA
BRANCH  21  22
ATOM     22  C   UNL     1      -1.595   4.913  25.279  0.00  0.00    +0.075 A 
ATOM     23  C   UNL     1      -0.990   4.352  25.261  0.00  0.00    +0.017 A 
ATOM     24  C   UNL     1      -0.272   4.531  24.894  0.00  0.00    +0.001 A 
ATOM     25  C   UNL     1      -0.161   5.270  24.545  0.00  0.00    +0.000 A 
ATOM     26  C   UNL     1      -0.766   5.830  24.562  0.00  0.00    +0.001 A 
ATOM     27  C   UNL     1      -1.483   5.652  24.929  0.00  0.00    +0.017 A 
ENDBRANCH  21  22
ENDBRANCH  17  18
ENDBRANCH  14  15
TORSDOF 5
ENDMDL
MODEL 2
REMARK VINA RESULT:     -11.2      3.953      5.374
REMARK  Name = 
REMARK  5 active torsions:
REMARK  status: ('A' for Active; 'I' for Inactive)
REMARK    1  A    between atoms: C_2  and  C_4
REMARK    2  A    between atoms: C_7  and  N_10
REMARK    3  A    between atoms: C_14  and  C_15
REMARK    4  A    between atoms: C_17  and  N_18
REMARK    5  A    between atoms: N_21  and  C_22
REMARK                            x       y       z     vdW  Elec       q    Type
REMARK                         _______ _______ _______ _____ _____    ______ ____
ROOT
ATOM     10  N   UNL     1      -2.387   1.457  24.889  0.00  0.00    -0.234 N 
ATOM     11  N   UNL     1      -1.794   1.805  25.345  0.00  0.00    -0.170 NA
ATOM     12  C   UNL     1      -1.074   1.461  25.134  0.00  0.00    +0.077 A 
ATOM     13  C   UNL     1      -0.336   1.646  25.454  0.00  0.00    +0.054 C 
ATOM     14  C   UNL     1      -1.222   0.900  24.547  0.00  0.00    +0.010 A 
ATOM     30  C   UNL     1      -2.033   0.898  24.395  0.00  0.00    +0.058 A 
ATOM     31  C   UNL     1      -2.421   0.420  23.847  0.00  0.00    +0.052 C 
ENDROOT
BRANCH  10   7
ATOM      4  C   UNL     1      -4.800   1.994  24.983  0.00  0.00    -0.022 A 
ATOM      5  C   UNL     1      -4.268   2.541  24.671  0.00  0.00    -0.003 A 
ATOM      6  C   UNL     1      -3.463   2.362  24.640  0.00  0.00    +0.019 A 
ATOM      7  C   UNL     1      -3.190   1.636  24.920  0.00  0.00    +0.082 A 
ATOM      8  C   UNL     1      -3.723   1.088  25.233  0.00  0.00    +0.019 A 
ATOM      9  C   UNL     1      -4.528   1.267  25.264  0.00  0.00    -0.003 A 
BRANCH   4   2
ATOM      1  C   UNL     1      -5.861   2.856  25.400  0.00  0.00    +0.005 C 
ATOM      2  C   UNL     1      -5.606   2.173  25.014  0.00  0.00    +0.022 C 
ATOM      3  C   UNL     1      -6.154   1.669  24.660  0.00  0.00    +0.005 C 
ENDBRANCH   4   2
ENDBRANCH  10   7
BRANCH  14  15
ATOM     15  C   UNL     1      -0.657   0.426  24.177  0.00  0.00    +0.048 C 
ATOM     16  C   UNL     1      -0.145   0.662  23.575  0.00  0.00    +0.035 C 
ATOM     17  C   UNL     1       0.323   0.015  23.370  0.00  0.00    +0.119 C 
ATOM     28  C   UNL     1       0.099  -0.622  23.845  0.00  0.00    -0.009 C 
ATOM     29  C   UNL     1      -0.506  -0.368  24.343  0.00  0.00    -0.025 C 
BRANCH  17  18
ATOM     18  N   UNL     1       0.911   0.005  22.792  0.00  0.00    -0.184 NA
ATOM     19  C   UNL     1       1.701   0.123  23.003  0.00  0.00    +0.344 C 
ATOM     20  O   UNL     1       1.900   0.251  23.793  0.00  0.00    -0.249 OA
ATOM     21  N   UNL     1       2.288   0.113  22.425  0.00  0.00    -0.161 NA
BRANCH  21  22
ATOM     22  C   UNL     1       3.077   0.231  22.636  0.00  0.00    +0.075 A 
ATOM     23  C   UNL     1       3.523  -0.396  22.934  0.00  0.00    +0.017 A 
ATOM     24  C   UNL     1       4.312  -0.277  23.145  0.00  0.00    +0.001 A 
ATOM     25  C   UNL     1       4.654   0.468  23.057  0.00  0.00    +0.000 A 
ATOM     26  C   UNL     1       4.208   1.095  22.760  0.00  0.00    +0.001 A 
ATOM     27  C   UNL     1       3.419   0.977  22.549  0.00  0.00    +0.017 A 
ENDBRANCH  21  22
ENDBRANCH  17  18
ENDBRANCH  14  15
TORSDOF 5
ENDMDL
MODEL 3
REMARK VINA RESULT:     -10.6      1.161      5.827
REMARK  Name = 
REMARK  5 active torsions:
REMARK  status: ('A' for Active; 'I' for Inactive)
REMARK    1  A    between atoms: C_2  and  C_4
REMARK    2  A    between atoms: C_7  and  N_10
REMARK    3  A    between atoms: C_14  and  C_15
REMARK    4  A    between atoms: C_17  and  N_18
REMARK    5  A    between atoms: N_21  and  C_22
REMARK                            x       y       z     vdW  Elec       q    Type
REMARK                         _______ _______ _______ _____ _____    ______ ____
ROOT
ATOM     10  N   UNL     1      -3.609   3.359  25.242  0.00  0.00    -0.234 N 
ATOM     11  N   UNL     1      -4.354   3.543  25.544  0.00  0.00    -0.170 NA
ATOM     12  C   UNL     1      -4.812   2.856  25.532  0.00  0.00    +0.077 A 
ATOM     13  C   UNL     1      -5.595   2.790  25.785  0.00  0.00    +0.054 C 
ATOM     14  C   UNL     1      -4.349   2.247  25.222  0.00  0.00    +0.010 A 
ATOM     30  C   UNL     1      -3.606   2.558  25.043  0.00  0.00    +0.058 A 
ATOM     31  C   UNL     1      -2.972   2.141  24.721  0.00  0.00    +0.052 C 
ENDROOT
BRANCH  10   7
ATOM      4  C   UNL     1      -1.717   4.931  24.979  0.00  0.00    -0.022 A 
ATOM      5  C   UNL     1      -1.854   4.570  25.707  0.00  0.00    -0.003 A 
ATOM      6  C   UNL     1      -2.485   4.045  25.795  0.00  0.00    +0.019 A 
ATOM      7  C   UNL     1      -2.979   3.882  25.154  0.00  0.00    +0.082 A 
ATOM      8  C   UNL     1      -2.841   4.244  24.425  0.00  0.00    +0.019 A 
ATOM      9  C   UNL     1      -2.210   4.768  24.337  0.00  0.00    -0.003 A 
BRANCH   4   2
ATOM      1  C   UNL     1      -0.324   5.165  24.756  0.00  0.00    +0.005 C 
ATOM      2  C   UNL     1      -1.085   5.455  24.891  0.00  0.00    +0.022 C 
ATOM      3  C   UNL     1      -1.215   6.268  24.938  0.00  0.00    +0.005 C 
ENDBRANCH   4   2
ENDBRANCH  10   7
BRANCH  14  15
ATOM     15  C   UNL     1      -4.588   1.465  25.111  0.00  0.00    +0.048 C 
ATOM     16  C   UNL     1      -4.254   0.801  25.467  0.00  0.00    +0.035 C 
ATOM     17  C   UNL     1      -4.662   0.136  25.201  0.00  0.00    +0.119 C 
ATOM     28  C   UNL     1      -5.250   0.390  24.680  0.00  0.00    -0.009 C 
ATOM     29  C   UNL     1      -5.204   1.211  24.625  0.00  0.00    -0.025 C 
BRANCH  17  18
ATOM     18  N   UNL     1      -4.510  -0.646  25.417  0.00  0.00    -0.184 NA
ATOM     19  C   UNL     1      -3.938  -1.082  25.012  0.00  0.00    +0.344 C 
ATOM     20  O   UNL     1      -3.518  -0.736  24.392  0.00  0.00    -0.249 OA
ATOM     21  N   UNL     1      -3.786  -1.863  25.228  0.00  0.00    -0.161 NA
BRANCH  21  22
ATOM     22  C   UNL     1      -3.215  -2.299  24.824  0.00  0.00    +0.075 A 
ATOM     23  C   UNL     1      -2.413  -2.152  24.955  0.00  0.00    +0.017 A 
ATOM     24  C   UNL     1      -1.841  -2.589  24.551  0.00  0.00    +0.001 A 
ATOM     25  C   UNL     1      -2.072  -3.173  24.016  0.00  0.00    +0.000 A 
ATOM     26  C   UNL     1      -2.873  -3.321  23.885  0.00  0.00    +0.001 A 
ATOM     27  C   UNL     1      -3.445  -2.884  24.289  0.00  0.00    +0.017 A 
ENDBRANCH  21  22
ENDBRANCH  17  18
ENDBRANCH  14  15
TORSDOF 5
ENDMDL
MODEL 4
REMARK VINA RESULT:     -10.2      4.076      5.705
REMARK  Name = 
REMARK  5 active torsions:
REMARK  status: ('A' for Active; 'I' for Inactive)
REMARK    1  A    between atoms: C_2  and  C_4
REMARK    2  A    between atoms: C_7  and  N_10
REMARK    3  A    between atoms: C_14  and  C_15
REMARK    4  A    between atoms: C_17  and  N_18
REMARK    5  A    between atoms: N_21  and  C_22
REMARK                            x       y       z     vdW  Elec       q    Type
REMARK                         _______ _______ _______ _____ _____    ______ ____
ROOT
ATOM     10  N   UNL     1      -2.047   1.253  24.906  0.00  0.00    -0.234 N 
ATOM     11  N   UNL     1      -1.795   0.808  25.553  0.00  0.00    -0.170 NA
ATOM     12  C   UNL     1      -1.185   0.313  25.301  0.00  0.00    +0.077 A 
ATOM     13  C   UNL     1      -0.772  -0.226  25.770  0.00  0.00    +0.054 C 
ATOM     14  C   UNL     1      -1.059   0.453  24.498  0.00  0.00    +0.010 A 
ATOM     30  C   UNL     1      -1.592   1.033  24.254  0.00  0.00    +0.058 A 
ATOM     31  C   UNL     1      -1.658   1.340  23.491  0.00  0.00    +0.052 C 
ENDROOT
BRANCH  10   7
ATOM      4  C   UNL     1      -3.850   2.947  24.918  0.00  0.00    -0.022 A 
ATOM      5  C   UNL     1      -3.080   3.163  25.117  0.00  0.00    -0.003 A 
ATOM      6  C   UNL     1      -2.479   2.598  25.113  0.00  0.00    +0.019 A 
ATOM      7  C   UNL     1      -2.648   1.817  24.910  0.00  0.00    +0.082 A 
ATOM      8  C   UNL     1      -3.419   1.601  24.711  0.00  0.00    +0.019 A 
ATOM      9  C   UNL     1      -4.020   2.166  24.715  0.00  0.00    -0.003 A 
BRANCH   4   2
ATOM      1  C   UNL     1      -5.055   3.469  25.484  0.00  0.00    +0.005 C 
ATOM      2  C   UNL     1      -4.452   3.513  24.922  0.00  0.00    +0.022 C 
ATOM      3  C   UNL     1      -4.450   4.121  24.365  0.00  0.00    +0.005 C 
ENDBRANCH   4   2
ENDBRANCH  10   7
BRANCH  14  15
ATOM     15  C   UNL     1      -0.498   0.077  24.023  0.00  0.00    +0.048 C 
ATOM     16  C   UNL     1       0.060   0.451  23.545  0.00  0.00    +0.035 C 
ATOM     17  C   UNL     1       0.505  -0.133  23.169  0.00  0.00    +0.119 C 
ATOM     28  C   UNL     1       0.222  -0.868  23.415  0.00  0.00    -0.009 C 
ATOM     29  C   UNL     1      -0.398  -0.738  23.942  0.00  0.00    -0.025 C 
BRANCH  17  18
ATOM     18  N   UNL     1       1.125  -0.005  22.640  0.00  0.00    -0.184 NA
ATOM     19  C   UNL     1       1.898   0.072  22.920  0.00  0.00    +0.344 C 
ATOM     20  O   UNL     1       2.050   0.020  23.729  0.00  0.00    -0.249 OA
ATOM     21  N   UNL     1       2.518   0.199  22.392  0.00  0.00    -0.161 NA
BRANCH  21  22
ATOM     22  C   UNL     1       3.290   0.276  22.672  0.00  0.00    +0.075 A 
ATOM     23  C   UNL     1       3.658   1.015  22.671  0.00  0.00    +0.017 A 
ATOM     24  C   UNL     1       4.431   1.091  22.951  0.00  0.00    +0.001 A 
ATOM     25  C   UNL     1       4.835   0.428  23.231  0.00  0.00    +0.000 A 
ATOM     26  C   UNL     1       4.467  -0.310  23.231  0.00  0.00    +0.001 A 
ATOM     27  C   UNL     1       3.694  -0.387  22.952  0.00  0.00    +0.017 A 
ENDBRANCH  21  22
ENDBRANCH  17  18
ENDBRANCH  14  15
TORSDOF 5
ENDMDL
MODEL 5
REMARK VINA RESULT:     -10.0      2.910      4.861
REMARK  Name = 
REMARK  5 active torsions:
REMARK  status: ('A' for Active; 'I' for Inactive)
REMARK    1  A    between atoms: C_2  and  C_4
REMARK    2  A    between atoms: C_7  and  N_10
REMARK    3  A    between atoms: C_14  and  C_15
REMARK    4  A    between atoms: C_17  and  N_18
REMARK    5  A    between atoms: N_21  and  C_22
REMARK                            x       y       z     vdW  Elec       q    Type
REMARK                         _______ _______ _______ _____ _____    ______ ____
ROOT
ATOM     10  N   UNL     1       0.202   1.824  24.576  0.00  0.00    -0.234 N 
ATOM     11  N   UNL     1       0.314   1.862  25.392  0.00  0.00    -0.170 NA
ATOM     12  C   UNL     1      -0.223   2.410  25.698  0.00  0.00    +0.077 A 
ATOM     13  C   UNL     1      -0.302   2.621  26.492  0.00  0.00    +0.054 C 
ATOM     14  C   UNL     1      -0.667   2.710  25.070  0.00  0.00    +0.010 A 
ATOM     30  C   UNL     1      -0.404   2.348  24.376  0.00  0.00    +0.058 A 
ATOM     31  C   UNL     1      -0.697   2.486  23.618  0.00  0.00    +0.052 C 
ENDROOT
BRANCH  10   7
ATOM      4  C   UNL     1       1.460   0.390  23.000  0.00  0.00    -0.022 A 
ATOM      5  C   UNL     1       0.725   0.147  23.282  0.00  0.00    -0.003 A 
ATOM      6  C   UNL     1       0.305   0.625  23.807  0.00  0.00    +0.019 A 
ATOM      7  C   UNL     1       0.621   1.347  24.051  0.00  0.00    +0.082 A 
ATOM      8  C   UNL     1       1.358   1.590  23.769  0.00  0.00    +0.019 A 
ATOM      9  C   UNL     1       1.777   1.112  23.244  0.00  0.00    -0.003 A 
BRANCH   4   2
ATOM      1  C   UNL     1       1.490  -0.450  21.844  0.00  0.00    +0.005 C 
ATOM      2  C   UNL     1       1.881  -0.088  22.475  0.00  0.00    +0.022 C 
ATOM      3  C   UNL     1       2.690  -0.204  22.580  0.00  0.00    +0.005 C 
ENDBRANCH   4   2
ENDBRANCH  10   7
BRANCH  14  15
ATOM     15  C   UNL     1      -1.267   3.273  25.127  0.00  0.00    +0.048 C 
ATOM     16  C   UNL     1      -2.063   3.153  24.947  0.00  0.00    +0.035 C 
ATOM     17  C   UNL     1      -2.464   3.861  25.082  0.00  0.00    +0.119 C 
ATOM     28  C   UNL     1      -1.916   4.419  25.345  0.00  0.00    -0.009 C 
ATOM     29  C   UNL     1      -1.177   4.055  25.373  0.00  0.00    -0.025 C 
BRANCH  17  18
ATOM     18  N   UNL     1      -3.272   3.989  24.973  0.00  0.00    -0.184 NA
ATOM     19  C   UNL     1      -3.814   3.396  25.165  0.00  0.00    +0.344 C 
ATOM     20  O   UNL     1      -3.547   2.676  25.467  0.00  0.00    -0.249 OA
ATOM     21  N   UNL     1      -4.621   3.524  25.056  0.00  0.00    -0.161 NA
BRANCH  21  22
ATOM     22  C   UNL     1      -5.162   2.932  25.249  0.00  0.00    +0.075 A 
ATOM     23  C   UNL     1      -5.500   2.910  26.001  0.00  0.00    +0.017 A 
ATOM     24  C   UNL     1      -6.042   2.317  26.193  0.00  0.00    +0.001 A 
ATOM     25  C   UNL     1      -6.245   1.748  25.632  0.00  0.00    +0.000 A 
ATOM     26  C   UNL     1      -5.908   1.770  24.880  0.00  0.00    +0.001 A 
ATOM     27  C   UNL     1      -5.366   2.362  24.687  0.00  0.00    +0.017 A 
ENDBRANCH  21  22
ENDBRANCH  17  18
ENDBRANCH  14  15
TORSDOF 5
ENDMDL
MODEL 6
REMARK VINA RESULT:      -9.2      3.335      5.065
REMARK  Name = 
REMARK  5 active torsions:
REMARK  status: ('A' for Active; 'I' for Inactive)
REMARK    1  A    between atoms: C_2  and  C_4
REMARK    2  A    between atoms: C_7  and  N_10
REMARK    3  A    between atoms: C_14  and  C_15
REMARK    4  A    between atoms: C_17  and  N_18
REMARK    5  A    between atoms: N_21  and  C_22
REMARK                            x       y       z     vdW  Elec       q    Type
REMARK                         _______ _______ _______ _____ _____    ______ ____
ROOT
ATOM     10  N   UNL     1       0.067  -0.537  23.804  0.00  0.00    -0.234 N 
ATOM     11  N   UNL     1      -0.120  -1.318  23.992  0.00  0.00    -0.170 NA
ATOM     12  C   UNL     1      -0.872  -1.326  24.333  0.00  0.00    +0.077 A 
ATOM     13  C   UNL     1      -1.275  -1.993  24.604  0.00  0.00    +0.054 C 
ATOM     14  C   UNL     1      -1.149  -0.549  24.356  0.00  0.00    +0.010 A 
ATOM     30  C   UNL     1      -0.569  -0.061  24.029  0.00  0.00    +0.058 A 
ATOM     31  C   UNL     1      -0.617   0.757  23.943  0.00  0.00    +0.052 C 
ENDROOT
BRANCH  10   7
ATOM      4  C   UNL     1       2.165   0.244  22.751  0.00  0.00    -0.022 A 
ATOM      5  C   UNL     1       1.659  -0.259  22.338  0.00  0.00    -0.003 A 
ATOM      6  C   UNL     1       0.959  -0.520  22.689  0.00  0.00    +0.019 A 
ATOM      7  C   UNL     1       0.765  -0.277  23.453  0.00  0.00    +0.082 A 
ATOM      8  C   UNL     1       1.272   0.228  23.866  0.00  0.00    +0.019 A 
ATOM      9  C   UNL     1       1.972   0.488  23.515  0.00  0.00    -0.003 A 
BRANCH   4   2
ATOM      1  C   UNL     1       3.108   0.185  21.678  0.00  0.00    +0.005 C 
ATOM      2  C   UNL     1       2.865   0.505  22.399  0.00  0.00    +0.022 C 
ATOM      3  C   UNL     1       3.321   1.085  22.768  0.00  0.00    +0.005 C 
ENDBRANCH   4   2
ENDBRANCH  10   7
BRANCH  14  15
ATOM     15  C   UNL     1      -1.879  -0.303  24.654  0.00  0.00    +0.048 C 
ATOM     16  C   UNL     1      -2.498   0.019  24.215  0.00  0.00    +0.035 C 
ATOM     17  C   UNL     1      -3.118   0.184  24.733  0.00  0.00    +0.119 C 
ATOM     28  C   UNL     1      -2.882  -0.036  25.493  0.00  0.00    -0.009 C 
ATOM     29  C   UNL     1      -2.116  -0.337  25.444  0.00  0.00    -0.025 C 
BRANCH  17  18
ATOM     18  N   UNL     1      -3.847   0.512  24.528  0.00  0.00    -0.184 NA
ATOM     19  C   UNL     1      -4.066   1.251  24.825  0.00  0.00    +0.344 C 
ATOM     20  O   UNL     1      -3.555   1.661  25.327  0.00  0.00    -0.249 OA
ATOM     21  N   UNL     1      -4.794   1.578  24.620  0.00  0.00    -0.161 NA
BRANCH  21  22
ATOM     22  C   UNL     1      -5.012   2.316  24.916  0.00  0.00    +0.075 A 
ATOM     23  C   UNL     1      -5.590   2.371  25.504  0.00  0.00    +0.017 A 
ATOM     24  C   UNL     1      -5.808   3.110  25.800  0.00  0.00    +0.001 A 
ATOM     25  C   UNL     1      -5.450   3.793  25.508  0.00  0.00    +0.000 A 
ATOM     26  C   UNL     1      -4.873   3.738  24.921  0.00  0.00    +0.001 A 
ATOM     27  C   UNL     1      -4.654   3.000  24.625  0.00  0.00    +0.017 A 
ENDBRANCH  21  22
ENDBRANCH  17  18
ENDBRANCH  14  15
TORSDOF 5
ENDMDL
