MODEL 1
REMARK VINA RESULT:     -10.3      0.000      0.000
REMARK  Name = 
REMARK  7 active torsions:
REMARK  status: ('A' for Active; 'I' for Inactive)
REMARK    1  A    between atoms: C_3  and  N_17
REMARK    2  A    between atoms: C_6  and  C_7
REMARK    3  A    between atoms: C_7  and  N_8
REMARK    4  A    between atoms: C_9  and  C_11
REMARK    5  A    between atoms: N_17  and  C_18
REMARK    6  A    between atoms: C_18  and  C_19
REMARK    7  A    between atoms: C_23  and  C_25
REMARK                            x       y       z     vdW  Elec       q    Type
REMARK                         _______ _______ _______ _____ _____    ______ ____
ROOT
ATOM      1  O   UNL     1      -3.979   1.220  25.712  0.00  0.00    -0.219 OA
ATOM      2  C   UNL     1      -3.879   1.385  24.910  0.00  0.00    +0.199 C 
ATOM      3  C   UNL     1      -3.950   0.845  24.291  0.00  0.00    +0.135 C 
ATOM      4  C   UNL     1      -3.805   1.245  23.585  0.00  0.00    +0.162 C 
ATOM      5  O   UNL     1      -3.643   2.032  23.767  0.00  0.00    -0.350 OA
ATOM      6  C   UNL     1      -3.689   2.119  24.586  0.00  0.00    +0.169 C 
ENDROOT
BRANCH   6   7
ATOM      7  C   UNL     1      -3.566   2.818  25.008  0.00  0.00    +0.148 C 
BRANCH   7   8
ATOM      8  N   UNL     1      -2.892   3.272  24.866  0.00  0.00    -0.199 NA
ATOM      9  C   UNL     1      -2.706   3.901  25.366  0.00  0.00    +0.265 C 
ATOM     10  O   UNL     1      -3.194   4.076  26.007  0.00  0.00    -0.268 OA
BRANCH   9  11
ATOM     11  C   UNL     1      -2.032   4.356  25.224  0.00  0.00    +0.055 A 
ATOM     12  C   UNL     1      -1.296   3.989  25.149  0.00  0.00    +0.005 A 
ATOM     13  C   UNL     1      -0.622   4.443  25.007  0.00  0.00    +0.000 A 
ATOM     14  C   UNL     1      -0.684   5.264  24.941  0.00  0.00    +0.000 A 
ATOM     15  C   UNL     1      -1.419   5.630  25.016  0.00  0.00    +0.000 A 
ATOM     16  C   UNL     1      -2.093   5.175  25.158  0.00  0.00    +0.005 A 
ENDBRANCH   9  11
ENDBRANCH   7   8
ENDBRANCH   6   7
BRANCH   3  17
ATOM     17  N   UNL     1      -4.136   0.044  24.365  0.00  0.00    -0.209 NA
BRANCH  17  18
ATOM     18  C   UNL     1      -3.907  -0.489  23.778  0.00  0.00    +0.115 C 
BRANCH  18  19
ATOM     19  C   UNL     1      -3.756  -1.277  23.972  0.00  0.00    -0.004 A 
ATOM     20  C   UNL     1      -4.361  -1.836  23.924  0.00  0.00    -0.003 A 
ATOM     21  C   UNL     1      -4.211  -2.624  24.118  0.00  0.00    +0.000 A 
ATOM     22  C   UNL     1      -3.456  -2.852  24.358  0.00  0.00    +0.010 A 
ATOM     23  C   UNL     1      -2.851  -2.293  24.406  0.00  0.00    +0.068 A 
ATOM     24  C   UNL     1      -3.001  -1.506  24.213  0.00  0.00    +0.007 A 
BRANCH  23  25
ATOM     25  C   UNL     1      -2.096  -2.523  24.647  0.00  0.00    +0.100 C 
ATOM     26  N   UNL     1      -1.341  -2.752  24.888  0.00  0.00    -0.191 NA
ENDBRANCH  23  25
ENDBRANCH  18  19
ENDBRANCH  17  18
ENDBRANCH   3  17
TORSDOF 7
ENDMDL
MODEL 2
REMARK VINA RESULT:     -10.2      2.038      6.141
REMARK  Name = 
REMARK  7 active torsions:
REMARK  status: ('A' for Active; 'I' for Inactive)
REMARK    1  A    between atoms: C_3  and  N_17
REMARK    2  A    between atoms: C_6  and  C_7
REMARK    3  A    between atoms: C_7  and  N_8
REMARK    4  A    between atoms: C_9  and  C_11
REMARK    5  A    between atoms: N_17  and  C_18
REMARK    6  A    between atoms: C_18  and  C_19
REMARK    7  A    between atoms: C_23  and  C_25
REMARK                            x       y       z     vdW  Elec       q    Type
REMARK                         _______ _______ _______ _____ _____    ______ ____
ROOT
ATOM      1  O   UNL     1      -0.731   0.965  25.844  0.00  0.00    -0.219 OA
ATOM      2  C   UNL     1      -0.595   0.949  25.030  0.00  0.00    +0.199 C 
ATOM      3  C   UNL     1      -0.455   1.604  24.549  0.00  0.00    +0.135 C 
ATOM      4  C   UNL     1      -0.350   1.335  23.777  0.00  0.00    +0.162 C 
ATOM      5  O   UNL     1      -0.424   0.514  23.781  0.00  0.00    -0.350 OA
ATOM      6  C   UNL     1      -0.576   0.276  24.555  0.00  0.00    +0.169 C 
ENDROOT
BRANCH   6   7
ATOM      7  C   UNL     1      -0.688  -0.501  24.810  0.00  0.00    +0.148 C 
BRANCH   7   8
ATOM      8  N   UNL     1      -1.414  -0.874  24.688  0.00  0.00    -0.199 NA
ATOM      9  C   UNL     1      -1.510  -1.668  24.895  0.00  0.00    +0.265 C 
ATOM     10  O   UNL     1      -0.880  -2.087  25.223  0.00  0.00    -0.268 OA
BRANCH   9  11
ATOM     11  C   UNL     1      -2.236  -2.041  24.772  0.00  0.00    +0.055 A 
ATOM     12  C   UNL     1      -2.905  -1.784  25.180  0.00  0.00    +0.005 A 
ATOM     13  C   UNL     1      -3.631  -2.157  25.058  0.00  0.00    +0.000 A 
ATOM     14  C   UNL     1      -3.686  -2.787  24.528  0.00  0.00    +0.000 A 
ATOM     15  C   UNL     1      -3.017  -3.044  24.120  0.00  0.00    +0.000 A 
ATOM     16  C   UNL     1      -2.291  -2.670  24.242  0.00  0.00    +0.005 A 
ENDBRANCH   9  11
ENDBRANCH   7   8
ENDBRANCH   6   7
BRANCH   3  17
ATOM     17  N   UNL     1      -0.426   2.391  24.797  0.00  0.00    -0.209 NA
BRANCH  17  18
ATOM     18  C   UNL     1      -0.746   2.985  24.322  0.00  0.00    +0.115 C 
BRANCH  18  19
ATOM     19  C   UNL     1      -1.023   3.683  24.665  0.00  0.00    -0.004 A 
ATOM     20  C   UNL     1      -0.595   4.383  24.578  0.00  0.00    -0.003 A 
ATOM     21  C   UNL     1      -0.872   5.080  24.921  0.00  0.00    +0.000 A 
ATOM     22  C   UNL     1      -1.576   5.078  25.351  0.00  0.00    +0.010 A 
ATOM     23  C   UNL     1      -2.004   4.377  25.437  0.00  0.00    +0.068 A 
ATOM     24  C   UNL     1      -1.727   3.680  25.095  0.00  0.00    +0.007 A 
BRANCH  23  25
ATOM     25  C   UNL     1      -2.708   4.375  25.867  0.00  0.00    +0.100 C 
ATOM     26  N   UNL     1      -3.412   4.373  26.297  0.00  0.00    -0.191 NA
ENDBRANCH  23  25
ENDBRANCH  18  19
ENDBRANCH  17  18
ENDBRANCH   3  17
TORSDOF 7
ENDMDL
MODEL 3
REMARK VINA RESULT:      -9.7      1.158      5.578
REMARK  Name = 
REMARK  7 active torsions:
REMARK  status: ('A' for Active; 'I' for Inactive)
REMARK    1  A    between atoms: C_3  and  N_17
REMARK    2  A    between atoms: C_6  and  C_7
REMARK    3  A    between atoms: C_7  and  N_8
REMARK    4  A    between atoms: C_9  and  C_11
REMARK    5  A    between atoms: N_17  and  C_18
REMARK    6  A    between atoms: C_18  and  C_19
REMARK    7  A    between atoms: C_23  and  C_25
REMARK                            x       y       z     vdW  Elec       q    Type
REMARK                         _______ _______ _______ _____ _____    ______ ____
ROOT
ATOM      1  O   UNL     1      -3.371   1.703  23.653  0.00  0.00    -0.219 OA
ATOM      2  C   UNL     1      -3.822   1.811  24.335  0.00  0.00    +0.199 C 
ATOM      3  C   UNL     1      -3.810   2.474  24.824  0.00  0.00    +0.135 C 
ATOM      4  C   UNL     1      -4.345   2.348  25.439  0.00  0.00    +0.162 C 
ATOM      5  O   UNL     1      -4.688   1.607  25.329  0.00  0.00    -0.350 OA
ATOM      6  C   UNL     1      -4.365   1.274  24.647  0.00  0.00    +0.169 C 
ENDROOT
BRANCH   6   7
ATOM      7  C   UNL     1      -4.552   0.535  24.333  0.00  0.00    +0.148 C 
BRANCH   7   8
ATOM      8  N   UNL     1      -4.139  -0.135  24.580  0.00  0.00    -0.199 NA
ATOM      9  C   UNL     1      -4.384  -0.885  24.335  0.00  0.00    +0.265 C 
ATOM     10  O   UNL     1      -5.041  -0.963  23.843  0.00  0.00    -0.268 OA
BRANCH   9  11
ATOM     11  C   UNL     1      -3.971  -1.555  24.582  0.00  0.00    +0.055 A 
ATOM     12  C   UNL     1      -3.871  -2.191  24.066  0.00  0.00    +0.005 A 
ATOM     13  C   UNL     1      -3.458  -2.861  24.313  0.00  0.00    +0.000 A 
ATOM     14  C   UNL     1      -3.145  -2.894  25.076  0.00  0.00    +0.000 A 
ATOM     15  C   UNL     1      -3.245  -2.258  25.592  0.00  0.00    +0.000 A 
ATOM     16  C   UNL     1      -3.658  -1.588  25.344  0.00  0.00    +0.005 A 
ENDBRANCH   9  11
ENDBRANCH   7   8
ENDBRANCH   6   7
BRANCH   3  17
ATOM     17  N   UNL     1      -3.344   3.147  24.718  0.00  0.00    -0.209 NA
BRANCH  17  18
ATOM     18  C   UNL     1      -3.014   3.528  25.371  0.00  0.00    +0.115 C 
BRANCH  18  19
ATOM     19  C   UNL     1      -2.253   3.844  25.323  0.00  0.00    -0.004 A 
ATOM     20  C   UNL     1      -2.146   4.628  25.088  0.00  0.00    -0.003 A 
ATOM     21  C   UNL     1      -1.385   4.944  25.041  0.00  0.00    +0.000 A 
ATOM     22  C   UNL     1      -0.732   4.476  25.228  0.00  0.00    +0.010 A 
ATOM     23  C   UNL     1      -0.840   3.693  25.463  0.00  0.00    +0.068 A 
ATOM     24  C   UNL     1      -1.600   3.377  25.511  0.00  0.00    +0.007 A 
BRANCH  23  25
ATOM     25  C   UNL     1      -0.186   3.225  25.651  0.00  0.00    +0.100 C 
ATOM     26  N   UNL     1       0.468   2.758  25.838  0.00  0.00    -0.191 NA
ENDBRANCH  23  25
ENDBRANCH  18  19
ENDBRANCH  17  18
ENDBRANCH   3  17
TORSDOF 7
ENDMDL
MODEL 4
REMARK VINA RESULT:      -9.5      1.909      2.521
REMARK  Name = 
REMARK  7 active torsions:
REMARK  status: ('A' for Active; 'I' for Inactive)
REMARK    1  A    between atoms: C_3  and  N_17
REMARK    2  A    between atoms: C_6  and  C_7
REMARK    3  A    between atoms: C_7  and  N_8
REMARK    4  A    between atoms: C_9  and  C_11
REMARK    5  A    between atoms: N_17  and  C_18
REMARK    6  A    between atoms: C_18  and  C_19
REMARK    7  A    between atoms: C_23  and  C_25
REMARK                            x       y       z     vdW  Elec       q    Type
REMARK                         _______ _______ _______ _____ _____    ______ ____
ROOT
ATOM      1  O   UNL     1      -1.042   0.279  26.158  0.00  0.00    -0.219 OA
ATOM      2  C   UNL     1      -0.787   0.343  25.377  0.00  0.00    +0.199 C 
ATOM      3  C   UNL     1      -0.852  -0.240  24.796  0.00  0.00    +0.135 C 
ATOM      4  C   UNL     1      -0.527   0.057  24.099  0.00  0.00    +0.162 C 
ATOM      5  O   UNL     1      -0.261   0.823  24.248  0.00  0.00    -0.350 OA
ATOM      6  C   UNL     1      -0.421   1.000  25.037  0.00  0.00    +0.169 C 
ENDROOT
BRANCH   6   7
ATOM      7  C   UNL     1      -0.247   1.710  25.421  0.00  0.00    +0.148 C 
BRANCH   7   8
ATOM      8  N   UNL     1      -0.673   2.392  25.239  0.00  0.00    -0.199 NA
ATOM      9  C   UNL     1      -0.498   3.102  25.622  0.00  0.00    +0.265 C 
ATOM     10  O   UNL     1       0.103   3.129  26.186  0.00  0.00    -0.268 OA
BRANCH   9  11
ATOM     11  C   UNL     1      -0.924   3.785  25.440  0.00  0.00    +0.055 A 
ATOM     12  C   UNL     1      -0.569   4.388  25.004  0.00  0.00    +0.005 A 
ATOM     13  C   UNL     1      -0.996   5.071  24.822  0.00  0.00    +0.000 A 
ATOM     14  C   UNL     1      -1.777   5.150  25.076  0.00  0.00    +0.000 A 
ATOM     15  C   UNL     1      -2.132   4.546  25.513  0.00  0.00    +0.000 A 
ATOM     16  C   UNL     1      -1.705   3.863  25.694  0.00  0.00    +0.005 A 
ENDBRANCH   9  11
ENDBRANCH   7   8
ENDBRANCH   6   7
BRANCH   3  17
ATOM     17  N   UNL     1      -1.184  -0.989  24.896  0.00  0.00    -0.209 NA
BRANCH  17  18
ATOM     18  C   UNL     1      -1.473  -1.402  24.244  0.00  0.00    +0.115 C 
BRANCH  18  19
ATOM     19  C   UNL     1      -2.124  -1.903  24.327  0.00  0.00    -0.004 A 
ATOM     20  C   UNL     1      -2.018  -2.675  24.598  0.00  0.00    -0.003 A 
ATOM     21  C   UNL     1      -2.669  -3.175  24.682  0.00  0.00    +0.000 A 
ATOM     22  C   UNL     1      -3.425  -2.903  24.495  0.00  0.00    +0.010 A 
ATOM     23  C   UNL     1      -3.530  -2.131  24.224  0.00  0.00    +0.068 A 
ATOM     24  C   UNL     1      -2.880  -1.631  24.140  0.00  0.00    +0.007 A 
BRANCH  23  25
ATOM     25  C   UNL     1      -4.287  -1.860  24.037  0.00  0.00    +0.100 C 
ATOM     26  N   UNL     1      -5.044  -1.589  23.851  0.00  0.00    -0.191 NA
ENDBRANCH  23  25
ENDBRANCH  18  19
ENDBRANCH  17  18
ENDBRANCH   3  17
TORSDOF 7
ENDMDL
MODEL 5
REMARK VINA RESULT:      -9.0      4.378      5.294
REMARK  Name = 
REMARK  7 active torsions:
REMARK  status: ('A' for Active; 'I' for Inactive)
REMARK    1  A    between atoms: C_3  and  N_17
REMARK    2  A    between atoms: C_6  and  C_7
REMARK    3  A    between atoms: C_7  and  N_8
REMARK    4  A    between atoms: C_9  and  C_11
REMARK    5  A    between atoms: N_17  and  C_18
REMARK    6  A    between atoms: C_18  and  C_19
REMARK    7  A    between atoms: C_23  and  C_25
REMARK                            x       y       z     vdW  Elec       q    Type
REMARK                         _______ _______ _______ _____ _____    ______ ____
ROOT
ATOM      1  O   UNL     1      -0.137  -1.049  23.240  0.00  0.00    -0.219 OA
ATOM      2  C   UNL     1      -0.030  -0.301  23.571  0.00  0.00    +0.199 C 
ATOM      3  C   UNL     1      -0.520   0.057  24.130  0.00  0.00    +0.135 C 
ATOM      4  C   UNL     1      -0.207   0.799  24.305  0.00  0.00    +0.162 C 
ATOM      5  O   UNL     1       0.476   0.901  23.854  0.00  0.00    -0.350 OA
ATOM      6  C   UNL     1       0.585   0.221  23.400  0.00  0.00    +0.169 C 
ENDROOT
BRANCH   6   7
ATOM      7  C   UNL     1       1.202   0.087  22.869  0.00  0.00    +0.148 C 
BRANCH   7   8
ATOM      8  N   UNL     1       1.984   0.182  23.112  0.00  0.00    -0.199 NA
ATOM      9  C   UNL     1       2.598   0.118  22.564  0.00  0.00    +0.265 C 
ATOM     10  O   UNL     1       2.428  -0.040  21.772  0.00  0.00    -0.268 OA
BRANCH   9  11
ATOM     11  C   UNL     1       3.380   0.213  22.807  0.00  0.00    +0.055 A 
ATOM     12  C   UNL     1       3.774  -0.410  23.178  0.00  0.00    +0.005 A 
ATOM     13  C   UNL     1       4.557  -0.315  23.422  0.00  0.00    +0.000 A 
ATOM     14  C   UNL     1       4.945   0.402  23.294  0.00  0.00    +0.000 A 
ATOM     15  C   UNL     1       4.551   1.024  22.923  0.00  0.00    +0.000 A 
ATOM     16  C   UNL     1       3.768   0.929  22.679  0.00  0.00    +0.005 A 
ENDBRANCH   9  11
ENDBRANCH   7   8
ENDBRANCH   6   7
BRANCH   3  17
ATOM     17  N   UNL     1      -1.203  -0.271  24.457  0.00  0.00    -0.209 NA
BRANCH  17  18
ATOM     18  C   UNL     1      -1.679   0.181  24.957  0.00  0.00    +0.115 C 
BRANCH  18  19
ATOM     19  C   UNL     1      -2.445  -0.069  25.134  0.00  0.00    -0.004 A 
ATOM     20  C   UNL     1      -2.567  -0.806  25.484  0.00  0.00    -0.003 A 
ATOM     21  C   UNL     1      -3.334  -1.056  25.661  0.00  0.00    +0.000 A 
ATOM     22  C   UNL     1      -3.977  -0.569  25.489  0.00  0.00    +0.010 A 
ATOM     23  C   UNL     1      -3.854   0.168  25.139  0.00  0.00    +0.068 A 
ATOM     24  C   UNL     1      -3.088   0.418  24.962  0.00  0.00    +0.007 A 
BRANCH  23  25
ATOM     25  C   UNL     1      -4.498   0.655  24.966  0.00  0.00    +0.100 C 
ATOM     26  N   UNL     1      -5.141   1.141  24.794  0.00  0.00    -0.191 NA
ENDBRANCH  23  25
ENDBRANCH  18  19
ENDBRANCH  17  18
ENDBRANCH   3  17
TORSDOF 7
ENDMDL
MODEL 6
REMARK VINA RESULT:      -8.9      4.543      6.174
REMARK  Name = 
REMARK  7 active torsions:
REMARK  status: ('A' for Active; 'I' for Inactive)
REMARK    1  A    between atoms: C_3  and  N_17
REMARK    2  A    between atoms: C_6  and  C_7
REMARK    3  A    between atoms: C_7  and  N_8
REMARK    4  A    between atoms: C_9  and  C_11
REMARK    5  A    between atoms: N_17  and  C_18
REMARK    6  A    between atoms: C_18  and  C_19
REMARK    7  A    between atoms: C_23  and  C_25
REMARK                            x       y       z     vdW  Elec       q    Type
REMARK                         _______ _______ _______ _____ _____    ______ ____
ROOT
ATOM      1  O   UNL     1       0.588   1.569  24.180  0.00  0.00    -0.219 OA
ATOM      2  C   UNL     1       0.482   0.836  23.817  0.00  0.00    +0.199 C 
ATOM      3  C   UNL     1       1.049   0.421  23.386  0.00  0.00    +0.135 C 
ATOM      4  C   UNL     1       0.707  -0.283  23.125  0.00  0.00    +0.162 C 
ATOM      5  O   UNL     1      -0.072  -0.302  23.395  0.00  0.00    -0.350 OA
ATOM      6  C   UNL     1      -0.211   0.388  23.823  0.00  0.00    +0.169 C 
ENDROOT
BRANCH   6   7
ATOM      7  C   UNL     1      -0.920   0.596  24.192  0.00  0.00    +0.148 C 
BRANCH   7   8
ATOM      8  N   UNL     1      -1.524   0.040  24.268  0.00  0.00    -0.199 NA
ATOM      9  C   UNL     1      -2.228   0.244  24.647  0.00  0.00    +0.265 C 
ATOM     10  O   UNL     1      -2.327   1.005  24.949  0.00  0.00    -0.268 OA
BRANCH   9  11
ATOM     11  C   UNL     1      -2.832  -0.312  24.723  0.00  0.00    +0.055 A 
ATOM     12  C   UNL     1      -2.840  -0.827  25.368  0.00  0.00    +0.005 A 
ATOM     13  C   UNL     1      -3.444  -1.384  25.444  0.00  0.00    +0.000 A 
ATOM     14  C   UNL     1      -4.040  -1.426  24.875  0.00  0.00    +0.000 A 
ATOM     15  C   UNL     1      -4.033  -0.911  24.230  0.00  0.00    +0.000 A 
ATOM     16  C   UNL     1      -3.428  -0.354  24.154  0.00  0.00    +0.005 A 
ENDBRANCH   9  11
ENDBRANCH   7   8
ENDBRANCH   6   7
BRANCH   3  17
ATOM     17  N   UNL     1       1.823   0.666  23.241  0.00  0.00    -0.209 NA
BRANCH  17  18
ATOM     18  C   UNL     1       2.357   0.154  22.877  0.00  0.00    +0.115 C 
BRANCH  18  19
ATOM     19  C   UNL     1       3.167   0.315  22.902  0.00  0.00    -0.004 A 
ATOM     20  C   UNL     1       3.470   0.965  22.495  0.00  0.00    -0.003 A 
ATOM     21  C   UNL     1       4.279   1.126  22.519  0.00  0.00    +0.000 A 
ATOM     22  C   UNL     1       4.784   0.637  22.951  0.00  0.00    +0.010 A 
ATOM     23  C   UNL     1       4.480  -0.013  23.358  0.00  0.00    +0.068 A 
ATOM     24  C   UNL     1       3.671  -0.174  23.334  0.00  0.00    +0.007 A 
BRANCH  23  25
ATOM     25  C   UNL     1       4.986  -0.502  23.790  0.00  0.00    +0.100 C 
ATOM     26  N   UNL     1       5.492  -0.990  24.222  0.00  0.00    -0.191 NA
ENDBRANCH  23  25
ENDBRANCH  18  19
ENDBRANCH  17  18
ENDBRANCH   3  17
TORSDOF 7
ENDMDL
MODEL 7
REMARK VINA RESULT:      -8.4      3.427      4.494
REMARK  Name = 
REMARK  7 active torsions:
REMARK  status: ('A' for Active; 'I' for Inactive)
REMARK    1  A    between atoms: C_3  and  N_17
REMARK    2  A    between atoms: C_6  and  C_7
REMARK    3  A    between atoms: C_7  and  N_8
REMARK    4  A    between atoms: C_9  and  C_11
REMARK    5  A    between atoms: N_17  and  C_18
REMARK    6  A    between atoms: C_18  and  C_19
REMARK    7  A    between atoms: C_23  and  C_25
REMARK                            x       y       z     vdW  Elec       q    Type
REMARK                         _______ _______ _______ _____ _____    ______ ____
ROOT
ATOM      1  O   UNL     1      -1.668   2.060  22.903  0.00  0.00    -0.219 OA
ATOM      2  C   UNL     1      -1.537   1.837  23.687  0.00  0.00    +0.199 C 
ATOM      3  C   UNL     1      -0.941   1.333  23.953  0.00  0.00    +0.135 C 
ATOM      4  C   UNL     1      -1.014   1.262  24.772  0.00  0.00    +0.162 C 
ATOM      5  O   UNL     1      -1.655   1.722  25.011  0.00  0.00    -0.350 OA
ATOM      6  C   UNL     1      -1.978   2.077  24.340  0.00  0.00    +0.169 C 
ENDROOT
BRANCH   6   7
ATOM      7  C   UNL     1      -2.629   2.585  24.326  0.00  0.00    +0.148 C 
BRANCH   7   8
ATOM      8  N   UNL     1      -3.339   2.356  24.678  0.00  0.00    -0.199 NA
ATOM      9  C   UNL     1      -3.993   2.858  24.654  0.00  0.00    +0.265 C 
ATOM     10  O   UNL     1      -3.936   3.590  24.277  0.00  0.00    -0.268 OA
BRANCH   9  11
ATOM     11  C   UNL     1      -4.703   2.629  25.006  0.00  0.00    +0.055 A 
ATOM     12  C   UNL     1      -5.159   2.032  24.664  0.00  0.00    +0.005 A 
ATOM     13  C   UNL     1      -5.868   1.803  25.016  0.00  0.00    +0.000 A 
ATOM     14  C   UNL     1      -6.122   2.170  25.711  0.00  0.00    +0.000 A 
ATOM     15  C   UNL     1      -5.666   2.766  26.053  0.00  0.00    +0.000 A 
ATOM     16  C   UNL     1      -4.956   2.996  25.700  0.00  0.00    +0.005 A 
ENDBRANCH   9  11
ENDBRANCH   7   8
ENDBRANCH   6   7
BRANCH   3  17
ATOM     17  N   UNL     1      -0.372   0.963  23.484  0.00  0.00    -0.209 NA
BRANCH  17  18
ATOM     18  C   UNL     1       0.348   0.731  23.814  0.00  0.00    +0.115 C 
BRANCH  18  19
ATOM     19  C   UNL     1       0.947   0.435  23.330  0.00  0.00    -0.004 A 
ATOM     20  C   UNL     1       0.788  -0.183  22.808  0.00  0.00    -0.003 A 
ATOM     21  C   UNL     1       1.388  -0.479  22.324  0.00  0.00    +0.000 A 
ATOM     22  C   UNL     1       2.146  -0.156  22.362  0.00  0.00    +0.010 A 
ATOM     23  C   UNL     1       2.304   0.463  22.885  0.00  0.00    +0.068 A 
ATOM     24  C   UNL     1       1.705   0.758  23.368  0.00  0.00    +0.007 A 
BRANCH  23  25
ATOM     25  C   UNL     1       3.063   0.785  22.923  0.00  0.00    +0.100 C 
ATOM     26  N   UNL     1       3.821   1.108  22.961  0.00  0.00    -0.191 NA
ENDBRANCH  23  25
ENDBRANCH  18  19
ENDBRANCH  17  18
ENDBRANCH   3  17
TORSDOF 7
ENDMDL
MODEL 8
REMARK VINA RESULT:      -8.3      3.388      5.118
REMARK  Name = 
REMARK  7 active torsions:
REMARK  status: ('A' for Active; 'I' for Inactive)
REMARK    1  A    between atoms: C_3  and  N_17
REMARK    2  A    between atoms: C_6  and  C_7
REMARK    3  A    between atoms: C_7  and  N_8
REMARK    4  A    between atoms: C_9  and  C_11
REMARK    5  A    between atoms: N_17  and  C_18
REMARK    6  A    between atoms: C_18  and  C_19
REMARK    7  A    between atoms: C_23  and  C_25
REMARK                            x       y       z     vdW  Elec       q    Type
REMARK                         _______ _______ _______ _____ _____    ______ ____
ROOT
ATOM      1  O   UNL     1      -1.944   0.435  25.016  0.00  0.00    -0.219 OA
ATOM      2  C   UNL     1      -1.721   1.023  24.482  0.00  0.00    +0.199 C 
ATOM      3  C   UNL     1      -2.122   1.731  24.346  0.00  0.00    +0.135 C 
ATOM      4  C   UNL     1      -1.707   2.152  23.770  0.00  0.00    +0.162 C 
ATOM      5  O   UNL     1      -1.051   1.704  23.551  0.00  0.00    -0.350 OA
ATOM      6  C   UNL     1      -1.059   1.007  23.990  0.00  0.00    +0.169 C 
ENDROOT
BRANCH   6   7
ATOM      7  C   UNL     1      -0.503   0.399  23.946  0.00  0.00    +0.148 C 
BRANCH   7   8
ATOM      8  N   UNL     1       0.166   0.485  23.472  0.00  0.00    -0.199 NA
ATOM      9  C   UNL     1       0.717  -0.127  23.419  0.00  0.00    +0.265 C 
ATOM     10  O   UNL     1       0.598  -0.825  23.842  0.00  0.00    -0.268 OA
BRANCH   9  11
ATOM     11  C   UNL     1       1.386  -0.040  22.944  0.00  0.00    +0.055 A 
ATOM     12  C   UNL     1       2.063   0.321  23.248  0.00  0.00    +0.005 A 
ATOM     13  C   UNL     1       2.732   0.408  22.773  0.00  0.00    +0.000 A 
ATOM     14  C   UNL     1       2.724   0.133  21.995  0.00  0.00    +0.000 A 
ATOM     15  C   UNL     1       2.047  -0.229  21.692  0.00  0.00    +0.000 A 
ATOM     16  C   UNL     1       1.378  -0.315  22.167  0.00  0.00    +0.005 A 
ENDBRANCH   9  11
ENDBRANCH   7   8
ENDBRANCH   6   7
BRANCH   3  17
ATOM     17  N   UNL     1      -2.816   1.976  24.720  0.00  0.00    -0.209 NA
BRANCH  17  18
ATOM     18  C   UNL     1      -3.250   2.606  24.412  0.00  0.00    +0.115 C 
BRANCH  18  19
ATOM     19  C   UNL     1      -3.952   2.841  24.778  0.00  0.00    -0.004 A 
ATOM     20  C   UNL     1      -3.982   3.555  25.190  0.00  0.00    -0.003 A 
ATOM     21  C   UNL     1      -4.684   3.790  25.556  0.00  0.00    +0.000 A 
ATOM     22  C   UNL     1      -5.354   3.311  25.508  0.00  0.00    +0.010 A 
ATOM     23  C   UNL     1      -5.322   2.597  25.096  0.00  0.00    +0.068 A 
ATOM     24  C   UNL     1      -4.622   2.362  24.731  0.00  0.00    +0.007 A 
BRANCH  23  25
ATOM     25  C   UNL     1      -5.993   2.118  25.049  0.00  0.00    +0.100 C 
ATOM     26  N   UNL     1      -6.663   1.639  25.002  0.00  0.00    -0.191 NA
ENDBRANCH  23  25
ENDBRANCH  18  19
ENDBRANCH  17  18
ENDBRANCH   3  17
TORSDOF 7
ENDMDL
MODEL 9
REMARK VINA RESULT:      -7.6      4.007      5.467
REMARK  Name = 
REMARK  7 active torsions:
REMARK  status: ('A' for Active; 'I' for Inactive)
REMARK    1  A    between atoms: C_3  and  N_17
REMARK    2  A    between atoms: C_6  and  C_7
REMARK    3  A    between atoms: C_7  and  N_8
REMARK    4  A    between atoms: C_9  and  C_11
REMARK    5  A    between atoms: N_17  and  C_18
REMARK    6  A    between atoms: C_18  and  C_19
REMARK    7  A    between atoms: C_23  and  C_25
REMARK                            x       y       z     vdW  Elec       q    Type
REMARK                         _______ _______ _______ _____ _____    ______ ____
ROOT
ATOM      1  O   UNL     1      -0.836   1.370  22.703  0.00  0.00    -0.219 OA
ATOM      2  C   UNL     1      -0.564   1.200  23.463  0.00  0.00    +0.199 C 
ATOM      3  C   UNL     1      -0.920   1.434  24.169  0.00  0.00    +0.135 C 
ATOM      4  C   UNL     1      -0.464   1.145  24.793  0.00  0.00    +0.162 C 
ATOM      5  O   UNL     1       0.173   0.733  24.473  0.00  0.00    -0.350 OA
ATOM      6  C   UNL     1       0.112   0.767  23.651  0.00  0.00    +0.169 C 
ENDROOT
BRANCH   6   7
ATOM      7  C   UNL     1       0.636   0.426  23.111  0.00  0.00    +0.148 C 
BRANCH   7   8
ATOM      8  N   UNL     1       1.450   0.499  23.224  0.00  0.00    -0.199 NA
ATOM      9  C   UNL     1       1.973   0.127  22.706  0.00  0.00    +0.265 C 
ATOM     10  O   UNL     1       1.682  -0.319  22.076  0.00  0.00    -0.268 OA
BRANCH   9  11
ATOM     11  C   UNL     1       2.787   0.199  22.818  0.00  0.00    +0.055 A 
ATOM     12  C   UNL     1       3.225  -0.445  23.091  0.00  0.00    +0.005 A 
ATOM     13  C   UNL     1       4.039  -0.372  23.203  0.00  0.00    +0.000 A 
ATOM     14  C   UNL     1       4.415   0.345  23.043  0.00  0.00    +0.000 A 
ATOM     15  C   UNL     1       3.977   0.990  22.771  0.00  0.00    +0.000 A 
ATOM     16  C   UNL     1       3.162   0.916  22.658  0.00  0.00    +0.005 A 
ENDBRANCH   9  11
ENDBRANCH   7   8
ENDBRANCH   6   7
BRANCH   3  17
ATOM     17  N   UNL     1      -1.612   1.879  24.239  0.00  0.00    -0.209 NA
BRANCH  17  18
ATOM     18  C   UNL     1      -2.177   1.677  24.805  0.00  0.00    +0.115 C 
BRANCH  18  19
ATOM     19  C   UNL     1      -2.863   2.129  24.883  0.00  0.00    -0.004 A 
ATOM     20  C   UNL     1      -2.810   2.948  24.968  0.00  0.00    -0.003 A 
ATOM     21  C   UNL     1      -3.496   3.399  25.046  0.00  0.00    +0.000 A 
ATOM     22  C   UNL     1      -4.235   3.032  25.038  0.00  0.00    +0.010 A 
ATOM     23  C   UNL     1      -4.287   2.213  24.953  0.00  0.00    +0.068 A 
ATOM     24  C   UNL     1      -3.602   1.762  24.876  0.00  0.00    +0.007 A 
BRANCH  23  25
ATOM     25  C   UNL     1      -5.027   1.846  24.946  0.00  0.00    +0.100 C 
ATOM     26  N   UNL     1      -5.766   1.480  24.938  0.00  0.00    -0.191 NA
ENDBRANCH  23  25
ENDBRANCH  18  19
ENDBRANCH  17  18
ENDBRANCH   3  17
TORSDOF 7
ENDMDL
MODEL 10
REMARK VINA RESULT:      -7.5      2.330      5.229
REMARK  Name = 
REMARK  7 active torsions:
REMARK  status: ('A' for Active; 'I' for Inactive)
REMARK    1  A    between atoms: C_3  and  N_17
REMARK    2  A    between atoms: C_6  and  C_7
REMARK    3  A    between atoms: C_7  and  N_8
REMARK    4  A    between atoms: C_9  and  C_11
REMARK    5  A    between atoms: N_17  and  C_18
REMARK    6  A    between atoms: C_18  and  C_19
REMARK    7  A    between atoms: C_23  and  C_25
REMARK                            x       y       z     vdW  Elec       q    Type
REMARK                         _______ _______ _______ _____ _____    ______ ____
ROOT
ATOM      1  O   UNL     1      -1.724   1.970  25.094  0.00  0.00    -0.219 OA
ATOM      2  C   UNL     1      -1.885   1.950  24.285  0.00  0.00    +0.199 C 
ATOM      3  C   UNL     1      -2.446   2.409  23.891  0.00  0.00    +0.135 C 
ATOM      4  C   UNL     1      -2.420   2.210  23.091  0.00  0.00    +0.162 C 
ATOM      5  O   UNL     1      -1.845   1.629  22.990  0.00  0.00    -0.350 OA
ATOM      6  C   UNL     1      -1.513   1.468  23.728  0.00  0.00    +0.169 C 
ENDROOT
BRANCH   6   7
ATOM      7  C   UNL     1      -0.915   0.921  23.882  0.00  0.00    +0.148 C 
BRANCH   7   8
ATOM      8  N   UNL     1      -1.103   0.183  24.198  0.00  0.00    -0.199 NA
ATOM      9  C   UNL     1      -0.552  -0.431  24.168  0.00  0.00    +0.265 C 
ATOM     10  O   UNL     1       0.187  -0.305  23.823  0.00  0.00    -0.268 OA
BRANCH   9  11
ATOM     11  C   UNL     1      -0.740  -1.170  24.484  0.00  0.00    +0.055 A 
ATOM     12  C   UNL     1      -1.307  -1.643  24.116  0.00  0.00    +0.005 A 
ATOM     13  C   UNL     1      -1.495  -2.382  24.432  0.00  0.00    +0.000 A 
ATOM     14  C   UNL     1      -1.116  -2.647  25.115  0.00  0.00    +0.000 A 
ATOM     15  C   UNL     1      -0.548  -2.174  25.483  0.00  0.00    +0.000 A 
ATOM     16  C   UNL     1      -0.361  -1.435  25.166  0.00  0.00    +0.005 A 
ENDBRANCH   9  11
ENDBRANCH   7   8
ENDBRANCH   6   7
BRANCH   3  17
ATOM     17  N   UNL     1      -2.944   2.968  24.237  0.00  0.00    -0.209 NA
BRANCH  17  18
ATOM     18  C   UNL     1      -3.737   3.010  24.011  0.00  0.00    +0.115 C 
BRANCH  18  19
ATOM     19  C   UNL     1      -4.315   3.204  24.567  0.00  0.00    -0.004 A 
ATOM     20  C   UNL     1      -4.386   3.982  24.832  0.00  0.00    -0.003 A 
ATOM     21  C   UNL     1      -4.964   4.177  25.388  0.00  0.00    +0.000 A 
ATOM     22  C   UNL     1      -5.470   3.593  25.679  0.00  0.00    +0.010 A 
ATOM     23  C   UNL     1      -5.398   2.815  25.413  0.00  0.00    +0.068 A 
ATOM     24  C   UNL     1      -4.820   2.621  24.857  0.00  0.00    +0.007 A 
BRANCH  23  25
ATOM     25  C   UNL     1      -5.904   2.232  25.704  0.00  0.00    +0.100 C 
ATOM     26  N   UNL     1      -6.410   1.649  25.995  0.00  0.00    -0.191 NA
ENDBRANCH  23  25
ENDBRANCH  18  19
ENDBRANCH  17  18
ENDBRANCH   3  17
TORSDOF 7
ENDMDL
