MODEL 1
REMARK VINA RESULT:     -10.5      0.000      0.000
REMARK  Name = 
REMARK  7 active torsions:
REMARK  status: ('A' for Active; 'I' for Inactive)
REMARK    1  A    between atoms: O_2  and  C_3
REMARK    2  A    between atoms: C_6  and  C_7
REMARK    3  A    between atoms: C_7  and  N_8
REMARK    4  A    between atoms: N_8  and  C_9
REMARK    5  A    between atoms: C_9  and  C_10
REMARK    6  A    between atoms: C_17  and  C_18
REMARK    7  A    between atoms: C_20  and  C_24
REMARK                            x       y       z     vdW  Elec       q    Type
REMARK                         _______ _______ _______ _____ _____    ______ ____
ROOT
ATOM     10  C   UNL     1      -4.607   1.316  24.603  0.00  0.00    +0.075 C 
ATOM     11  C   UNL     1      -4.487   1.967  24.193  0.00  0.00    +0.018 C 
ATOM     12  C   UNL     1      -4.035   2.596  24.428  0.00  0.00    +0.010 C 
ATOM     13  C   UNL     1      -4.024   3.248  23.813  0.00  0.00    +0.018 C 
ATOM     14  C   UNL     1      -4.192   2.668  24.063  0.00  0.00    +0.072 C 
ATOM     15  N   UNL     1      -4.148   1.962  24.836  0.00  0.00    -0.272 NA
ATOM     16  C   UNL     1      -3.661   2.124  25.591  0.00  0.00    +0.078 C 
ATOM     17  C   UNL     1      -3.569   2.746  25.157  0.00  0.00    +0.056 C 
ENDROOT
BRANCH  17  18
ATOM     18  C   UNL     1      -3.124   3.418  25.336  0.00  0.00    +0.058 A 
ATOM     19  C   UNL     1      -2.449   3.672  24.937  0.00  0.00    +0.031 A 
ATOM     20  C   UNL     1      -2.184   4.364  25.299  0.00  0.00    +0.079 A 
ATOM     21  N   UNL     1      -2.696   4.537  25.922  0.00  0.00    -0.174 NA
ATOM     22  N   UNL     1      -3.278   3.952  25.945  0.00  0.00    -0.253 N 
ATOM     23  C   UNL     1      -3.902   3.909  26.483  0.00  0.00    +0.153 C 
BRANCH  20  24
ATOM     24  C   UNL     1      -1.524   4.806  25.078  0.00  0.00    +0.042 C 
ATOM     25  C   UNL     1      -1.498   5.626  24.985  0.00  0.00    +0.006 C 
ATOM     26  C   UNL     1      -0.731   5.832  24.760  0.00  0.00    +0.000 C 
ATOM     27  C   UNL     1      -0.284   5.141  24.714  0.00  0.00    +0.000 C 
ATOM     28  C   UNL     1      -0.773   4.507  24.910  0.00  0.00    +0.006 C 
ENDBRANCH  20  24
ENDBRANCH  17  18
BRANCH  10   9
ATOM      9  C   UNL     1      -4.935   0.568  24.717  0.00  0.00    +0.105 C 
BRANCH   9   8
ATOM      8  N   UNL     1      -4.581  -0.094  24.375  0.00  0.00    -0.212 NA
BRANCH   8   7
ATOM      7  C   UNL     1      -4.676  -0.837  24.722  0.00  0.00    +0.115 C 
BRANCH   7   6
ATOM      3  C   UNL     1      -2.885  -2.532  24.520  0.00  0.00    +0.139 A 
ATOM      4  C   UNL     1      -2.915  -2.042  25.183  0.00  0.00    +0.037 A 
ATOM      5  C   UNL     1      -3.513  -1.477  25.251  0.00  0.00    +0.000 A 
ATOM      6  C   UNL     1      -4.079  -1.402  24.655  0.00  0.00    -0.005 A 
ATOM     29  C   UNL     1      -4.047  -1.891  23.992  0.00  0.00    +0.000 A 
ATOM     30  C   UNL     1      -3.450  -2.456  23.924  0.00  0.00    +0.037 A 
BRANCH   3   2
ATOM      1  C   UNL     1      -1.511  -2.859  24.303  0.00  0.00    +0.252 C 
ATOM      2  O   UNL     1      -2.287  -3.097  24.453  0.00  0.00    -0.471 OA
ENDBRANCH   3   2
ENDBRANCH   7   6
ENDBRANCH   8   7
ENDBRANCH   9   8
ENDBRANCH  10   9
TORSDOF 7
ENDMDL
MODEL 2
REMARK VINA RESULT:     -10.1      4.202      5.476
REMARK  Name = 
REMARK  7 active torsions:
REMARK  status: ('A' for Active; 'I' for Inactive)
REMARK    1  A    between atoms: O_2  and  C_3
REMARK    2  A    between atoms: C_6  and  C_7
REMARK    3  A    between atoms: C_7  and  N_8
REMARK    4  A    between atoms: N_8  and  C_9
REMARK    5  A    between atoms: C_9  and  C_10
REMARK    6  A    between atoms: C_17  and  C_18
REMARK    7  A    between atoms: C_20  and  C_24
REMARK                            x       y       z     vdW  Elec       q    Type
REMARK                         _______ _______ _______ _____ _____    ______ ____
ROOT
ATOM     10  C   UNL     1       0.057   0.309  23.550  0.00  0.00    +0.075 C 
ATOM     11  C   UNL     1      -0.289   0.315  24.247  0.00  0.00    +0.018 C 
ATOM     12  C   UNL     1      -0.936   0.759  24.448  0.00  0.00    +0.010 C 
ATOM     13  C   UNL     1      -1.183   0.623  25.299  0.00  0.00    +0.018 C 
ATOM     14  C   UNL     1      -0.817   0.537  24.765  0.00  0.00    +0.072 C 
ATOM     15  N   UNL     1      -0.602   0.758  23.763  0.00  0.00    -0.272 NA
ATOM     16  C   UNL     1      -1.111   1.353  23.295  0.00  0.00    +0.078 C 
ATOM     17  C   UNL     1      -1.422   1.330  23.992  0.00  0.00    +0.056 C 
ENDROOT
BRANCH  17  18
ATOM     18  C   UNL     1      -2.077   1.754  24.261  0.00  0.00    +0.058 A 
ATOM     19  C   UNL     1      -2.822   1.441  24.427  0.00  0.00    +0.031 A 
ATOM     20  C   UNL     1      -3.307   2.058  24.679  0.00  0.00    +0.079 A 
ATOM     21  N   UNL     1      -2.863   2.753  24.669  0.00  0.00    -0.174 NA
ATOM     22  N   UNL     1      -2.102   2.565  24.410  0.00  0.00    -0.253 N 
ATOM     23  C   UNL     1      -1.476   3.094  24.317  0.00  0.00    +0.153 C 
BRANCH  20  24
ATOM     24  C   UNL     1      -4.099   1.993  24.902  0.00  0.00    +0.042 C 
ATOM     25  C   UNL     1      -4.514   2.525  25.377  0.00  0.00    +0.006 C 
ATOM     26  C   UNL     1      -5.286   2.245  25.458  0.00  0.00    +0.000 C 
ATOM     27  C   UNL     1      -5.348   1.541  25.034  0.00  0.00    +0.000 C 
ATOM     28  C   UNL     1      -4.615   1.384  24.690  0.00  0.00    +0.006 C 
ENDBRANCH  20  24
ENDBRANCH  17  18
BRANCH  10   9
ATOM      9  C   UNL     1       0.632   0.054  23.017  0.00  0.00    +0.105 C 
BRANCH   9   8
ATOM      8  N   UNL     1       1.431   0.188  23.176  0.00  0.00    -0.212 NA
BRANCH   8   7
ATOM      7  C   UNL     1       1.998   0.033  22.596  0.00  0.00    +0.115 C 
BRANCH   7   6
ATOM      3  C   UNL     1       4.398   0.370  23.095  0.00  0.00    +0.139 A 
ATOM      4  C   UNL     1       3.952   0.988  22.778  0.00  0.00    +0.037 A 
ATOM      5  C   UNL     1       3.152   0.876  22.612  0.00  0.00    +0.000 A 
ATOM      6  C   UNL     1       2.798   0.146  22.762  0.00  0.00    -0.005 A 
ATOM     29  C   UNL     1       3.244  -0.471  23.079  0.00  0.00    +0.000 A 
ATOM     30  C   UNL     1       4.044  -0.359  23.245  0.00  0.00    +0.037 A 
BRANCH   3   2
ATOM      1  C   UNL     1       5.557   0.056  23.868  0.00  0.00    +0.252 C 
ATOM      2  O   UNL     1       5.198   0.484  23.261  0.00  0.00    -0.471 OA
ENDBRANCH   3   2
ENDBRANCH   7   6
ENDBRANCH   8   7
ENDBRANCH   9   8
ENDBRANCH  10   9
TORSDOF 7
ENDMDL
MODEL 3
REMARK VINA RESULT:      -9.6      2.241      2.994
REMARK  Name = 
REMARK  7 active torsions:
REMARK  status: ('A' for Active; 'I' for Inactive)
REMARK    1  A    between atoms: O_2  and  C_3
REMARK    2  A    between atoms: C_6  and  C_7
REMARK    3  A    between atoms: C_7  and  N_8
REMARK    4  A    between atoms: N_8  and  C_9
REMARK    5  A    between atoms: C_9  and  C_10
REMARK    6  A    between atoms: C_17  and  C_18
REMARK    7  A    between atoms: C_20  and  C_24
REMARK                            x       y       z     vdW  Elec       q    Type
REMARK                         _______ _______ _______ _____ _____    ______ ____
ROOT
ATOM     10  C   UNL     1      -0.378  -0.177  24.732  0.00  0.00    +0.075 C 
ATOM     11  C   UNL     1      -0.206   0.450  24.304  0.00  0.00    +0.018 C 
ATOM     12  C   UNL     1      -0.266   1.220  24.549  0.00  0.00    +0.010 C 
ATOM     13  C   UNL     1      -0.020   1.795  23.907  0.00  0.00    +0.018 C 
ATOM     14  C   UNL     1      -0.132   1.207  24.168  0.00  0.00    +0.072 C 
ATOM     15  N   UNL     1      -0.437   0.610  24.975  0.00  0.00    -0.272 NA
ATOM     16  C   UNL     1      -0.702   0.988  25.762  0.00  0.00    +0.078 C 
ATOM     17  C   UNL     1      -0.522   1.576  25.309  0.00  0.00    +0.056 C 
ENDROOT
BRANCH  17  18
ATOM     18  C   UNL     1      -0.561   2.380  25.496  0.00  0.00    +0.058 A 
ATOM     19  C   UNL     1      -1.018   2.945  25.108  0.00  0.00    +0.031 A 
ATOM     20  C   UNL     1      -0.889   3.672  25.474  0.00  0.00    +0.079 A 
ATOM     21  N   UNL     1      -0.352   3.556  26.089  0.00  0.00    -0.174 NA
ATOM     22  N   UNL     1      -0.149   2.756  26.103  0.00  0.00    -0.253 N 
ATOM     23  C   UNL     1       0.375   2.397  26.630  0.00  0.00    +0.153 C 
BRANCH  20  24
ATOM     24  C   UNL     1      -1.236   4.390  25.264  0.00  0.00    +0.042 C 
ATOM     25  C   UNL     1      -2.034   4.586  25.348  0.00  0.00    +0.006 C 
ATOM     26  C   UNL     1      -2.138   5.356  25.068  0.00  0.00    +0.000 C 
ATOM     27  C   UNL     1      -1.405   5.636  24.813  0.00  0.00    +0.000 C 
ATOM     28  C   UNL     1      -0.848   5.040  24.933  0.00  0.00    +0.006 C 
ENDBRANCH  20  24
ENDBRANCH  17  18
BRANCH  10   9
ATOM      9  C   UNL     1      -0.447  -0.990  24.851  0.00  0.00    +0.105 C 
BRANCH   9   8
ATOM      8  N   UNL     1      -1.060  -1.409  24.492  0.00  0.00    -0.212 NA
BRANCH   8   7
ATOM      7  C   UNL     1      -1.411  -2.044  24.885  0.00  0.00    +0.115 C 
BRANCH   7   6
ATOM      3  C   UNL     1      -3.710  -2.745  24.296  0.00  0.00    +0.139 A 
ATOM      4  C   UNL     1      -3.063  -3.109  23.936  0.00  0.00    +0.037 A 
ATOM      5  C   UNL     1      -2.296  -2.876  24.132  0.00  0.00    +0.000 A 
ATOM      6  C   UNL     1      -2.177  -2.278  24.689  0.00  0.00    -0.005 A 
ATOM     29  C   UNL     1      -2.824  -1.914  25.048  0.00  0.00    +0.000 A 
ATOM     30  C   UNL     1      -3.591  -2.148  24.852  0.00  0.00    +0.037 A 
BRANCH   3   2
ATOM      1  C   UNL     1      -4.910  -2.546  23.547  0.00  0.00    +0.252 C 
ATOM      2  O   UNL     1      -4.476  -2.980  24.099  0.00  0.00    -0.471 OA
ENDBRANCH   3   2
ENDBRANCH   7   6
ENDBRANCH   8   7
ENDBRANCH   9   8
ENDBRANCH  10   9
TORSDOF 7
ENDMDL
MODEL 4
REMARK VINA RESULT:      -9.2      4.378      5.606
REMARK  Name = 
REMARK  7 active torsions:
REMARK  status: ('A' for Active; 'I' for Inactive)
REMARK    1  A    between atoms: O_2  and  C_3
REMARK    2  A    between atoms: C_6  and  C_7
REMARK    3  A    between atoms: C_7  and  N_8
REMARK    4  A    between atoms: N_8  and  C_9
REMARK    5  A    between atoms: C_9  and  C_10
REMARK    6  A    between atoms: C_17  and  C_18
REMARK    7  A    between atoms: C_20  and  C_24
REMARK                            x       y       z     vdW  Elec       q    Type
REMARK                         _______ _______ _______ _____ _____    ______ ____
ROOT
ATOM     10  C   UNL     1      -0.949   0.337  24.178  0.00  0.00    +0.075 C 
ATOM     11  C   UNL     1      -0.390   0.878  24.140  0.00  0.00    +0.018 C 
ATOM     12  C   UNL     1       0.328   0.790  23.776  0.00  0.00    +0.010 C 
ATOM     13  C   UNL     1       0.829   1.531  23.845  0.00  0.00    +0.018 C 
ATOM     14  C   UNL     1       0.299   1.160  23.938  0.00  0.00    +0.072 C 
ATOM     15  N   UNL     1      -0.215   0.256  23.809  0.00  0.00    -0.272 NA
ATOM     16  C   UNL     1       0.167  -0.438  23.355  0.00  0.00    +0.078 C 
ATOM     17  C   UNL     1       0.688   0.119  23.341  0.00  0.00    +0.056 C 
ENDROOT
BRANCH  17  18
ATOM     18  C   UNL     1       1.435   0.095  22.989  0.00  0.00    +0.058 A 
ATOM     19  C   UNL     1       2.148   0.294  23.353  0.00  0.00    +0.031 A 
ATOM     20  C   UNL     1       2.752   0.190  22.802  0.00  0.00    +0.079 A 
ATOM     21  N   UNL     1       2.413  -0.072  22.097  0.00  0.00    -0.174 NA
ATOM     22  N   UNL     1       1.598  -0.131  22.213  0.00  0.00    -0.253 N 
ATOM     23  C   UNL     1       1.044  -0.373  21.652  0.00  0.00    +0.153 C 
BRANCH  20  24
ATOM     24  C   UNL     1       3.555   0.325  22.931  0.00  0.00    +0.042 C 
ATOM     25  C   UNL     1       4.089  -0.209  23.266  0.00  0.00    +0.006 C 
ATOM     26  C   UNL     1       4.830   0.154  23.290  0.00  0.00    +0.000 C 
ATOM     27  C   UNL     1       4.755   0.911  22.972  0.00  0.00    +0.000 C 
ATOM     28  C   UNL     1       3.968   1.017  22.750  0.00  0.00    +0.006 C 
ENDBRANCH  20  24
ENDBRANCH  17  18
BRANCH  10   9
ATOM      9  C   UNL     1      -1.691   0.061  24.406  0.00  0.00    +0.105 C 
BRANCH   9   8
ATOM      8  N   UNL     1      -2.326   0.585  24.467  0.00  0.00    -0.212 NA
BRANCH   8   7
ATOM      7  C   UNL     1      -3.098   0.310  24.373  0.00  0.00    +0.115 C 
BRANCH   7   6
ATOM      3  C   UNL     1      -5.010   1.805  24.854  0.00  0.00    +0.139 A 
ATOM      4  C   UNL     1      -4.939   1.085  25.252  0.00  0.00    +0.037 A 
ATOM      5  C   UNL     1      -4.302   0.587  25.092  0.00  0.00    +0.000 A 
ATOM      6  C   UNL     1      -3.735   0.808  24.534  0.00  0.00    -0.005 A 
ATOM     29  C   UNL     1      -3.807   1.527  24.136  0.00  0.00    +0.000 A 
ATOM     30  C   UNL     1      -4.444   2.025  24.297  0.00  0.00    +0.037 A 
BRANCH   3   2
ATOM      1  C   UNL     1      -5.661   2.742  25.714  0.00  0.00    +0.252 C 
ATOM      2  O   UNL     1      -5.648   2.303  25.016  0.00  0.00    -0.471 OA
ENDBRANCH   3   2
ENDBRANCH   7   6
ENDBRANCH   8   7
ENDBRANCH   9   8
ENDBRANCH  10   9
TORSDOF 7
ENDMDL
MODEL 5
REMARK VINA RESULT:      -9.1      1.835      5.752
REMARK  Name = 
REMARK  7 active torsions:
REMARK  status: ('A' for Active; 'I' for Inactive)
REMARK    1  A    between atoms: O_2  and  C_3
REMARK    2  A    between atoms: C_6  and  C_7
REMARK    3  A    between atoms: C_7  and  N_8
REMARK    4  A    between atoms: N_8  and  C_9
REMARK    5  A    between atoms: C_9  and  C_10
REMARK    6  A    between atoms: C_17  and  C_18
REMARK    7  A    between atoms: C_20  and  C_24
REMARK                            x       y       z     vdW  Elec       q    Type
REMARK                         _______ _______ _______ _____ _____    ______ ____
ROOT
ATOM     10  C   UNL     1      -4.483   2.616  25.581  0.00  0.00    +0.075 C 
ATOM     11  C   UNL     1      -4.977   2.069  25.331  0.00  0.00    +0.018 C 
ATOM     12  C   UNL     1      -4.769   1.376  24.968  0.00  0.00    +0.010 C 
ATOM     13  C   UNL     1      -5.486   0.881  24.757  0.00  0.00    +0.018 C 
ATOM     14  C   UNL     1      -5.171   1.399  25.002  0.00  0.00    +0.072 C 
ATOM     15  N   UNL     1      -4.279   1.907  25.211  0.00  0.00    -0.272 NA
ATOM     16  C   UNL     1      -3.471   1.548  24.984  0.00  0.00    +0.078 C 
ATOM     17  C   UNL     1      -3.989   1.036  24.753  0.00  0.00    +0.056 C 
ENDROOT
BRANCH  17  18
ATOM     18  C   UNL     1      -3.845   0.314  24.379  0.00  0.00    +0.058 A 
ATOM     19  C   UNL     1      -4.001  -0.433  24.692  0.00  0.00    +0.031 A 
ATOM     20  C   UNL     1      -3.773  -0.995  24.134  0.00  0.00    +0.079 A 
ATOM     21  N   UNL     1      -3.475  -0.596  23.476  0.00  0.00    -0.174 NA
ATOM     22  N   UNL     1      -3.520   0.214  23.628  0.00  0.00    -0.253 N 
ATOM     23  C   UNL     1      -3.282   0.818  23.118  0.00  0.00    +0.153 C 
BRANCH  20  24
ATOM     24  C   UNL     1      -3.831  -1.814  24.218  0.00  0.00    +0.042 C 
ATOM     25  C   UNL     1      -4.298  -2.316  23.759  0.00  0.00    +0.006 C 
ATOM     26  C   UNL     1      -4.188  -3.087  24.033  0.00  0.00    +0.000 C 
ATOM     27  C   UNL     1      -3.653  -3.061  24.661  0.00  0.00    +0.000 C 
ATOM     28  C   UNL     1      -3.432  -2.275  24.775  0.00  0.00    +0.006 C 
ENDBRANCH  20  24
ENDBRANCH  17  18
BRANCH  10   9
ATOM      9  C   UNL     1      -4.303   3.338  25.937  0.00  0.00    +0.105 C 
BRANCH   9   8
ATOM      8  N   UNL     1      -3.764   3.851  25.581  0.00  0.00    -0.212 NA
BRANCH   8   7
ATOM      7  C   UNL     1      -3.210   4.252  26.043  0.00  0.00    +0.115 C 
BRANCH   7   6
ATOM      3  C   UNL     1      -1.048   4.944  25.058  0.00  0.00    +0.139 A 
ATOM      4  C   UNL     1      -1.713   5.425  24.972  0.00  0.00    +0.037 A 
ATOM      5  C   UNL     1      -2.434   5.194  25.300  0.00  0.00    +0.000 A 
ATOM      6  C   UNL     1      -2.489   4.483  25.715  0.00  0.00    -0.005 A 
ATOM     29  C   UNL     1      -1.824   4.003  25.801  0.00  0.00    +0.000 A 
ATOM     30  C   UNL     1      -1.104   4.234  25.473  0.00  0.00    +0.037 A 
BRANCH   3   2
ATOM      1  C   UNL     1      -0.073   4.841  24.020  0.00  0.00    +0.252 C 
ATOM      2  O   UNL     1      -0.327   5.176  24.730  0.00  0.00    -0.471 OA
ENDBRANCH   3   2
ENDBRANCH   7   6
ENDBRANCH   8   7
ENDBRANCH   9   8
ENDBRANCH  10   9
TORSDOF 7
ENDMDL
MODEL 6
REMARK VINA RESULT:      -8.9      2.671      6.267
REMARK  Name = 
REMARK  7 active torsions:
REMARK  status: ('A' for Active; 'I' for Inactive)
REMARK    1  A    between atoms: O_2  and  C_3
REMARK    2  A    between atoms: C_6  and  C_7
REMARK    3  A    between atoms: C_7  and  N_8
REMARK    4  A    between atoms: N_8  and  C_9
REMARK    5  A    between atoms: C_9  and  C_10
REMARK    6  A    between atoms: C_17  and  C_18
REMARK    7  A    between atoms: C_20  and  C_24
REMARK                            x       y       z     vdW  Elec       q    Type
REMARK                         _______ _______ _______ _____ _____    ______ ____
ROOT
ATOM     10  C   UNL     1      -0.062   1.363  24.680  0.00  0.00    +0.075 C 
ATOM     11  C   UNL     1      -0.145   0.839  24.111  0.00  0.00    +0.018 C 
ATOM     12  C   UNL     1      -0.556   0.144  24.165  0.00  0.00    +0.010 C 
ATOM     13  C   UNL     1      -0.532  -0.320  23.398  0.00  0.00    +0.018 C 
ATOM     14  C   UNL     1      -0.398   0.181  23.795  0.00  0.00    +0.072 C 
ATOM     15  N   UNL     1      -0.479   0.652  24.728  0.00  0.00    -0.272 NA
ATOM     16  C   UNL     1      -0.948   0.264  25.408  0.00  0.00    +0.078 C 
ATOM     17  C   UNL     1      -1.006  -0.224  24.823  0.00  0.00    +0.056 C 
ENDROOT
BRANCH  17  18
ATOM     18  C   UNL     1      -1.407  -0.945  24.812  0.00  0.00    +0.058 A 
ATOM     19  C   UNL     1      -2.163  -1.074  24.511  0.00  0.00    +0.031 A 
ATOM     20  C   UNL     1      -2.345  -1.872  24.613  0.00  0.00    +0.079 A 
ATOM     21  N   UNL     1      -1.701  -2.236  24.978  0.00  0.00    -0.174 NA
ATOM     22  N   UNL     1      -1.120  -1.663  25.101  0.00  0.00    -0.253 N 
ATOM     23  C   UNL     1      -0.383  -1.786  25.451  0.00  0.00    +0.153 C 
BRANCH  20  24
ATOM     24  C   UNL     1      -3.048  -2.242  24.391  0.00  0.00    +0.042 C 
ATOM     25  C   UNL     1      -3.201  -3.052  24.422  0.00  0.00    +0.006 C 
ATOM     26  C   UNL     1      -3.969  -3.178  24.148  0.00  0.00    +0.000 C 
ATOM     27  C   UNL     1      -4.291  -2.445  23.948  0.00  0.00    +0.000 C 
ATOM     28  C   UNL     1      -3.723  -1.867  24.097  0.00  0.00    +0.006 C 
ENDBRANCH  20  24
ENDBRANCH  17  18
BRANCH  10   9
ATOM      9  C   UNL     1       0.220   2.072  24.993  0.00  0.00    +0.105 C 
BRANCH   9   8
ATOM      8  N   UNL     1      -0.164   2.781  24.820  0.00  0.00    -0.212 NA
BRANCH   8   7
ATOM      7  C   UNL     1      -0.283   3.341  25.414  0.00  0.00    +0.115 C 
BRANCH   7   6
ATOM      3  C   UNL     1      -2.514   4.368  25.715  0.00  0.00    +0.139 A 
ATOM      4  C   UNL     1      -2.026   4.616  25.097  0.00  0.00    +0.037 A 
ATOM      5  C   UNL     1      -1.282   4.273  24.997  0.00  0.00    +0.000 A 
ATOM      6  C   UNL     1      -1.027   3.683  25.514  0.00  0.00    -0.005 A 
ATOM     29  C   UNL     1      -1.515   3.436  26.131  0.00  0.00    +0.000 A 
ATOM     30  C   UNL     1      -2.259   3.778  26.231  0.00  0.00    +0.037 A 
BRANCH   3   2
ATOM      1  C   UNL     1      -3.938   4.275  25.646  0.00  0.00    +0.252 C 
ATOM      2  O   UNL     1      -3.258   4.711  25.814  0.00  0.00    -0.471 OA
ENDBRANCH   3   2
ENDBRANCH   7   6
ENDBRANCH   8   7
ENDBRANCH   9   8
ENDBRANCH  10   9
TORSDOF 7
ENDMDL
MODEL 7
REMARK VINA RESULT:      -7.7     18.004     19.221
REMARK  Name = 
REMARK  7 active torsions:
REMARK  status: ('A' for Active; 'I' for Inactive)
REMARK    1  A    between atoms: O_2  and  C_3
REMARK    2  A    between atoms: C_6  and  C_7
REMARK    3  A    between atoms: C_7  and  N_8
REMARK    4  A    between atoms: N_8  and  C_9
REMARK    5  A    between atoms: C_9  and  C_10
REMARK    6  A    between atoms: C_17  and  C_18
REMARK    7  A    between atoms: C_20  and  C_24
REMARK                            x       y       z     vdW  Elec       q    Type
REMARK                         _______ _______ _______ _____ _____    ______ ____
ROOT
ATOM     10  C   UNL     1      -6.817  -8.594   9.317  0.00  0.00    +0.075 C 
ATOM     11  C   UNL     1      -6.151  -8.275   9.563  0.00  0.00    +0.018 C 
ATOM     12  C   UNL     1      -5.479  -8.680   9.761  0.00  0.00    +0.010 C 
ATOM     13  C   UNL     1      -4.821  -8.129  10.022  0.00  0.00    +0.018 C 
ATOM     14  C   UNL     1      -5.419  -8.283   9.809  0.00  0.00    +0.072 C 
ATOM     15  N   UNL     1      -6.128  -9.000   9.520  0.00  0.00    -0.272 NA
ATOM     16  C   UNL     1      -5.922  -9.889   9.527  0.00  0.00    +0.078 C 
ATOM     17  C   UNL     1      -5.288  -9.537   9.765  0.00  0.00    +0.056 C 
ENDROOT
BRANCH  17  18
ATOM     18  C   UNL     1      -4.573  -9.888   9.981  0.00  0.00    +0.058 A 
ATOM     19  C   UNL     1      -4.174  -9.776  10.694  0.00  0.00    +0.031 A 
ATOM     20  C   UNL     1      -3.487 -10.231  10.676  0.00  0.00    +0.079 A 
ATOM     21  N   UNL     1      -3.461 -10.625   9.952  0.00  0.00    -0.174 NA
ATOM     22  N   UNL     1      -4.133 -10.413   9.522  0.00  0.00    -0.253 N 
ATOM     23  C   UNL     1      -4.330 -10.679   8.766  0.00  0.00    +0.153 C 
BRANCH  20  24
ATOM     24  C   UNL     1      -2.924 -10.284  11.276  0.00  0.00    +0.042 C 
ATOM     25  C   UNL     1      -2.159  -9.975  11.252  0.00  0.00    +0.006 C 
ATOM     26  C   UNL     1      -1.789 -10.155  11.967  0.00  0.00    +0.000 C 
ATOM     27  C   UNL     1      -2.324 -10.576  12.433  0.00  0.00    +0.000 C 
ATOM     28  C   UNL     1      -3.025 -10.656  12.006  0.00  0.00    +0.006 C 
ENDBRANCH  20  24
ENDBRANCH  17  18
BRANCH  10   9
ATOM      9  C   UNL     1      -7.598  -8.556   9.056  0.00  0.00    +0.105 C 
BRANCH   9   8
ATOM      8  N   UNL     1      -7.964  -7.824   8.951  0.00  0.00    -0.212 NA
BRANCH   8   7
ATOM      7  C   UNL     1      -8.728  -7.786   8.643  0.00  0.00    +0.115 C 
BRANCH   7   6
ATOM      3  C   UNL     1      -9.914  -5.616   8.548  0.00  0.00    +0.139 A 
ATOM      4  C   UNL     1      -9.184  -5.703   8.173  0.00  0.00    +0.037 A 
ATOM      5  C   UNL     1      -8.789  -6.427   8.205  0.00  0.00    +0.000 A 
ATOM      6  C   UNL     1      -9.124  -7.062   8.612  0.00  0.00    -0.005 A 
ATOM     29  C   UNL     1      -9.853  -6.974   8.986  0.00  0.00    +0.000 A 
ATOM     30  C   UNL     1     -10.248  -6.251   8.954  0.00  0.00    +0.037 A 
BRANCH   3   2
ATOM      1  C   UNL     1     -10.019  -4.246   8.939  0.00  0.00    +0.252 C 
ATOM      2  O   UNL     1     -10.309  -4.892   8.516  0.00  0.00    -0.471 OA
ENDBRANCH   3   2
ENDBRANCH   7   6
ENDBRANCH   8   7
ENDBRANCH   9   8
ENDBRANCH  10   9
TORSDOF 7
ENDMDL
MODEL 8
REMARK VINA RESULT:      -7.5     14.300     16.031
REMARK  Name = 
REMARK  7 active torsions:
REMARK  status: ('A' for Active; 'I' for Inactive)
REMARK    1  A    between atoms: O_2  and  C_3
REMARK    2  A    between atoms: C_6  and  C_7
REMARK    3  A    between atoms: C_7  and  N_8
REMARK    4  A    between atoms: N_8  and  C_9
REMARK    5  A    between atoms: C_9  and  C_10
REMARK    6  A    between atoms: C_17  and  C_18
REMARK    7  A    between atoms: C_20  and  C_24
REMARK                            x       y       z     vdW  Elec       q    Type
REMARK                         _______ _______ _______ _____ _____    ______ ____
ROOT
ATOM     10  C   UNL     1      -5.432 -10.418  15.116  0.00  0.00    +0.075 C 
ATOM     11  C   UNL     1      -6.196 -10.560  15.064  0.00  0.00    +0.018 C 
ATOM     12  C   UNL     1      -6.760 -10.300  15.584  0.00  0.00    +0.010 C 
ATOM     13  C   UNL     1      -7.581 -10.571  15.347  0.00  0.00    +0.018 C 
ATOM     14  C   UNL     1      -6.933 -10.517  15.289  0.00  0.00    +0.072 C 
ATOM     15  N   UNL     1      -6.013 -10.158  15.641  0.00  0.00    -0.272 NA
ATOM     16  C   UNL     1      -5.968  -9.655  16.402  0.00  0.00    +0.078 C 
ATOM     17  C   UNL     1      -6.709  -9.817  16.314  0.00  0.00    +0.056 C 
ENDROOT
BRANCH  17  18
ATOM     18  C   UNL     1      -7.331  -9.585  16.804  0.00  0.00    +0.058 A 
ATOM     19  C   UNL     1      -8.014  -9.188  16.566  0.00  0.00    +0.031 A 
ATOM     20  C   UNL     1      -8.484  -9.068  17.232  0.00  0.00    +0.079 A 
ATOM     21  N   UNL     1      -8.093  -9.390  17.883  0.00  0.00    -0.174 NA
ATOM     22  N   UNL     1      -7.380  -9.711  17.618  0.00  0.00    -0.253 N 
ATOM     23  C   UNL     1      -6.815 -10.089  18.085  0.00  0.00    +0.153 C 
BRANCH  20  24
ATOM     24  C   UNL     1      -9.218  -8.691  17.246  0.00  0.00    +0.042 C 
ATOM     25  C   UNL     1      -9.372  -7.920  16.994  0.00  0.00    +0.006 C 
ATOM     26  C   UNL     1     -10.176  -7.771  17.107  0.00  0.00    +0.000 C 
ATOM     27  C   UNL     1     -10.518  -8.450  17.428  0.00  0.00    +0.000 C 
ATOM     28  C   UNL     1      -9.927  -9.018  17.514  0.00  0.00    +0.006 C 
ENDBRANCH  20  24
ENDBRANCH  17  18
BRANCH  10   9
ATOM      9  C   UNL     1      -4.653 -10.479  14.853  0.00  0.00    +0.105 C 
BRANCH   9   8
ATOM      8  N   UNL     1      -4.493 -10.530  14.046  0.00  0.00    -0.212 NA
BRANCH   8   7
ATOM      7  C   UNL     1      -3.731 -10.717  13.787  0.00  0.00    +0.115 C 
BRANCH   7   6
ATOM      3  C   UNL     1      -3.080 -10.278  11.441  0.00  0.00    +0.139 A 
ATOM      4  C   UNL     1      -3.874 -10.386  11.635  0.00  0.00    +0.037 A 
ATOM      5  C   UNL     1      -4.092 -10.533  12.417  0.00  0.00    +0.000 A 
ATOM      6  C   UNL     1      -3.514 -10.570  13.005  0.00  0.00    -0.005 A 
ATOM     29  C   UNL     1      -2.720 -10.462  12.811  0.00  0.00    +0.000 A 
ATOM     30  C   UNL     1      -2.503 -10.315  12.029  0.00  0.00    +0.037 A 
BRANCH   3   2
ATOM      1  C   UNL     1      -2.812  -9.355  10.384  0.00  0.00    +0.252 C 
ATOM      2  O   UNL     1      -2.863 -10.131  10.658  0.00  0.00    -0.471 OA
ENDBRANCH   3   2
ENDBRANCH   7   6
ENDBRANCH   8   7
ENDBRANCH   9   8
ENDBRANCH  10   9
TORSDOF 7
ENDMDL
MODEL 9
REMARK VINA RESULT:      -7.1     15.757     18.092
REMARK  Name = 
REMARK  7 active torsions:
REMARK  status: ('A' for Active; 'I' for Inactive)
REMARK    1  A    between atoms: O_2  and  C_3
REMARK    2  A    between atoms: C_6  and  C_7
REMARK    3  A    between atoms: C_7  and  N_8
REMARK    4  A    between atoms: N_8  and  C_9
REMARK    5  A    between atoms: C_9  and  C_10
REMARK    6  A    between atoms: C_17  and  C_18
REMARK    7  A    between atoms: C_20  and  C_24
REMARK                            x       y       z     vdW  Elec       q    Type
REMARK                         _______ _______ _______ _____ _____    ______ ____
ROOT
ATOM     10  C   UNL     1      -5.189  -9.696  11.727  0.00  0.00    +0.075 C 
ATOM     11  C   UNL     1      -5.167  -8.992  11.397  0.00  0.00    +0.018 C 
ATOM     12  C   UNL     1      -5.611  -8.754  10.763  0.00  0.00    +0.010 C 
ATOM     13  C   UNL     1      -5.438  -7.905  10.533  0.00  0.00    +0.018 C 
ATOM     14  C   UNL     1      -5.373  -8.451  10.885  0.00  0.00    +0.072 C 
ATOM     15  N   UNL     1      -5.638  -9.446  11.081  0.00  0.00    -0.272 NA
ATOM     16  C   UNL     1      -6.264  -9.872  10.573  0.00  0.00    +0.078 C 
ATOM     17  C   UNL     1      -6.213  -9.170  10.278  0.00  0.00    +0.056 C 
ENDROOT
BRANCH  17  18
ATOM     18  C   UNL     1      -6.634  -8.866   9.636  0.00  0.00    +0.058 A 
ATOM     19  C   UNL     1      -7.192  -8.259   9.667  0.00  0.00    +0.031 A 
ATOM     20  C   UNL     1      -7.474  -8.133   8.903  0.00  0.00    +0.079 A 
ATOM     21  N   UNL     1      -7.090  -8.662   8.399  0.00  0.00    -0.174 NA
ATOM     22  N   UNL     1      -6.571  -9.116   8.853  0.00  0.00    -0.253 N 
ATOM     23  C   UNL     1      -6.076  -9.713   8.572  0.00  0.00    +0.153 C 
BRANCH  20  24
ATOM     24  C   UNL     1      -8.040  -7.577   8.680  0.00  0.00    +0.042 C 
ATOM     25  C   UNL     1      -8.837  -7.583   8.894  0.00  0.00    +0.006 C 
ATOM     26  C   UNL     1      -9.199  -6.926   8.549  0.00  0.00    +0.000 C 
ATOM     27  C   UNL     1      -8.625  -6.513   8.124  0.00  0.00    +0.000 C 
ATOM     28  C   UNL     1      -7.909  -6.915   8.204  0.00  0.00    +0.006 C 
ENDBRANCH  20  24
ENDBRANCH  17  18
BRANCH  10   9
ATOM      9  C   UNL     1      -4.950 -10.254  12.285  0.00  0.00    +0.105 C 
BRANCH   9   8
ATOM      8  N   UNL     1      -4.255 -10.139  12.713  0.00  0.00    -0.212 NA
BRANCH   8   7
ATOM      7  C   UNL     1      -3.917 -10.768  13.128  0.00  0.00    +0.115 C 
BRANCH   7   6
ATOM      3  C   UNL     1      -1.941 -10.380  14.566  0.00  0.00    +0.139 A 
ATOM      4  C   UNL     1      -1.852 -10.420  13.746  0.00  0.00    +0.037 A 
ATOM      5  C   UNL     1      -2.511 -10.550  13.267  0.00  0.00    +0.000 A 
ATOM      6  C   UNL     1      -3.258 -10.638  13.607  0.00  0.00    -0.005 A 
ATOM     29  C   UNL     1      -3.345 -10.598  14.426  0.00  0.00    +0.000 A 
ATOM     30  C   UNL     1      -2.687 -10.469  14.905  0.00  0.00    +0.037 A 
BRANCH   3   2
ATOM      1  C   UNL     1      -1.317 -10.425  15.850  0.00  0.00    +0.252 C 
ATOM      2  O   UNL     1      -1.281 -10.251  15.044  0.00  0.00    -0.471 OA
ENDBRANCH   3   2
ENDBRANCH   7   6
ENDBRANCH   8   7
ENDBRANCH   9   8
ENDBRANCH  10   9
TORSDOF 7
ENDMDL
MODEL 10
REMARK VINA RESULT:      -7.0     14.686     16.932
REMARK  Name = 
REMARK  7 active torsions:
REMARK  status: ('A' for Active; 'I' for Inactive)
REMARK    1  A    between atoms: O_2  and  C_3
REMARK    2  A    between atoms: C_6  and  C_7
REMARK    3  A    between atoms: C_7  and  N_8
REMARK    4  A    between atoms: N_8  and  C_9
REMARK    5  A    between atoms: C_9  and  C_10
REMARK    6  A    between atoms: C_17  and  C_18
REMARK    7  A    between atoms: C_20  and  C_24
REMARK                            x       y       z     vdW  Elec       q    Type
REMARK                         _______ _______ _______ _____ _____    ______ ____
ROOT
ATOM     10  C   UNL     1      -4.939 -10.429  13.528  0.00  0.00    +0.075 C 
ATOM     11  C   UNL     1      -5.677 -10.610  13.696  0.00  0.00    +0.018 C 
ATOM     12  C   UNL     1      -6.036 -10.509  14.415  0.00  0.00    +0.010 C 
ATOM     13  C   UNL     1      -6.890 -10.781  14.403  0.00  0.00    +0.018 C 
ATOM     14  C   UNL     1      -6.298 -10.670  14.152  0.00  0.00    +0.072 C 
ATOM     15  N   UNL     1      -5.312 -10.328  14.258  0.00  0.00    -0.272 NA
ATOM     16  C   UNL     1      -5.015  -9.997  15.055  0.00  0.00    +0.078 C 
ATOM     17  C   UNL     1      -5.743 -10.189  15.178  0.00  0.00    +0.056 C 
ENDROOT
BRANCH  17  18
ATOM     18  C   UNL     1      -6.167 -10.112  15.883  0.00  0.00    +0.058 A 
ATOM     19  C   UNL     1      -6.935  -9.822  15.956  0.00  0.00    +0.031 A 
ATOM     20  C   UNL     1      -7.140  -9.842  16.754  0.00  0.00    +0.079 A 
ATOM     21  N   UNL     1      -6.498 -10.145  17.175  0.00  0.00    -0.174 NA
ATOM     22  N   UNL     1      -5.896 -10.312  16.635  0.00  0.00    -0.253 N 
ATOM     23  C   UNL     1      -5.154 -10.624  16.817  0.00  0.00    +0.153 C 
BRANCH  20  24
ATOM     24  C   UNL     1      -7.860  -9.602  17.078  0.00  0.00    +0.042 C 
ATOM     25  C   UNL     1      -8.204  -8.857  16.994  0.00  0.00    +0.006 C 
ATOM     26  C   UNL     1      -8.920  -8.859  17.406  0.00  0.00    +0.000 C 
ATOM     27  C   UNL     1      -9.017  -9.605  17.744  0.00  0.00    +0.000 C 
ATOM     28  C   UNL     1      -8.363 -10.064  17.541  0.00  0.00    +0.006 C 
ENDBRANCH  20  24
ENDBRANCH  17  18
BRANCH  10   9
ATOM      9  C   UNL     1      -4.292 -10.377  13.020  0.00  0.00    +0.105 C 
BRANCH   9   8
ATOM      8  N   UNL     1      -4.409 -10.251  12.214  0.00  0.00    -0.212 NA
BRANCH   8   7
ATOM      7  C   UNL     1      -3.760 -10.173  11.710  0.00  0.00    +0.115 C 
BRANCH   7   6
ATOM      3  C   UNL     1      -4.109  -9.640   9.319  0.00  0.00    +0.139 A 
ATOM      4  C   UNL     1      -4.068  -9.032   9.875  0.00  0.00    +0.037 A 
ATOM      5  C   UNL     1      -3.952  -9.210  10.672  0.00  0.00    +0.000 A 
ATOM      6  C   UNL     1      -3.876  -9.996  10.913  0.00  0.00    -0.005 A 
ATOM     29  C   UNL     1      -3.918 -10.603  10.356  0.00  0.00    +0.000 A 
ATOM     30  C   UNL     1      -4.034 -10.425   9.559  0.00  0.00    +0.037 A 
BRANCH   3   2
ATOM      1  C   UNL     1      -4.946  -9.639   8.161  0.00  0.00    +0.252 C 
ATOM      2  O   UNL     1      -4.225  -9.461   8.521  0.00  0.00    -0.471 OA
ENDBRANCH   3   2
ENDBRANCH   7   6
ENDBRANCH   8   7
ENDBRANCH   9   8
ENDBRANCH  10   9
TORSDOF 7
ENDMDL
