MODEL 1
REMARK VINA RESULT:     -14.4      0.000      0.000
REMARK  Name = 
REMARK  3 active torsions:
REMARK  status: ('A' for Active; 'I' for Inactive)
REMARK    1  A    between atoms: C_5  and  S_8
REMARK    2  A    between atoms: S_8  and  N_11
REMARK    3  A    between atoms: C_20  and  C_21
REMARK                            x       y       z     vdW  Elec       q    Type
REMARK                         _______ _______ _______ _____ _____    ______ ____
ROOT
ATOM     11  N   UNL     1      -4.584   0.937  24.774  0.00  0.00    -0.155 NA
ATOM     12  C   UNL     1      -5.160   1.540  24.719  0.00  0.00    +0.098 C 
ATOM     13  C   UNL     1      -4.569   2.331  24.692  0.00  0.00    +0.041 C 
ATOM     14  C   UNL     1      -4.228   3.070  24.660  0.00  0.00    +0.011 C 
ATOM     15  C   UNL     1      -4.016   2.402  24.707  0.00  0.00    +0.056 C 
ATOM     16  C   UNL     1      -4.601   1.648  24.732  0.00  0.00    +0.102 C 
ATOM     17  C   UNL     1      -3.256   1.890  24.763  0.00  0.00    +0.041 A 
ATOM     18  C   UNL     1      -2.434   1.962  24.787  0.00  0.00    +0.013 A 
ATOM     19  C   UNL     1      -1.962   1.288  24.843  0.00  0.00    +0.006 A 
ATOM     20  C   UNL     1      -2.311   0.541  24.875  0.00  0.00    +0.062 A 
ATOM     26  C   UNL     1      -3.133   0.468  24.852  0.00  0.00    +0.261 A 
ATOM     27  O   UNL     1      -3.482  -0.279  24.884  0.00  0.00    -0.267 OA
ATOM     28  N   UNL     1      -3.605   1.143  24.796  0.00  0.00    -0.299 N 
ATOM     29  C   UNL     1      -3.780   1.787  24.752  0.00  0.00    +0.110 C 
ENDROOT
BRANCH  20  21
ATOM     21  C   UNL     1      -1.839  -0.132  24.931  0.00  0.00    +0.034 A 
ATOM     22  C   UNL     1      -1.571  -0.590  24.300  0.00  0.00    +0.007 A 
ATOM     23  C   UNL     1      -1.117  -1.207  24.605  0.00  0.00    +0.007 A 
ATOM     24  C   UNL     1      -1.105  -1.131  25.427  0.00  0.00    +0.035 A 
ATOM     25  S   UNL     1      -1.550  -0.466  25.628  0.00  0.00    -0.086 S 
ENDBRANCH  20  21
BRANCH  11   8
ATOM      8  S   UNL     1      -4.270   0.176  24.830  0.00  0.00    +0.063 S 
ATOM      9  O   UNL     1      -4.325   0.213  25.653  0.00  0.00    -0.153 OA
ATOM     10  O   UNL     1      -4.214   0.138  24.007  0.00  0.00    -0.153 OA
BRANCH   8   5
ATOM      1  F   UNL     1      -3.011  -2.867  25.052  0.00  0.00    -0.204 F 
ATOM      2  C   UNL     1      -3.326  -2.106  24.997  0.00  0.00    +0.140 A 
ATOM      3  C   UNL     1      -3.490  -1.781  24.257  0.00  0.00    +0.031 A 
ATOM      4  C   UNL     1      -3.805  -1.020  24.201  0.00  0.00    +0.022 A 
ATOM      5  C   UNL     1      -3.955  -0.585  24.886  0.00  0.00    +0.122 A 
ATOM      6  C   UNL     1      -3.791  -0.910  25.625  0.00  0.00    +0.022 A 
ATOM      7  C   UNL     1      -3.476  -1.671  25.681  0.00  0.00    +0.031 A 
ENDBRANCH   8   5
ENDBRANCH  11   8
TORSDOF 3
ENDMDL
MODEL 2
REMARK VINA RESULT:     -14.1      2.619      3.676
REMARK  Name = 
REMARK  3 active torsions:
REMARK  status: ('A' for Active; 'I' for Inactive)
REMARK    1  A    between atoms: C_5  and  S_8
REMARK    2  A    between atoms: S_8  and  N_11
REMARK    3  A    between atoms: C_20  and  C_21
REMARK                            x       y       z     vdW  Elec       q    Type
REMARK                         _______ _______ _______ _____ _____    ______ ____
ROOT
ATOM     11  N   UNL     1      -4.757   3.251  25.392  0.00  0.00    -0.155 NA
ATOM     12  C   UNL     1      -5.584   3.265  25.509  0.00  0.00    +0.098 C 
ATOM     13  C   UNL     1      -5.805   2.338  25.247  0.00  0.00    +0.041 C 
ATOM     14  C   UNL     1      -6.146   1.621  25.066  0.00  0.00    +0.011 C 
ATOM     15  C   UNL     1      -5.504   1.904  25.068  0.00  0.00    +0.056 C 
ATOM     16  C   UNL     1      -5.307   2.802  25.325  0.00  0.00    +0.102 C 
ATOM     17  C   UNL     1      -4.626   1.702  24.885  0.00  0.00    +0.041 A 
ATOM     18  C   UNL     1      -4.154   1.078  24.623  0.00  0.00    +0.013 A 
ATOM     19  C   UNL     1      -3.339   1.183  24.545  0.00  0.00    +0.006 A 
ATOM     20  C   UNL     1      -2.997   1.911  24.729  0.00  0.00    +0.062 A 
ATOM     26  C   UNL     1      -3.469   2.534  24.990  0.00  0.00    +0.261 A 
ATOM     27  O   UNL     1      -3.127   3.263  25.173  0.00  0.00    -0.267 OA
ATOM     28  N   UNL     1      -4.284   2.430  25.068  0.00  0.00    -0.299 N 
ATOM     29  C   UNL     1      -4.885   2.136  25.057  0.00  0.00    +0.110 C 
ENDROOT
BRANCH  20  21
ATOM     21  C   UNL     1      -2.183   2.015  24.650  0.00  0.00    +0.034 A 
ATOM     22  C   UNL     1      -1.621   1.911  25.246  0.00  0.00    +0.007 A 
ATOM     23  C   UNL     1      -0.878   2.072  24.928  0.00  0.00    +0.007 A 
ATOM     24  C   UNL     1      -0.980   2.276  24.134  0.00  0.00    +0.035 A 
ATOM     25  S   UNL     1      -1.786   2.240  23.963  0.00  0.00    -0.086 S 
ENDBRANCH  20  21
BRANCH  11   8
ATOM      8  S   UNL     1      -3.978   3.522  25.371  0.00  0.00    +0.063 S 
ATOM      9  O   UNL     1      -3.875   3.286  26.155  0.00  0.00    -0.153 OA
ATOM     10  O   UNL     1      -4.081   3.758  24.587  0.00  0.00    -0.153 OA
BRANCH   8   5
ATOM      1  F   UNL     1      -0.862   4.607  25.289  0.00  0.00    -0.204 F 
ATOM      2  C   UNL     1      -1.641   4.335  25.310  0.00  0.00    +0.140 A 
ATOM      3  C   UNL     1      -1.940   3.991  25.997  0.00  0.00    +0.031 A 
ATOM      4  C   UNL     1      -2.719   3.720  26.018  0.00  0.00    +0.022 A 
ATOM      5  C   UNL     1      -3.199   3.793  25.351  0.00  0.00    +0.122 A 
ATOM      6  C   UNL     1      -2.900   4.138  24.664  0.00  0.00    +0.022 A 
ATOM      7  C   UNL     1      -2.121   4.409  24.643  0.00  0.00    +0.031 A 
ENDBRANCH   8   5
ENDBRANCH  11   8
TORSDOF 3
ENDMDL
MODEL 3
REMARK VINA RESULT:     -14.0      1.563      3.190
REMARK  Name = 
REMARK  3 active torsions:
REMARK  status: ('A' for Active; 'I' for Inactive)
REMARK    1  A    between atoms: C_5  and  S_8
REMARK    2  A    between atoms: S_8  and  N_11
REMARK    3  A    between atoms: C_20  and  C_21
REMARK                            x       y       z     vdW  Elec       q    Type
REMARK                         _______ _______ _______ _____ _____    ______ ____
ROOT
ATOM     11  N   UNL     1      -3.977  -0.613  24.216  0.00  0.00    -0.155 NA
ATOM     12  C   UNL     1      -4.421  -1.318  24.146  0.00  0.00    +0.098 C 
ATOM     13  C   UNL     1      -3.764  -1.963  24.504  0.00  0.00    +0.041 C 
ATOM     14  C   UNL     1      -3.345  -2.610  24.769  0.00  0.00    +0.011 C 
ATOM     15  C   UNL     1      -3.246  -1.918  24.704  0.00  0.00    +0.056 C 
ATOM     16  C   UNL     1      -3.891  -1.306  24.355  0.00  0.00    +0.102 C 
ATOM     17  C   UNL     1      -2.619  -1.262  24.855  0.00  0.00    +0.041 A 
ATOM     18  C   UNL     1      -1.854  -1.163  25.146  0.00  0.00    +0.013 A 
ATOM     19  C   UNL     1      -1.516  -0.410  25.167  0.00  0.00    +0.006 A 
ATOM     20  C   UNL     1      -1.943   0.242  24.898  0.00  0.00    +0.062 A 
ATOM     26  C   UNL     1      -2.709   0.142  24.608  0.00  0.00    +0.261 A 
ATOM     27  O   UNL     1      -3.137   0.795  24.339  0.00  0.00    -0.267 OA
ATOM     28  N   UNL     1      -3.047  -0.610  24.587  0.00  0.00    -0.299 N 
ATOM     29  C   UNL     1      -3.116  -1.272  24.659  0.00  0.00    +0.110 C 
ENDROOT
BRANCH  20  21
ATOM     21  C   UNL     1      -1.605   0.994  24.920  0.00  0.00    +0.034 A 
ATOM     22  C   UNL     1      -1.680   1.542  25.532  0.00  0.00    +0.007 A 
ATOM     23  C   UNL     1      -1.254   2.216  25.325  0.00  0.00    +0.007 A 
ATOM     24  C   UNL     1      -0.914   2.085  24.584  0.00  0.00    +0.035 A 
ATOM     25  S   UNL     1      -1.131   1.330  24.334  0.00  0.00    -0.086 S 
ENDBRANCH  20  21
BRANCH  11   8
ATOM      8  S   UNL     1      -3.796   0.191  24.167  0.00  0.00    +0.063 S 
ATOM      9  O   UNL     1      -3.492   0.076  23.408  0.00  0.00    -0.153 OA
ATOM     10  O   UNL     1      -4.101   0.305  24.926  0.00  0.00    -0.153 OA
BRANCH   8   5
ATOM      1  F   UNL     1      -3.074   3.405  23.971  0.00  0.00    -0.204 F 
ATOM      2  C   UNL     1      -3.254   2.601  24.020  0.00  0.00    +0.140 A 
ATOM      3  C   UNL     1      -3.616   2.300  24.698  0.00  0.00    +0.031 A 
ATOM      4  C   UNL     1      -3.797   1.496  24.747  0.00  0.00    +0.022 A 
ATOM      5  C   UNL     1      -3.616   0.994  24.118  0.00  0.00    +0.122 A 
ATOM      6  C   UNL     1      -3.254   1.295  23.441  0.00  0.00    +0.022 A 
ATOM      7  C   UNL     1      -3.073   2.099  23.392  0.00  0.00    +0.031 A 
ENDBRANCH   8   5
ENDBRANCH  11   8
TORSDOF 3
ENDMDL
MODEL 4
REMARK VINA RESULT:     -13.9      1.048      2.169
REMARK  Name = 
REMARK  3 active torsions:
REMARK  status: ('A' for Active; 'I' for Inactive)
REMARK    1  A    between atoms: C_5  and  S_8
REMARK    2  A    between atoms: S_8  and  N_11
REMARK    3  A    between atoms: C_20  and  C_21
REMARK                            x       y       z     vdW  Elec       q    Type
REMARK                         _______ _______ _______ _____ _____    ______ ____
ROOT
ATOM     11  N   UNL     1      -2.407   1.741  24.546  0.00  0.00    -0.155 NA
ATOM     12  C   UNL     1      -2.432   2.561  24.389  0.00  0.00    +0.098 C 
ATOM     13  C   UNL     1      -3.411   2.694  24.358  0.00  0.00    +0.041 C 
ATOM     14  C   UNL     1      -4.177   2.965  24.301  0.00  0.00    +0.011 C 
ATOM     15  C   UNL     1      -3.850   2.356  24.420  0.00  0.00    +0.056 C 
ATOM     16  C   UNL     1      -2.902   2.244  24.447  0.00  0.00    +0.102 C 
ATOM     17  C   UNL     1      -4.019   1.468  24.589  0.00  0.00    +0.041 A 
ATOM     18  C   UNL     1      -4.647   0.943  24.685  0.00  0.00    +0.013 A 
ATOM     19  C   UNL     1      -4.499   0.146  24.838  0.00  0.00    +0.006 A 
ATOM     20  C   UNL     1      -3.721  -0.125  24.895  0.00  0.00    +0.062 A 
ATOM     26  C   UNL     1      -3.093   0.400  24.798  0.00  0.00    +0.261 A 
ATOM     27  O   UNL     1      -2.316   0.128  24.855  0.00  0.00    -0.267 OA
ATOM     28  N   UNL     1      -3.241   1.197  24.645  0.00  0.00    -0.299 N 
ATOM     29  C   UNL     1      -3.577   1.765  24.535  0.00  0.00    +0.110 C 
ENDROOT
BRANCH  20  21
ATOM     21  C   UNL     1      -3.574  -0.922  25.048  0.00  0.00    +0.034 A 
ATOM     22  C   UNL     1      -3.444  -1.257  25.791  0.00  0.00    +0.007 A 
ATOM     23  C   UNL     1      -3.320  -2.066  25.689  0.00  0.00    +0.007 A 
ATOM     24  C   UNL     1      -3.373  -2.231  24.881  0.00  0.00    +0.035 A 
ATOM     25  S   UNL     1      -3.530  -1.525  24.486  0.00  0.00    -0.086 S 
ENDBRANCH  20  21
BRANCH  11   8
ATOM      8  S   UNL     1      -2.086   0.995  24.691  0.00  0.00    +0.063 S 
ATOM      9  O   UNL     1      -2.088   0.837  23.881  0.00  0.00    -0.153 OA
ATOM     10  O   UNL     1      -2.084   1.152  25.501  0.00  0.00    -0.153 OA
BRANCH   8   5
ATOM      1  F   UNL     1      -0.802  -1.990  25.269  0.00  0.00    -0.204 F 
ATOM      2  C   UNL     1      -1.123  -1.244  25.125  0.00  0.00    +0.140 A 
ATOM      3  C   UNL     1      -1.286  -0.736  25.754  0.00  0.00    +0.031 A 
ATOM      4  C   UNL     1      -1.607   0.010  25.609  0.00  0.00    +0.022 A 
ATOM      5  C   UNL     1      -1.765   0.248  24.836  0.00  0.00    +0.122 A 
ATOM      6  C   UNL     1      -1.602  -0.260  24.206  0.00  0.00    +0.022 A 
ATOM      7  C   UNL     1      -1.281  -1.006  24.351  0.00  0.00    +0.031 A 
ENDBRANCH   8   5
ENDBRANCH  11   8
TORSDOF 3
ENDMDL
MODEL 5
REMARK VINA RESULT:     -13.7      1.746      3.618
REMARK  Name = 
REMARK  3 active torsions:
REMARK  status: ('A' for Active; 'I' for Inactive)
REMARK    1  A    between atoms: C_5  and  S_8
REMARK    2  A    between atoms: S_8  and  N_11
REMARK    3  A    between atoms: C_20  and  C_21
REMARK                            x       y       z     vdW  Elec       q    Type
REMARK                         _______ _______ _______ _____ _____    ______ ____
ROOT
ATOM     11  N   UNL     1      -1.995  -1.470  24.825  0.00  0.00    -0.155 NA
ATOM     12  C   UNL     1      -1.990  -2.300  24.921  0.00  0.00    +0.098 C 
ATOM     13  C   UNL     1      -2.930  -2.498  24.690  0.00  0.00    +0.041 C 
ATOM     14  C   UNL     1      -3.660  -2.823  24.530  0.00  0.00    +0.011 C 
ATOM     15  C   UNL     1      -3.366  -2.186  24.536  0.00  0.00    +0.056 C 
ATOM     16  C   UNL     1      -2.455  -2.010  24.762  0.00  0.00    +0.102 C 
ATOM     17  C   UNL     1      -3.560  -1.301  24.382  0.00  0.00    +0.041 A 
ATOM     18  C   UNL     1      -4.185  -0.812  24.157  0.00  0.00    +0.013 A 
ATOM     19  C   UNL     1      -4.069   0.002  24.095  0.00  0.00    +0.006 A 
ATOM     20  C   UNL     1      -3.329   0.328  24.258  0.00  0.00    +0.062 A 
ATOM     26  C   UNL     1      -2.704  -0.161  24.483  0.00  0.00    +0.261 A 
ATOM     27  O   UNL     1      -1.963   0.164  24.646  0.00  0.00    -0.267 OA
ATOM     28  N   UNL     1      -2.819  -0.975  24.545  0.00  0.00    -0.299 N 
ATOM     29  C   UNL     1      -3.124  -1.572  24.531  0.00  0.00    +0.110 C 
ENDROOT
BRANCH  20  21
ATOM     21  C   UNL     1      -3.214   1.142  24.196  0.00  0.00    +0.034 A 
ATOM     22  C   UNL     1      -2.944   1.544  23.527  0.00  0.00    +0.007 A 
ATOM     23  C   UNL     1      -2.912   2.348  23.708  0.00  0.00    +0.007 A 
ATOM     24  C   UNL     1      -3.162   2.443  24.489  0.00  0.00    +0.035 A 
ATOM     25  S   UNL     1      -3.349   1.698  24.790  0.00  0.00    -0.086 S 
ENDBRANCH  20  21
BRANCH  11   8
ATOM      8  S   UNL     1      -1.711  -0.695  24.812  0.00  0.00    +0.063 S 
ATOM      9  O   UNL     1      -1.936  -0.600  25.601  0.00  0.00    -0.153 OA
ATOM     10  O   UNL     1      -1.486  -0.790  24.024  0.00  0.00    -0.153 OA
BRANCH   8   5
ATOM      1  F   UNL     1      -0.577   2.404  24.764  0.00  0.00    -0.204 F 
ATOM      2  C   UNL     1      -0.860   1.629  24.776  0.00  0.00    +0.140 A 
ATOM      3  C   UNL     1      -1.184   1.319  25.468  0.00  0.00    +0.031 A 
ATOM      4  C   UNL     1      -1.468   0.544  25.481  0.00  0.00    +0.022 A 
ATOM      5  C   UNL     1      -1.427   0.080  24.800  0.00  0.00    +0.122 A 
ATOM      6  C   UNL     1      -1.104   0.389  24.108  0.00  0.00    +0.022 A 
ATOM      7  C   UNL     1      -0.820   1.164  24.096  0.00  0.00    +0.031 A 
ENDBRANCH   8   5
ENDBRANCH  11   8
TORSDOF 3
ENDMDL
MODEL 6
REMARK VINA RESULT:     -13.6      1.988      2.802
REMARK  Name = 
REMARK  3 active torsions:
REMARK  status: ('A' for Active; 'I' for Inactive)
REMARK    1  A    between atoms: C_5  and  S_8
REMARK    2  A    between atoms: S_8  and  N_11
REMARK    3  A    between atoms: C_20  and  C_21
REMARK                            x       y       z     vdW  Elec       q    Type
REMARK                         _______ _______ _______ _____ _____    ______ ____
ROOT
ATOM     11  N   UNL     1      -4.371   2.048  24.643  0.00  0.00    -0.155 NA
ATOM     12  C   UNL     1      -5.205   2.028  24.677  0.00  0.00    +0.098 C 
ATOM     13  C   UNL     1      -5.367   2.823  25.242  0.00  0.00    +0.041 C 
ATOM     14  C   UNL     1      -5.664   3.436  25.688  0.00  0.00    +0.011 C 
ATOM     15  C   UNL     1      -5.035   3.199  25.486  0.00  0.00    +0.056 C 
ATOM     16  C   UNL     1      -4.895   2.429  24.939  0.00  0.00    +0.102 C 
ATOM     17  C   UNL     1      -4.138   3.381  25.562  0.00  0.00    +0.041 A 
ATOM     18  C   UNL     1      -3.621   3.921  25.910  0.00  0.00    +0.013 A 
ATOM     19  C   UNL     1      -2.807   3.839  25.806  0.00  0.00    +0.006 A 
ATOM     20  C   UNL     1      -2.509   3.216  25.354  0.00  0.00    +0.062 A 
ATOM     26  C   UNL     1      -3.026   2.676  25.005  0.00  0.00    +0.261 A 
ATOM     27  O   UNL     1      -2.729   2.053  24.553  0.00  0.00    -0.267 OA
ATOM     28  N   UNL     1      -3.840   2.758  25.109  0.00  0.00    -0.299 N 
ATOM     29  C   UNL     1      -4.427   3.005  25.316  0.00  0.00    +0.110 C 
ENDROOT
BRANCH  20  21
ATOM     21  C   UNL     1      -1.695   3.135  25.250  0.00  0.00    +0.034 A 
ATOM     22  C   UNL     1      -1.190   2.681  25.719  0.00  0.00    +0.007 A 
ATOM     23  C   UNL     1      -0.426   2.757  25.419  0.00  0.00    +0.007 A 
ATOM     24  C   UNL     1      -0.458   3.259  24.764  0.00  0.00    +0.035 A 
ATOM     25  S   UNL     1      -1.243   3.492  24.660  0.00  0.00    -0.086 S 
ENDBRANCH  20  21
BRANCH  11   8
ATOM      8  S   UNL     1      -3.603   1.822  24.441  0.00  0.00    +0.063 S 
ATOM      9  O   UNL     1      -3.567   1.344  25.113  0.00  0.00    -0.153 OA
ATOM     10  O   UNL     1      -3.639   2.301  23.770  0.00  0.00    -0.153 OA
BRANCH   8   5
ATOM      1  F   UNL     1      -0.533   0.919  23.634  0.00  0.00    -0.204 F 
ATOM      2  C   UNL     1      -1.301   1.145  23.836  0.00  0.00    +0.140 A 
ATOM      3  C   UNL     1      -1.717   1.668  23.353  0.00  0.00    +0.031 A 
ATOM      4  C   UNL     1      -2.485   1.894  23.555  0.00  0.00    +0.022 A 
ATOM      5  C   UNL     1      -2.835   1.596  24.240  0.00  0.00    +0.122 A 
ATOM      6  C   UNL     1      -2.419   1.074  24.723  0.00  0.00    +0.022 A 
ATOM      7  C   UNL     1      -1.651   0.848  24.521  0.00  0.00    +0.031 A 
ENDBRANCH   8   5
ENDBRANCH  11   8
TORSDOF 3
ENDMDL
