MODEL 1
REMARK VINA RESULT:      -8.6      0.000      0.000
REMARK  Name = 
REMARK  8 active torsions:
REMARK  status: ('A' for Active; 'I' for Inactive)
REMARK    1  A    between atoms: O_2  and  C_3
REMARK    2  A    between atoms: C_6  and  C_7
REMARK    3  A    between atoms: C_7  and  N_8
REMARK    4  A    between atoms: C_9  and  C_11
REMARK    5  A    between atoms: C_11  and  C_12
REMARK    6  A    between atoms: C_12  and  C_13
REMARK    7  A    between atoms: N_22  and  C_23
REMARK    8  A    between atoms: C_23  and  C_24
REMARK                            x       y       z     vdW  Elec       q    Type
REMARK                         _______ _______ _______ _____ _____    ______ ____
ROOT
ATOM     13  C   UNL     1      -0.153   0.878  23.781  0.00  0.00    +0.080 C 
ATOM     14  C   UNL     1      -0.048   1.680  23.618  0.00  0.00    +0.131 C 
ATOM     15  N   UNL     1      -0.549   2.312  23.798  0.00  0.00    -0.203 NA
ATOM     16  C   UNL     1      -1.277   2.296  24.186  0.00  0.00    +0.257 C 
ATOM     17  O   UNL     1      -1.646   3.027  24.283  0.00  0.00    -0.272 OA
ATOM     18  C   UNL     1      -1.685   1.647  24.489  0.00  0.00    +0.152 C 
ATOM     19  C   UNL     1      -1.465   0.852  24.480  0.00  0.00    +0.083 C 
ATOM     20  C   UNL     1      -2.060   0.418  24.853  0.00  0.00    +0.035 C 
ATOM     21  C   UNL     1      -2.647   0.946  25.093  0.00  0.00    +0.074 C 
ATOM     22  N   UNL     1      -2.415   1.705  24.868  0.00  0.00    -0.259 NA
ATOM     34  N   UNL     1      -0.784   0.510  24.165  0.00  0.00    -0.271 NA
ATOM     35  C   UNL     1      -0.725  -0.309  24.244  0.00  0.00    +0.090 C 
ENDROOT
BRANCH  13  12
ATOM     12  C   UNL     1       0.452   0.379  23.527  0.00  0.00    +0.027 C 
BRANCH  12  11
ATOM     11  C   UNL     1       1.035   0.663  23.016  0.00  0.00    +0.088 C 
BRANCH  11   9
ATOM      8  N   UNL     1       2.412   0.288  22.981  0.00  0.00    -0.201 NA
ATOM      9  C   UNL     1       1.631   0.160  22.749  0.00  0.00    +0.242 C 
ATOM     10  O   UNL     1       1.446  -0.470  22.251  0.00  0.00    -0.273 OA
BRANCH   8   7
ATOM      7  C   UNL     1       3.009  -0.216  22.714  0.00  0.00    +0.141 C 
BRANCH   7   6
ATOM      3  C   UNL     1       5.310   0.015  23.598  0.00  0.00    +0.139 A 
ATOM      4  C   UNL     1       4.881  -0.675  23.740  0.00  0.00    +0.037 A 
ATOM      5  C   UNL     1       4.114  -0.752  23.446  0.00  0.00    +0.001 A 
ATOM      6  C   UNL     1       3.776  -0.139  23.009  0.00  0.00    -0.000 A 
ATOM     36  C   UNL     1       4.205   0.551  22.866  0.00  0.00    +0.001 A 
ATOM     37  C   UNL     1       4.972   0.628  23.161  0.00  0.00    +0.037 A 
BRANCH   3   2
ATOM      1  C   UNL     1       6.710  -0.241  23.483  0.00  0.00    +0.252 C 
ATOM      2  O   UNL     1       6.076   0.092  23.892  0.00  0.00    -0.471 OA
ENDBRANCH   3   2
ENDBRANCH   7   6
ENDBRANCH   8   7
ENDBRANCH  11   9
ENDBRANCH  12  11
ENDBRANCH  13  12
BRANCH  22  23
ATOM     23  C   UNL     1      -2.839   2.400  25.000  0.00  0.00    +0.137 C 
BRANCH  23  24
ATOM     24  C   UNL     1      -3.659   2.373  25.091  0.00  0.00    +0.137 A 
ATOM     25  N   UNL     1      -4.163   1.802  24.775  0.00  0.00    -0.230 NA
ATOM     26  C   UNL     1      -4.933   1.988  25.003  0.00  0.00    +0.098 A 
ATOM     27  C   UNL     1      -4.905   2.674  25.461  0.00  0.00    +0.079 A 
ATOM     28  C   UNL     1      -5.601   2.993  25.769  0.00  0.00    +0.019 A 
ATOM     29  C   UNL     1      -6.324   2.627  25.619  0.00  0.00    +0.002 A 
ATOM     30  C   UNL     1      -6.352   1.941  25.162  0.00  0.00    +0.002 A 
ATOM     31  C   UNL     1      -5.657   1.621  24.853  0.00  0.00    +0.021 A 
ATOM     32  N   UNL     1      -4.117   2.912  25.515  0.00  0.00    -0.312 N 
ATOM     33  C   UNL     1      -3.837   3.572  25.922  0.00  0.00    +0.132 C 
ENDBRANCH  23  24
ENDBRANCH  22  23
TORSDOF 8
ENDMDL
MODEL 2
REMARK VINA RESULT:      -7.3     16.634     18.487
REMARK  Name = 
REMARK  8 active torsions:
REMARK  status: ('A' for Active; 'I' for Inactive)
REMARK    1  A    between atoms: O_2  and  C_3
REMARK    2  A    between atoms: C_6  and  C_7
REMARK    3  A    between atoms: C_7  and  N_8
REMARK    4  A    between atoms: C_9  and  C_11
REMARK    5  A    between atoms: C_11  and  C_12
REMARK    6  A    between atoms: C_12  and  C_13
REMARK    7  A    between atoms: N_22  and  C_23
REMARK    8  A    between atoms: C_23  and  C_24
REMARK                            x       y       z     vdW  Elec       q    Type
REMARK                         _______ _______ _______ _____ _____    ______ ____
ROOT
ATOM     13  C   UNL     1      -6.088  -9.122  10.674  0.00  0.00    +0.080 C 
ATOM     14  C   UNL     1      -6.675  -9.136  11.254  0.00  0.00    +0.131 C 
ATOM     15  N   UNL     1      -6.622  -9.402  12.034  0.00  0.00    -0.203 NA
ATOM     16  C   UNL     1      -5.969  -9.718  12.426  0.00  0.00    +0.257 C 
ATOM     17  O   UNL     1      -6.093  -9.934  13.212  0.00  0.00    -0.272 OA
ATOM     18  C   UNL     1      -5.208  -9.848  12.136  0.00  0.00    +0.152 C 
ATOM     19  C   UNL     1      -4.912  -9.692  11.382  0.00  0.00    +0.083 C 
ATOM     20  C   UNL     1      -4.118  -9.920  11.368  0.00  0.00    +0.035 C 
ATOM     21  C   UNL     1      -3.924 -10.215  12.113  0.00  0.00    +0.074 C 
ATOM     22  N   UNL     1      -4.598 -10.171  12.588  0.00  0.00    -0.259 NA
ATOM     34  N   UNL     1      -5.303  -9.370  10.732  0.00  0.00    -0.271 NA
ATOM     35  C   UNL     1      -4.850  -9.283  10.048  0.00  0.00    +0.090 C 
ENDROOT
BRANCH  13  12
ATOM     12  C   UNL     1      -6.315  -8.820   9.941  0.00  0.00    +0.027 C 
BRANCH  12  11
ATOM     11  C   UNL     1      -7.114  -8.686   9.781  0.00  0.00    +0.088 C 
BRANCH  11   9
ATOM      8  N   UNL     1      -7.877  -7.704   9.077  0.00  0.00    -0.201 NA
ATOM      9  C   UNL     1      -7.337  -8.328   9.072  0.00  0.00    +0.242 C 
ATOM     10  O   UNL     1      -7.021  -8.593   8.358  0.00  0.00    -0.273 OA
BRANCH   8   7
ATOM      7  C   UNL     1      -8.101  -7.346   8.368  0.00  0.00    +0.141 C 
BRANCH   7   6
ATOM      3  C   UNL     1      -9.728  -5.481   8.383  0.00  0.00    +0.139 A 
ATOM      4  C   UNL     1      -9.993  -6.259   8.448  0.00  0.00    +0.037 A 
ATOM      5  C   UNL     1      -9.450  -6.882   8.443  0.00  0.00    +0.001 A 
ATOM      6  C   UNL     1      -8.643  -6.724   8.373  0.00  0.00    -0.000 A 
ATOM     36  C   UNL     1      -8.378  -5.946   8.308  0.00  0.00    +0.001 A 
ATOM     37  C   UNL     1      -8.921  -5.324   8.313  0.00  0.00    +0.037 A 
BRANCH   3   2
ATOM      1  C   UNL     1     -10.445  -4.471   9.094  0.00  0.00    +0.252 C 
ATOM      2  O   UNL     1     -10.270  -4.860   8.388  0.00  0.00    -0.471 OA
ENDBRANCH   3   2
ENDBRANCH   7   6
ENDBRANCH   8   7
ENDBRANCH  11   9
ENDBRANCH  12  11
ENDBRANCH  13  12
BRANCH  22  23
ATOM     23  C   UNL     1      -4.651 -10.408  13.376  0.00  0.00    +0.137 C 
BRANCH  23  24
ATOM     24  C   UNL     1      -3.969 -10.476  13.834  0.00  0.00    +0.137 A 
ATOM     25  N   UNL     1      -3.193 -10.403  13.563  0.00  0.00    -0.230 NA
ATOM     26  C   UNL     1      -2.687 -10.511  14.204  0.00  0.00    +0.098 A 
ATOM     27  C   UNL     1      -3.150 -10.652  14.873  0.00  0.00    +0.079 A 
ATOM     28  C   UNL     1      -2.789 -10.781  15.604  0.00  0.00    +0.019 A 
ATOM     29  C   UNL     1      -1.967 -10.770  15.666  0.00  0.00    +0.002 A 
ATOM     30  C   UNL     1      -1.505 -10.629  14.998  0.00  0.00    +0.002 A 
ATOM     31  C   UNL     1      -1.864 -10.500  14.267  0.00  0.00    +0.021 A 
ATOM     32  N   UNL     1      -3.942 -10.630  14.645  0.00  0.00    -0.312 N 
ATOM     33  C   UNL     1      -4.592 -10.743  15.138  0.00  0.00    +0.132 C 
ENDBRANCH  23  24
ENDBRANCH  22  23
TORSDOF 8
ENDMDL
MODEL 3
REMARK VINA RESULT:      -7.2      3.316      6.308
REMARK  Name = 
REMARK  8 active torsions:
REMARK  status: ('A' for Active; 'I' for Inactive)
REMARK    1  A    between atoms: O_2  and  C_3
REMARK    2  A    between atoms: C_6  and  C_7
REMARK    3  A    between atoms: C_7  and  N_8
REMARK    4  A    between atoms: C_9  and  C_11
REMARK    5  A    between atoms: C_11  and  C_12
REMARK    6  A    between atoms: C_12  and  C_13
REMARK    7  A    between atoms: N_22  and  C_23
REMARK    8  A    between atoms: C_23  and  C_24
REMARK                            x       y       z     vdW  Elec       q    Type
REMARK                         _______ _______ _______ _____ _____    ______ ____
ROOT
ATOM     13  C   UNL     1      -0.459   2.489  25.014  0.00  0.00    +0.080 C 
ATOM     14  C   UNL     1      -0.435   2.229  25.797  0.00  0.00    +0.131 C 
ATOM     15  N   UNL     1      -0.546   1.464  26.089  0.00  0.00    -0.203 NA
ATOM     16  C   UNL     1      -0.708   0.773  25.670  0.00  0.00    +0.257 C 
ATOM     17  O   UNL     1      -0.790   0.089  26.124  0.00  0.00    -0.272 OA
ATOM     18  C   UNL     1      -0.799   0.673  24.856  0.00  0.00    +0.152 C 
ATOM     19  C   UNL     1      -0.750   1.242  24.260  0.00  0.00    +0.083 C 
ATOM     20  C   UNL     1      -0.882   0.866  23.537  0.00  0.00    +0.035 C 
ATOM     21  C   UNL     1      -1.012   0.065  23.686  0.00  0.00    +0.074 C 
ATOM     22  N   UNL     1      -0.961  -0.053  24.502  0.00  0.00    -0.259 NA
ATOM     34  N   UNL     1      -0.599   2.049  24.330  0.00  0.00    -0.271 NA
ATOM     35  C   UNL     1      -0.585   2.475  23.624  0.00  0.00    +0.090 C 
ENDROOT
BRANCH  13  12
ATOM     12  C   UNL     1      -0.324   3.295  24.901  0.00  0.00    +0.027 C 
BRANCH  12  11
ATOM     11  C   UNL     1      -0.575   3.839  25.469  0.00  0.00    +0.088 C 
BRANCH  11   9
ATOM      8  N   UNL     1      -1.983   4.072  25.526  0.00  0.00    -0.201 NA
ATOM      9  C   UNL     1      -1.226   4.323  25.318  0.00  0.00    +0.242 C 
ATOM     10  O   UNL     1      -1.119   5.057  24.958  0.00  0.00    -0.273 OA
BRANCH   8   7
ATOM      7  C   UNL     1      -2.635   4.556  25.375  0.00  0.00    +0.141 C 
BRANCH   7   6
ATOM      3  C   UNL     1      -4.918   3.601  25.397  0.00  0.00    +0.139 A 
ATOM      4  C   UNL     1      -4.556   3.786  24.680  0.00  0.00    +0.037 A 
ATOM      5  C   UNL     1      -3.794   4.105  24.672  0.00  0.00    +0.001 A 
ATOM      6  C   UNL     1      -3.395   4.238  25.382  0.00  0.00    -0.000 A 
ATOM     36  C   UNL     1      -3.757   4.052  26.100  0.00  0.00    +0.001 A 
ATOM     37  C   UNL     1      -4.519   3.733  26.107  0.00  0.00    +0.037 A 
BRANCH   3   2
ATOM      1  C   UNL     1      -5.784   2.468  25.482  0.00  0.00    +0.252 C 
ATOM      2  O   UNL     1      -5.678   3.282  25.405  0.00  0.00    -0.471 OA
ENDBRANCH   3   2
ENDBRANCH   7   6
ENDBRANCH   8   7
ENDBRANCH  11   9
ENDBRANCH  12  11
ENDBRANCH  13  12
BRANCH  22  23
ATOM     23  C   UNL     1      -1.055  -0.773  24.893  0.00  0.00    +0.137 C 
BRANCH  23  24
ATOM     24  C   UNL     1      -1.710  -1.248  24.732  0.00  0.00    +0.137 A 
ATOM     25  N   UNL     1      -2.474  -0.983  24.571  0.00  0.00    -0.230 NA
ATOM     26  C   UNL     1      -2.952  -1.642  24.444  0.00  0.00    +0.098 A 
ATOM     27  C   UNL     1      -2.483  -2.316  24.525  0.00  0.00    +0.079 A 
ATOM     28  C   UNL     1      -2.817  -3.065  24.427  0.00  0.00    +0.019 A 
ATOM     29  C   UNL     1      -3.618  -3.139  24.247  0.00  0.00    +0.002 A 
ATOM     30  C   UNL     1      -4.087  -2.465  24.165  0.00  0.00    +0.002 A 
ATOM     31  C   UNL     1      -3.754  -1.716  24.263  0.00  0.00    +0.021 A 
ATOM     32  N   UNL     1      -1.716  -2.073  24.704  0.00  0.00    -0.312 N 
ATOM     33  C   UNL     1      -1.068  -2.567  24.831  0.00  0.00    +0.132 C 
ENDBRANCH  23  24
ENDBRANCH  22  23
TORSDOF 8
ENDMDL
MODEL 4
REMARK VINA RESULT:      -6.8      1.382      7.830
REMARK  Name = 
REMARK  8 active torsions:
REMARK  status: ('A' for Active; 'I' for Inactive)
REMARK    1  A    between atoms: O_2  and  C_3
REMARK    2  A    between atoms: C_6  and  C_7
REMARK    3  A    between atoms: C_7  and  N_8
REMARK    4  A    between atoms: C_9  and  C_11
REMARK    5  A    between atoms: C_11  and  C_12
REMARK    6  A    between atoms: C_12  and  C_13
REMARK    7  A    between atoms: N_22  and  C_23
REMARK    8  A    between atoms: C_23  and  C_24
REMARK                            x       y       z     vdW  Elec       q    Type
REMARK                         _______ _______ _______ _____ _____    ______ ____
ROOT
ATOM     13  C   UNL     1      -0.610   0.339  24.039  0.00  0.00    +0.080 C 
ATOM     14  C   UNL     1      -0.392   1.083  24.322  0.00  0.00    +0.131 C 
ATOM     15  N   UNL     1       0.323   1.483  24.221  0.00  0.00    -0.203 NA
ATOM     16  C   UNL     1       0.996   1.237  23.812  0.00  0.00    +0.257 C 
ATOM     17  O   UNL     1       1.628   1.767  23.812  0.00  0.00    -0.272 OA
ATOM     18  C   UNL     1       1.121   0.532  23.404  0.00  0.00    +0.152 C 
ATOM     19  C   UNL     1       0.603  -0.103  23.303  0.00  0.00    +0.083 C 
ATOM     20  C   UNL     1       0.988  -0.677  22.851  0.00  0.00    +0.035 C 
ATOM     21  C   UNL     1       1.743  -0.396  22.673  0.00  0.00    +0.074 C 
ATOM     22  N   UNL     1       1.825   0.350  23.015  0.00  0.00    -0.259 NA
ATOM     34  N   UNL     1      -0.167  -0.189  23.585  0.00  0.00    -0.271 NA
ATOM     35  C   UNL     1      -0.544  -0.895  23.389  0.00  0.00    +0.090 C 
ENDROOT
BRANCH  13  12
ATOM     12  C   UNL     1      -1.372   0.090  24.236  0.00  0.00    +0.027 C 
BRANCH  12  11
ATOM     11  C   UNL     1      -1.830   0.536  24.758  0.00  0.00    +0.088 C 
BRANCH  11   9
ATOM      8  N   UNL     1      -3.160   1.052  24.822  0.00  0.00    -0.201 NA
ATOM      9  C   UNL     1      -2.643   0.409  24.805  0.00  0.00    +0.242 C 
ATOM     10  O   UNL     1      -2.940  -0.359  24.834  0.00  0.00    -0.273 OA
BRANCH   8   7
ATOM      7  C   UNL     1      -3.974   0.926  24.869  0.00  0.00    +0.141 C 
BRANCH   7   6
ATOM      3  C   UNL     1      -5.495   2.818  25.349  0.00  0.00    +0.139 A 
ATOM      4  C   UNL     1      -4.764   2.957  24.994  0.00  0.00    +0.037 A 
ATOM      5  C   UNL     1      -4.256   2.326  24.833  0.00  0.00    +0.001 A 
ATOM      6  C   UNL     1      -4.481   1.556  25.029  0.00  0.00    -0.000 A 
ATOM     36  C   UNL     1      -5.212   1.417  25.384  0.00  0.00    +0.001 A 
ATOM     37  C   UNL     1      -5.720   2.049  25.544  0.00  0.00    +0.037 A 
BRANCH   3   2
ATOM      1  C   UNL     1      -5.699   4.213  25.582  0.00  0.00    +0.252 C 
ATOM      2  O   UNL     1      -6.002   3.449  25.509  0.00  0.00    -0.471 OA
ENDBRANCH   3   2
ENDBRANCH   7   6
ENDBRANCH   8   7
ENDBRANCH  11   9
ENDBRANCH  12  11
ENDBRANCH  13  12
BRANCH  22  23
ATOM     23  C   UNL     1       2.494   0.831  22.974  0.00  0.00    +0.137 C 
BRANCH  23  24
ATOM     24  C   UNL     1       3.242   0.511  23.115  0.00  0.00    +0.137 A 
ATOM     25  N   UNL     1       3.401  -0.182  23.533  0.00  0.00    -0.230 NA
ATOM     26  C   UNL     1       4.218  -0.293  23.539  0.00  0.00    +0.098 A 
ATOM     27  C   UNL     1       4.564   0.332  23.126  0.00  0.00    +0.079 A 
ATOM     28  C   UNL     1       5.384   0.366  23.041  0.00  0.00    +0.019 A 
ATOM     29  C   UNL     1       5.858  -0.222  23.370  0.00  0.00    +0.002 A 
ATOM     30  C   UNL     1       5.513  -0.847  23.784  0.00  0.00    +0.002 A 
ATOM     31  C   UNL     1       4.693  -0.883  23.869  0.00  0.00    +0.021 A 
ATOM     32  N   UNL     1       3.961   0.828  22.863  0.00  0.00    -0.312 N 
ATOM     33  C   UNL     1       4.058   1.521  22.426  0.00  0.00    +0.132 C 
ENDBRANCH  23  24
ENDBRANCH  22  23
TORSDOF 8
ENDMDL
MODEL 5
REMARK VINA RESULT:      -6.0     17.357     19.470
REMARK  Name = 
REMARK  8 active torsions:
REMARK  status: ('A' for Active; 'I' for Inactive)
REMARK    1  A    between atoms: O_2  and  C_3
REMARK    2  A    between atoms: C_6  and  C_7
REMARK    3  A    between atoms: C_7  and  N_8
REMARK    4  A    between atoms: C_9  and  C_11
REMARK    5  A    between atoms: C_11  and  C_12
REMARK    6  A    between atoms: C_12  and  C_13
REMARK    7  A    between atoms: N_22  and  C_23
REMARK    8  A    between atoms: C_23  and  C_24
REMARK                            x       y       z     vdW  Elec       q    Type
REMARK                         _______ _______ _______ _____ _____    ______ ____
ROOT
ATOM     13  C   UNL     1      -6.481  -9.404   9.758  0.00  0.00    +0.080 C 
ATOM     14  C   UNL     1      -6.604  -9.234  10.557  0.00  0.00    +0.131 C 
ATOM     15  N   UNL     1      -6.087  -9.339  11.191  0.00  0.00    -0.203 NA
ATOM     16  C   UNL     1      -5.319  -9.641  11.183  0.00  0.00    +0.257 C 
ATOM     17  O   UNL     1      -4.941  -9.677  11.915  0.00  0.00    -0.272 OA
ATOM     18  C   UNL     1      -4.879  -9.912  10.541  0.00  0.00    +0.152 C 
ATOM     19  C   UNL     1      -5.098  -9.948   9.746  0.00  0.00    +0.083 C 
ATOM     20  C   UNL     1      -4.464 -10.261   9.320  0.00  0.00    +0.035 C 
ATOM     21  C   UNL     1      -3.853 -10.419   9.852  0.00  0.00    +0.074 C 
ATOM     22  N   UNL     1      -4.110 -10.203  10.606  0.00  0.00    -0.259 NA
ATOM     34  N   UNL     1      -5.811  -9.722   9.398  0.00  0.00    -0.271 NA
ATOM     35  C   UNL     1      -5.860  -9.828   8.581  0.00  0.00    +0.090 C 
ENDROOT
BRANCH  13  12
ATOM     12  C   UNL     1      -7.112  -9.234   9.255  0.00  0.00    +0.027 C 
BRANCH  12  11
ATOM     11  C   UNL     1      -7.729  -8.751   9.515  0.00  0.00    +0.088 C 
BRANCH  11   9
ATOM      8  N   UNL     1      -8.545  -7.718   8.961  0.00  0.00    -0.201 NA
ATOM      9  C   UNL     1      -8.314  -8.509   8.986  0.00  0.00    +0.242 C 
ATOM     10  O   UNL     1      -8.668  -9.057   8.483  0.00  0.00    -0.273 OA
BRANCH   8   7
ATOM      7  C   UNL     1      -9.131  -7.475   8.432  0.00  0.00    +0.141 C 
BRANCH   7   6
ATOM      3  C   UNL     1     -10.322  -5.337   8.801  0.00  0.00    +0.139 A 
ATOM      4  C   UNL     1      -9.528  -5.333   8.578  0.00  0.00    +0.037 A 
ATOM      5  C   UNL     1      -9.130  -6.046   8.455  0.00  0.00    +0.001 A 
ATOM      6  C   UNL     1      -9.528  -6.762   8.555  0.00  0.00    -0.000 A 
ATOM     36  C   UNL     1     -10.322  -6.766   8.778  0.00  0.00    +0.001 A 
ATOM     37  C   UNL     1     -10.720  -6.053   8.901  0.00  0.00    +0.037 A 
BRANCH   3   2
ATOM      1  C   UNL     1     -10.303  -3.913   8.908  0.00  0.00    +0.252 C 
ATOM      2  O   UNL     1     -10.719  -4.625   8.923  0.00  0.00    -0.471 OA
ENDBRANCH   3   2
ENDBRANCH   7   6
ENDBRANCH   8   7
ENDBRANCH  11   9
ENDBRANCH  12  11
ENDBRANCH  13  12
BRANCH  22  23
ATOM     23  C   UNL     1      -3.674 -10.268  11.303  0.00  0.00    +0.137 C 
BRANCH  23  24
ATOM     24  C   UNL     1      -2.894  -9.998  11.329  0.00  0.00    +0.137 A 
ATOM     25  N   UNL     1      -2.544  -9.477  10.794  0.00  0.00    -0.230 NA
ATOM     26  C   UNL     1      -1.762  -9.359  11.029  0.00  0.00    +0.098 A 
ATOM     27  C   UNL     1      -1.629  -9.807  11.709  0.00  0.00    +0.079 A 
ATOM     28  C   UNL     1      -0.888  -9.797  12.070  0.00  0.00    +0.019 A 
ATOM     29  C   UNL     1      -0.280  -9.339  11.753  0.00  0.00    +0.002 A 
ATOM     30  C   UNL     1      -0.413  -8.891  11.073  0.00  0.00    +0.002 A 
ATOM     31  C   UNL     1      -1.153  -8.901  10.711  0.00  0.00    +0.021 A 
ATOM     32  N   UNL     1      -2.329 -10.202  11.894  0.00  0.00    -0.312 N 
ATOM     33  C   UNL     1      -2.443 -10.711  12.532  0.00  0.00    +0.132 C 
ENDBRANCH  23  24
ENDBRANCH  22  23
TORSDOF 8
ENDMDL
MODEL 6
REMARK VINA RESULT:      -5.4     14.999     16.977
REMARK  Name = 
REMARK  8 active torsions:
REMARK  status: ('A' for Active; 'I' for Inactive)
REMARK    1  A    between atoms: O_2  and  C_3
REMARK    2  A    between atoms: C_6  and  C_7
REMARK    3  A    between atoms: C_7  and  N_8
REMARK    4  A    between atoms: C_9  and  C_11
REMARK    5  A    between atoms: C_11  and  C_12
REMARK    6  A    between atoms: C_12  and  C_13
REMARK    7  A    between atoms: N_22  and  C_23
REMARK    8  A    between atoms: C_23  and  C_24
REMARK                            x       y       z     vdW  Elec       q    Type
REMARK                         _______ _______ _______ _____ _____    ______ ____
ROOT
ATOM     13  C   UNL     1      12.469  -6.955  32.275  0.00  0.00    +0.080 C 
ATOM     14  C   UNL     1      12.749  -7.650  31.926  0.00  0.00    +0.131 C 
ATOM     15  N   UNL     1      12.337  -8.347  31.767  0.00  0.00    -0.203 NA
ATOM     16  C   UNL     1      11.545  -8.522  31.918  0.00  0.00    +0.257 C 
ATOM     17  O   UNL     1      11.295  -9.275  31.692  0.00  0.00    -0.272 OA
ATOM     18  C   UNL     1      10.969  -8.044  32.264  0.00  0.00    +0.152 C 
ATOM     19  C   UNL     1      11.043  -7.272  32.546  0.00  0.00    +0.083 C 
ATOM     20  C   UNL     1      10.309  -7.037  32.841  0.00  0.00    +0.035 C 
ATOM     21  C   UNL     1       9.781  -7.663  32.742  0.00  0.00    +0.074 C 
ATOM     22  N   UNL     1      10.190  -8.286  32.385  0.00  0.00    -0.259 NA
ATOM     34  N   UNL     1      11.710  -6.788  32.550  0.00  0.00    -0.271 NA
ATOM     35  C   UNL     1      11.605  -6.036  32.873  0.00  0.00    +0.090 C 
ENDROOT
BRANCH  13  12
ATOM     12  C   UNL     1      13.023  -6.350  32.359  0.00  0.00    +0.027 C 
BRANCH  12  11
ATOM     11  C   UNL     1      13.720  -6.363  31.916  0.00  0.00    +0.088 C 
BRANCH  11   9
ATOM      8  N   UNL     1      14.653  -5.303  31.701  0.00  0.00    -0.201 NA
ATOM      9  C   UNL     1      14.374  -5.926  32.164  0.00  0.00    +0.242 C 
ATOM     10  O   UNL     1      14.749  -6.113  32.873  0.00  0.00    -0.273 OA
BRANCH   8   7
ATOM      7  C   UNL     1      15.308  -4.866  31.949  0.00  0.00    +0.141 C 
BRANCH   7   6
ATOM      3  C   UNL     1      16.044  -2.894  30.647  0.00  0.00    +0.139 A 
ATOM      4  C   UNL     1      15.781  -2.801  31.424  0.00  0.00    +0.037 A 
ATOM      5  C   UNL     1      15.536  -3.458  31.858  0.00  0.00    +0.001 A 
ATOM      6  C   UNL     1      15.553  -4.209  31.515  0.00  0.00    -0.000 A 
ATOM     36  C   UNL     1      15.816  -4.302  30.739  0.00  0.00    +0.001 A 
ATOM     37  C   UNL     1      16.061  -3.644  30.305  0.00  0.00    +0.037 A 
BRANCH   3   2
ATOM      1  C   UNL     1      16.742  -1.650  30.575  0.00  0.00    +0.252 C 
ATOM      2  O   UNL     1      16.289  -2.236  30.214  0.00  0.00    -0.471 OA
ENDBRANCH   3   2
ENDBRANCH   7   6
ENDBRANCH   8   7
ENDBRANCH  11   9
ENDBRANCH  12  11
ENDBRANCH  13  12
BRANCH  22  23
ATOM     23  C   UNL     1       9.873  -9.021  32.185  0.00  0.00    +0.137 C 
BRANCH  23  24
ATOM     24  C   UNL     1       9.085  -9.081  31.950  0.00  0.00    +0.137 A 
ATOM     25  N   UNL     1       8.663  -8.518  31.520  0.00  0.00    -0.230 NA
ATOM     26  C   UNL     1       7.898  -8.803  31.407  0.00  0.00    +0.098 A 
ATOM     27  C   UNL     1       7.846  -9.543  31.768  0.00  0.00    +0.079 A 
ATOM     28  C   UNL     1       7.137  -9.965  31.744  0.00  0.00    +0.019 A 
ATOM     29  C   UNL     1       6.481  -9.647  31.360  0.00  0.00    +0.002 A 
ATOM     30  C   UNL     1       6.532  -8.907  30.999  0.00  0.00    +0.002 A 
ATOM     31  C   UNL     1       7.240  -8.485  31.022  0.00  0.00    +0.021 A 
ATOM     32  N   UNL     1       8.580  -9.715  32.103  0.00  0.00    -0.312 N 
ATOM     33  C   UNL     1       8.774 -10.400  32.519  0.00  0.00    +0.132 C 
ENDBRANCH  23  24
ENDBRANCH  22  23
TORSDOF 8
ENDMDL
MODEL 7
REMARK VINA RESULT:      -4.8     14.894     17.003
REMARK  Name = 
REMARK  8 active torsions:
REMARK  status: ('A' for Active; 'I' for Inactive)
REMARK    1  A    between atoms: O_2  and  C_3
REMARK    2  A    between atoms: C_6  and  C_7
REMARK    3  A    between atoms: C_7  and  N_8
REMARK    4  A    between atoms: C_9  and  C_11
REMARK    5  A    between atoms: C_11  and  C_12
REMARK    6  A    between atoms: C_12  and  C_13
REMARK    7  A    between atoms: N_22  and  C_23
REMARK    8  A    between atoms: C_23  and  C_24
REMARK                            x       y       z     vdW  Elec       q    Type
REMARK                         _______ _______ _______ _____ _____    ______ ____
ROOT
ATOM     13  C   UNL     1      12.719  -8.103  31.246  0.00  0.00    +0.080 C 
ATOM     14  C   UNL     1      12.740  -8.906  31.056  0.00  0.00    +0.131 C 
ATOM     15  N   UNL     1      12.149  -9.473  31.153  0.00  0.00    -0.203 NA
ATOM     16  C   UNL     1      11.391  -9.378  31.465  0.00  0.00    +0.257 C 
ATOM     17  O   UNL     1      10.925 -10.058  31.489  0.00  0.00    -0.272 OA
ATOM     18  C   UNL     1      11.037  -8.692  31.757  0.00  0.00    +0.152 C 
ATOM     19  C   UNL     1      11.354  -7.932  31.809  0.00  0.00    +0.083 C 
ATOM     20  C   UNL     1      10.781  -7.439  32.141  0.00  0.00    +0.035 C 
ATOM     21  C   UNL     1      10.111  -7.894  32.294  0.00  0.00    +0.074 C 
ATOM     22  N   UNL     1      10.269  -8.669  32.057  0.00  0.00    -0.259 NA
ATOM     34  N   UNL     1      12.102  -7.670  31.582  0.00  0.00    -0.271 NA
ATOM     35  C   UNL     1      12.254  -6.869  31.706  0.00  0.00    +0.090 C 
ENDROOT
BRANCH  13  12
ATOM     12  C   UNL     1      13.406  -7.677  31.080  0.00  0.00    +0.027 C 
BRANCH  12  11
ATOM     11  C   UNL     1      14.002  -8.018  30.621  0.00  0.00    +0.088 C 
BRANCH  11   9
ATOM      8  N   UNL     1      14.847  -7.538  29.575  0.00  0.00    -0.201 NA
ATOM      9  C   UNL     1      14.643  -7.563  30.373  0.00  0.00    +0.242 C 
ATOM     10  O   UNL     1      15.080  -7.133  30.924  0.00  0.00    -0.273 OA
BRANCH   8   7
ATOM      7  C   UNL     1      15.489  -7.082  29.327  0.00  0.00    +0.141 C 
BRANCH   7   6
ATOM      3  C   UNL     1      16.156  -7.077  26.943  0.00  0.00    +0.139 A 
ATOM      4  C   UNL     1      15.415  -6.790  27.165  0.00  0.00    +0.037 A 
ATOM      5  C   UNL     1      15.193  -6.792  27.960  0.00  0.00    +0.001 A 
ATOM      6  C   UNL     1      15.711  -7.081  28.532  0.00  0.00    -0.000 A 
ATOM     36  C   UNL     1      16.452  -7.368  28.311  0.00  0.00    +0.001 A 
ATOM     37  C   UNL     1      16.675  -7.366  27.516  0.00  0.00    +0.037 A 
BRANCH   3   2
ATOM      1  C   UNL     1      16.837  -6.458  25.851  0.00  0.00    +0.252 C 
ATOM      2  O   UNL     1      16.378  -7.075  26.149  0.00  0.00    -0.471 OA
ENDBRANCH   3   2
ENDBRANCH   7   6
ENDBRANCH   8   7
ENDBRANCH  11   9
ENDBRANCH  12  11
ENDBRANCH  13  12
BRANCH  22  23
ATOM     23  C   UNL     1       9.750  -9.308  32.110  0.00  0.00    +0.137 C 
BRANCH  23  24
ATOM     24  C   UNL     1       8.943  -9.196  31.979  0.00  0.00    +0.137 A 
ATOM     25  N   UNL     1       8.606  -8.637  31.475  0.00  0.00    -0.230 NA
ATOM     26  C   UNL     1       7.787  -8.720  31.514  0.00  0.00    +0.098 A 
ATOM     27  C   UNL     1       7.617  -9.330  32.042  0.00  0.00    +0.079 A 
ATOM     28  C   UNL     1       6.833  -9.538  32.193  0.00  0.00    +0.019 A 
ATOM     29  C   UNL     1       6.219  -9.137  31.815  0.00  0.00    +0.002 A 
ATOM     30  C   UNL     1       6.390  -8.527  31.286  0.00  0.00    +0.002 A 
ATOM     31  C   UNL     1       7.173  -8.318  31.135  0.00  0.00    +0.021 A 
ATOM     32  N   UNL     1       8.331  -9.624  32.330  0.00  0.00    -0.312 N 
ATOM     33  C   UNL     1       8.419 -10.239  32.873  0.00  0.00    +0.132 C 
ENDBRANCH  23  24
ENDBRANCH  22  23
TORSDOF 8
ENDMDL
