MODEL 1
REMARK VINA RESULT:      -9.6      0.000      0.000
REMARK  Name = 
REMARK  6 active torsions:
REMARK  status: ('A' for Active; 'I' for Inactive)
REMARK    1  A    between atoms: C_2  and  C_4
REMARK    2  A    between atoms: C_4  and  S_5
REMARK    3  A    between atoms: S_5  and  N_8
REMARK    4  A    between atoms: N_8  and  C_9
REMARK    5  A    between atoms: C_12  and  C_15
REMARK    6  A    between atoms: C_22  and  C_23
REMARK                            x       y       z     vdW  Elec       q    Type
REMARK                         _______ _______ _______ _____ _____    ______ ____
ROOT
ATOM      9  C   UNL     1      -3.224   2.004  24.357  0.00  0.00    +0.091 A 
ATOM     10  C   UNL     1      -2.878   1.566  23.751  0.00  0.00    +0.018 A 
ATOM     11  C   UNL     1      -2.986   0.749  23.718  0.00  0.00    -0.001 A 
ATOM     12  C   UNL     1      -3.441   0.369  24.291  0.00  0.00    +0.006 A 
ATOM     13  C   UNL     1      -3.788   0.808  24.899  0.00  0.00    -0.001 A 
ATOM     14  C   UNL     1      -3.679   1.625  24.932  0.00  0.00    +0.018 A 
ENDROOT
BRANCH  12  15
ATOM     15  C   UNL     1      -3.550  -0.447  24.258  0.00  0.00    +0.159 C 
ATOM     16  O   UNL     1      -4.237  -0.759  23.926  0.00  0.00    -0.341 OA
ATOM     17  C   UNL     1      -4.346  -1.576  23.893  0.00  0.00    +0.227 C 
ATOM     18  C   UNL     1      -3.767  -2.081  24.192  0.00  0.00    +0.256 C 
ATOM     19  O   UNL     1      -3.876  -2.899  24.159  0.00  0.00    -0.272 OA
ATOM     20  N   UNL     1      -3.079  -1.770  24.525  0.00  0.00    -0.272 N 
ATOM     21  C   UNL     1      -2.499  -2.275  24.824  0.00  0.00    +0.115 C 
ATOM     22  C   UNL     1      -2.970  -0.953  24.558  0.00  0.00    +0.140 C 
BRANCH  22  23
ATOM     23  C   UNL     1      -2.282  -0.641  24.890  0.00  0.00    +0.205 C 
ATOM     24  O   UNL     1      -1.898  -1.044  25.498  0.00  0.00    -0.218 OA
ENDBRANCH  22  23
ENDBRANCH  12  15
BRANCH   9   8
ATOM      8  N   UNL     1      -3.115   2.822  24.391  0.00  0.00    -0.101 NA
BRANCH   8   5
ATOM      5  S   UNL     1      -2.533   3.141  24.881  0.00  0.00    +0.073 S 
ATOM      6  O   UNL     1      -1.973   3.036  24.283  0.00  0.00    -0.153 OA
ATOM      7  O   UNL     1      -3.092   3.245  25.478  0.00  0.00    -0.153 OA
BRANCH   5   4
ATOM      4  C   UNL     1      -1.950   3.459  25.371  0.00  0.00    +0.174 C 
BRANCH   4   2
ATOM      1  C   UNL     1      -2.183   4.869  25.411  0.00  0.00    +0.002 C 
ATOM      2  C   UNL     1      -1.685   4.232  25.248  0.00  0.00    +0.026 C 
ATOM      3  C   UNL     1      -0.923   4.366  24.961  0.00  0.00    +0.002 C 
ENDBRANCH   4   2
ENDBRANCH   5   4
ENDBRANCH   8   5
ENDBRANCH   9   8
TORSDOF 6
ENDMDL
MODEL 2
REMARK VINA RESULT:      -9.4      1.400      4.810
REMARK  Name = 
REMARK  6 active torsions:
REMARK  status: ('A' for Active; 'I' for Inactive)
REMARK    1  A    between atoms: C_2  and  C_4
REMARK    2  A    between atoms: C_4  and  S_5
REMARK    3  A    between atoms: S_5  and  N_8
REMARK    4  A    between atoms: N_8  and  C_9
REMARK    5  A    between atoms: C_12  and  C_15
REMARK    6  A    between atoms: C_22  and  C_23
REMARK                            x       y       z     vdW  Elec       q    Type
REMARK                         _______ _______ _______ _____ _____    ______ ____
ROOT
ATOM      9  C   UNL     1      -3.924   0.572  24.421  0.00  0.00    +0.091 A 
ATOM     10  C   UNL     1      -4.018   0.941  25.152  0.00  0.00    +0.018 A 
ATOM     11  C   UNL     1      -3.661   1.671  25.294  0.00  0.00    -0.001 A 
ATOM     12  C   UNL     1      -3.210   2.032  24.705  0.00  0.00    +0.006 A 
ATOM     13  C   UNL     1      -3.116   1.662  23.973  0.00  0.00    -0.001 A 
ATOM     14  C   UNL     1      -3.473   0.931  23.831  0.00  0.00    +0.018 A 
ENDROOT
BRANCH  12  15
ATOM     15  C   UNL     1      -2.854   2.761  24.847  0.00  0.00    +0.159 C 
ATOM     16  O   UNL     1      -3.283   3.458  24.745  0.00  0.00    -0.341 OA
ATOM     17  C   UNL     1      -2.926   4.188  24.887  0.00  0.00    +0.227 C 
ATOM     18  C   UNL     1      -2.139   4.221  25.131  0.00  0.00    +0.256 C 
ATOM     19  O   UNL     1      -1.782   4.952  25.273  0.00  0.00    -0.272 OA
ATOM     20  N   UNL     1      -1.708   3.525  25.233  0.00  0.00    -0.272 N 
ATOM     21  C   UNL     1      -0.921   3.558  25.477  0.00  0.00    +0.115 C 
ATOM     22  C   UNL     1      -2.065   2.795  25.091  0.00  0.00    +0.140 C 
BRANCH  22  23
ATOM     23  C   UNL     1      -1.635   2.098  25.193  0.00  0.00    +0.205 C 
ATOM     24  O   UNL     1      -1.001   2.078  25.718  0.00  0.00    -0.218 OA
ENDBRANCH  22  23
ENDBRANCH  12  15
BRANCH   9   8
ATOM      8  N   UNL     1      -4.282  -0.159  24.279  0.00  0.00    -0.101 NA
BRANCH   8   5
ATOM      5  S   UNL     1      -3.824  -0.846  24.264  0.00  0.00    +0.073 S 
ATOM      6  O   UNL     1      -3.781  -0.800  23.442  0.00  0.00    -0.153 OA
ATOM      7  O   UNL     1      -3.867  -0.892  25.087  0.00  0.00    -0.153 OA
BRANCH   5   4
ATOM      4  C   UNL     1      -3.367  -1.533  24.250  0.00  0.00    +0.174 C 
BRANCH   4   2
ATOM      1  C   UNL     1      -3.518  -2.734  25.008  0.00  0.00    +0.002 C 
ATOM      2  C   UNL     1      -3.724  -2.269  24.360  0.00  0.00    +0.026 C 
ATOM      3  C   UNL     1      -4.288  -2.538  23.820  0.00  0.00    +0.002 C 
ENDBRANCH   4   2
ENDBRANCH   5   4
ENDBRANCH   8   5
ENDBRANCH   9   8
TORSDOF 6
ENDMDL
MODEL 3
REMARK VINA RESULT:      -9.0      1.732      2.181
REMARK  Name = 
REMARK  6 active torsions:
REMARK  status: ('A' for Active; 'I' for Inactive)
REMARK    1  A    between atoms: C_2  and  C_4
REMARK    2  A    between atoms: C_4  and  S_5
REMARK    3  A    between atoms: S_5  and  N_8
REMARK    4  A    between atoms: N_8  and  C_9
REMARK    5  A    between atoms: C_12  and  C_15
REMARK    6  A    between atoms: C_22  and  C_23
REMARK                            x       y       z     vdW  Elec       q    Type
REMARK                         _______ _______ _______ _____ _____    ______ ____
ROOT
ATOM      9  C   UNL     1      -4.454   0.921  24.639  0.00  0.00    +0.091 A 
ATOM     10  C   UNL     1      -3.906   0.836  24.029  0.00  0.00    +0.018 A 
ATOM     11  C   UNL     1      -3.388   0.194  24.026  0.00  0.00    -0.001 A 
ATOM     12  C   UNL     1      -3.418  -0.363  24.634  0.00  0.00    +0.006 A 
ATOM     13  C   UNL     1      -3.966  -0.278  25.245  0.00  0.00    -0.001 A 
ATOM     14  C   UNL     1      -4.485   0.364  25.248  0.00  0.00    +0.018 A 
ENDROOT
BRANCH  12  15
ATOM     15  C   UNL     1      -2.900  -1.004  24.631  0.00  0.00    +0.159 C 
ATOM     16  O   UNL     1      -3.151  -1.736  24.345  0.00  0.00    -0.341 OA
ATOM     17  C   UNL     1      -2.633  -2.378  24.342  0.00  0.00    +0.227 C 
ATOM     18  C   UNL     1      -1.864  -2.289  24.626  0.00  0.00    +0.256 C 
ATOM     19  O   UNL     1      -1.345  -2.931  24.623  0.00  0.00    -0.272 OA
ATOM     20  N   UNL     1      -1.612  -1.557  24.913  0.00  0.00    -0.272 N 
ATOM     21  C   UNL     1      -0.843  -1.467  25.197  0.00  0.00    +0.115 C 
ATOM     22  C   UNL     1      -2.130  -0.915  24.916  0.00  0.00    +0.140 C 
BRANCH  22  23
ATOM     23  C   UNL     1      -1.879  -0.183  25.203  0.00  0.00    +0.205 C 
ATOM     24  O   UNL     1      -1.293  -0.146  25.781  0.00  0.00    -0.218 OA
ENDBRANCH  22  23
ENDBRANCH  12  15
BRANCH   9   8
ATOM      8  N   UNL     1      -4.972   1.564  24.642  0.00  0.00    -0.101 NA
BRANCH   8   5
ATOM      5  S   UNL     1      -4.840   2.198  25.153  0.00  0.00    +0.073 S 
ATOM      6  O   UNL     1      -5.367   1.871  25.696  0.00  0.00    -0.153 OA
ATOM      7  O   UNL     1      -4.312   2.525  24.609  0.00  0.00    -0.153 OA
BRANCH   5   4
ATOM      4  C   UNL     1      -4.707   2.832  25.664  0.00  0.00    +0.174 C 
BRANCH   4   2
ATOM      1  C   UNL     1      -4.486   4.173  25.221  0.00  0.00    +0.002 C 
ATOM      2  C   UNL     1      -5.000   3.582  25.476  0.00  0.00    +0.026 C 
ATOM      3  C   UNL     1      -5.808   3.737  25.544  0.00  0.00    +0.002 C 
ENDBRANCH   4   2
ENDBRANCH   5   4
ENDBRANCH   8   5
ENDBRANCH   9   8
TORSDOF 6
ENDMDL
