MODEL 1
REMARK VINA RESULT:     -12.5      0.000      0.000
REMARK  Name = 
REMARK  7 active torsions:
REMARK  status: ('A' for Active; 'I' for Inactive)
REMARK    1  A    between atoms: C_2  and  C_4
REMARK    2  A    between atoms: C_7  and  C_8
REMARK    3  A    between atoms: C_8  and  N_9
REMARK    4  A    between atoms: C_13  and  C_14
REMARK    5  A    between atoms: C_16  and  C_19
REMARK    6  A    between atoms: C_22  and  O_23
REMARK    7  A    between atoms: O_23  and  C_24
REMARK                            x       y       z     vdW  Elec       q    Type
REMARK                         _______ _______ _______ _____ _____    ______ ____
ROOT
ATOM     14  C   UNL     1      -0.795   2.731  24.748  0.00  0.00    +0.251 A 
ATOM     15  N   UNL     1      -1.153   2.020  24.963  0.00  0.00    -0.190 NA
ATOM     16  C   UNL     1      -0.663   1.403  24.722  0.00  0.00    +0.205 A 
ATOM     17  N   UNL     1      -0.000   1.732  24.356  0.00  0.00    -0.056 NA
ATOM     18  O   UNL     1      -0.082   2.553  24.372  0.00  0.00    -0.336 OA
ENDROOT
BRANCH  16  19
ATOM     19  C   UNL     1      -0.808   0.597  24.826  0.00  0.00    +0.058 A 
ATOM     20  C   UNL     1      -1.071   0.317  25.556  0.00  0.00    +0.010 A 
ATOM     21  C   UNL     1      -1.216  -0.488  25.662  0.00  0.00    +0.058 A 
ATOM     22  C   UNL     1      -1.099  -1.013  25.037  0.00  0.00    +0.225 A 
ATOM     30  N   UNL     1      -0.836  -0.734  24.307  0.00  0.00    -0.210 NA
ATOM     31  C   UNL     1      -0.691   0.072  24.201  0.00  0.00    +0.105 A 
BRANCH  22  23
ATOM     23  O   UNL     1      -1.244  -1.819  25.143  0.00  0.00    -0.464 OA
BRANCH  23  24
ATOM     24  C   UNL     1      -1.986  -2.131  24.963  0.00  0.00    +0.168 C 
ATOM     25  C   UNL     1      -2.621  -2.009  25.476  0.00  0.00    +0.044 C 
ATOM     26  C   UNL     1      -3.363  -2.321  25.296  0.00  0.00    +0.004 C 
ATOM     27  C   UNL     1      -3.470  -2.755  24.603  0.00  0.00    +0.000 C 
ATOM     28  C   UNL     1      -2.836  -2.878  24.089  0.00  0.00    +0.004 C 
ATOM     29  C   UNL     1      -2.094  -2.565  24.269  0.00  0.00    +0.044 C 
ENDBRANCH  23  24
ENDBRANCH  22  23
ENDBRANCH  16  19
BRANCH  14  13
ATOM      9  N   UNL     1      -1.880   3.722  24.785  0.00  0.00    -0.263 NA
ATOM     10  C   UNL     1      -1.932   4.522  24.982  0.00  0.00    +0.073 C 
ATOM     11  C   UNL     1      -1.180   4.780  25.202  0.00  0.00    +0.019 C 
ATOM     12  C   UNL     1      -0.662   4.140  25.141  0.00  0.00    +0.027 C 
ATOM     13  C   UNL     1      -1.095   3.486  24.883  0.00  0.00    +0.138 C 
BRANCH   9   8
ATOM      8  C   UNL     1      -2.502   3.243  24.535  0.00  0.00    +0.099 C 
BRANCH   8   7
ATOM      4  C   UNL     1      -4.796   3.654  25.368  0.00  0.00    +0.080 A 
ATOM      5  C   UNL     1      -4.623   3.753  24.567  0.00  0.00    +0.006 A 
ATOM      6  C   UNL     1      -3.859   3.617  24.289  0.00  0.00    -0.003 A 
ATOM      7  C   UNL     1      -3.266   3.380  24.813  0.00  0.00    -0.006 A 
ATOM     32  C   UNL     1      -3.438   3.280  25.614  0.00  0.00    -0.003 A 
ATOM     33  C   UNL     1      -4.204   3.417  25.891  0.00  0.00    +0.006 A 
BRANCH   4   2
ATOM      1  O   UNL     1      -5.878   4.552  25.620  0.00  0.00    -0.241 OA
ATOM      2  C   UNL     1      -5.560   3.790  25.645  0.00  0.00    +0.388 C 
ATOM      3  O   UNL     1      -6.008   3.167  25.948  0.00  0.00    -0.241 OA
ENDBRANCH   4   2
ENDBRANCH   8   7
ENDBRANCH   9   8
ENDBRANCH  14  13
TORSDOF 7
ENDMDL
MODEL 2
REMARK VINA RESULT:     -11.6      1.895      3.437
REMARK  Name = 
REMARK  7 active torsions:
REMARK  status: ('A' for Active; 'I' for Inactive)
REMARK    1  A    between atoms: C_2  and  C_4
REMARK    2  A    between atoms: C_7  and  C_8
REMARK    3  A    between atoms: C_8  and  N_9
REMARK    4  A    between atoms: C_13  and  C_14
REMARK    5  A    between atoms: C_16  and  C_19
REMARK    6  A    between atoms: C_22  and  O_23
REMARK    7  A    between atoms: O_23  and  C_24
REMARK                            x       y       z     vdW  Elec       q    Type
REMARK                         _______ _______ _______ _____ _____    ______ ____
ROOT
ATOM     14  C   UNL     1      -5.147   1.860  25.082  0.00  0.00    +0.251 A 
ATOM     15  N   UNL     1      -4.562   1.300  25.239  0.00  0.00    -0.190 NA
ATOM     16  C   UNL     1      -4.807   0.579  24.922  0.00  0.00    +0.205 A 
ATOM     17  N   UNL     1      -5.543   0.694  24.567  0.00  0.00    -0.056 NA
ATOM     18  O   UNL     1      -5.753   1.486  24.666  0.00  0.00    -0.336 OA
ENDROOT
BRANCH  16  19
ATOM     19  C   UNL     1      -4.390  -0.132  24.952  0.00  0.00    +0.058 A 
ATOM     20  C   UNL     1      -4.312  -0.594  24.273  0.00  0.00    +0.010 A 
ATOM     21  C   UNL     1      -3.896  -1.304  24.302  0.00  0.00    +0.058 A 
ATOM     22  C   UNL     1      -3.556  -1.554  25.011  0.00  0.00    +0.225 A 
ATOM     30  N   UNL     1      -3.633  -1.093  25.690  0.00  0.00    -0.210 NA
ATOM     31  C   UNL     1      -4.050  -0.382  25.661  0.00  0.00    +0.105 A 
BRANCH  22  23
ATOM     23  O   UNL     1      -3.139  -2.266  25.040  0.00  0.00    -0.464 OA
BRANCH  23  24
ATOM     24  C   UNL     1      -2.328  -2.276  24.888  0.00  0.00    +0.168 C 
ATOM     25  C   UNL     1      -2.045  -2.601  24.184  0.00  0.00    +0.044 C 
ATOM     26  C   UNL     1      -1.234  -2.611  24.032  0.00  0.00    +0.004 C 
ATOM     27  C   UNL     1      -0.707  -2.295  24.582  0.00  0.00    +0.000 C 
ATOM     28  C   UNL     1      -0.991  -1.969  25.286  0.00  0.00    +0.004 C 
ATOM     29  C   UNL     1      -1.801  -1.959  25.438  0.00  0.00    +0.044 C 
ENDBRANCH  23  24
ENDBRANCH  22  23
ENDBRANCH  16  19
BRANCH  14  13
ATOM      9  N   UNL     1      -4.509   3.183  25.164  0.00  0.00    -0.263 NA
ATOM     10  C   UNL     1      -4.726   3.916  25.473  0.00  0.00    +0.073 C 
ATOM     11  C   UNL     1      -5.479   3.842  25.801  0.00  0.00    +0.019 C 
ATOM     12  C   UNL     1      -5.729   3.063  25.694  0.00  0.00    +0.027 C 
ATOM     13  C   UNL     1      -5.129   2.655  25.300  0.00  0.00    +0.138 C 
BRANCH   9   8
ATOM      8  C   UNL     1      -3.798   3.007  24.785  0.00  0.00    +0.099 C 
BRANCH   8   7
ATOM      4  C   UNL     1      -1.865   4.536  25.010  0.00  0.00    +0.080 A 
ATOM      5  C   UNL     1      -2.384   4.617  24.374  0.00  0.00    +0.006 A 
ATOM      6  C   UNL     1      -3.028   4.108  24.298  0.00  0.00    -0.003 A 
ATOM      7  C   UNL     1      -3.154   3.516  24.860  0.00  0.00    -0.006 A 
ATOM     32  C   UNL     1      -2.635   3.435  25.496  0.00  0.00    -0.003 A 
ATOM     33  C   UNL     1      -1.990   3.945  25.571  0.00  0.00    +0.006 A 
BRANCH   4   2
ATOM      1  O   UNL     1      -1.344   5.859  25.153  0.00  0.00    -0.241 OA
ATOM      2  C   UNL     1      -1.221   5.045  25.084  0.00  0.00    +0.388 C 
ATOM      3  O   UNL     1      -0.453   4.742  25.090  0.00  0.00    -0.241 OA
ENDBRANCH   4   2
ENDBRANCH   8   7
ENDBRANCH   9   8
ENDBRANCH  14  13
TORSDOF 7
ENDMDL
MODEL 3
REMARK VINA RESULT:     -11.0      2.443      4.050
REMARK  Name = 
REMARK  7 active torsions:
REMARK  status: ('A' for Active; 'I' for Inactive)
REMARK    1  A    between atoms: C_2  and  C_4
REMARK    2  A    between atoms: C_7  and  C_8
REMARK    3  A    between atoms: C_8  and  N_9
REMARK    4  A    between atoms: C_13  and  C_14
REMARK    5  A    between atoms: C_16  and  C_19
REMARK    6  A    between atoms: C_22  and  O_23
REMARK    7  A    between atoms: O_23  and  C_24
REMARK                            x       y       z     vdW  Elec       q    Type
REMARK                         _______ _______ _______ _____ _____    ______ ____
ROOT
ATOM     14  C   UNL     1      -1.794   0.071  24.962  0.00  0.00    +0.251 A 
ATOM     15  N   UNL     1      -1.345  -0.025  24.277  0.00  0.00    -0.190 NA
ATOM     16  C   UNL     1      -0.569   0.196  24.447  0.00  0.00    +0.205 A 
ATOM     17  N   UNL     1      -0.538   0.430  25.238  0.00  0.00    -0.056 NA
ATOM     18  O   UNL     1      -1.295   0.352  25.556  0.00  0.00    -0.336 OA
ENDROOT
BRANCH  16  19
ATOM     19  C   UNL     1       0.066   0.187  23.919  0.00  0.00    +0.058 A 
ATOM     20  C   UNL     1       0.309  -0.525  23.580  0.00  0.00    +0.010 A 
ATOM     21  C   UNL     1       0.943  -0.536  23.053  0.00  0.00    +0.058 A 
ATOM     22  C   UNL     1       1.334   0.165  22.865  0.00  0.00    +0.225 A 
ATOM     30  N   UNL     1       1.092   0.877  23.203  0.00  0.00    -0.210 NA
ATOM     31  C   UNL     1       0.457   0.888  23.731  0.00  0.00    +0.105 A 
BRANCH  22  23
ATOM     23  O   UNL     1       1.969   0.154  22.337  0.00  0.00    -0.464 OA
BRANCH  23  24
ATOM     24  C   UNL     1       2.742   0.210  22.620  0.00  0.00    +0.168 C 
ATOM     25  C   UNL     1       3.142   0.931  22.587  0.00  0.00    +0.044 C 
ATOM     26  C   UNL     1       3.915   0.987  22.870  0.00  0.00    +0.004 C 
ATOM     27  C   UNL     1       4.287   0.322  23.187  0.00  0.00    +0.000 C 
ATOM     28  C   UNL     1       3.887  -0.399  23.220  0.00  0.00    +0.004 C 
ATOM     29  C   UNL     1       3.114  -0.455  22.937  0.00  0.00    +0.044 C 
ENDBRANCH  23  24
ENDBRANCH  22  23
ENDBRANCH  16  19
BRANCH  14  13
ATOM      9  N   UNL     1      -3.215   0.440  24.876  0.00  0.00    -0.263 NA
ATOM     10  C   UNL     1      -3.927   0.054  25.032  0.00  0.00    +0.073 C 
ATOM     11  C   UNL     1      -3.752  -0.709  25.293  0.00  0.00    +0.019 C 
ATOM     12  C   UNL     1      -2.932  -0.795  25.299  0.00  0.00    +0.027 C 
ATOM     13  C   UNL     1      -2.599  -0.085  25.041  0.00  0.00    +0.138 C 
BRANCH   9   8
ATOM      8  C   UNL     1      -3.132   1.213  24.603  0.00  0.00    +0.099 C 
BRANCH   8   7
ATOM      4  C   UNL     1      -4.792   2.935  25.237  0.00  0.00    +0.080 A 
ATOM      5  C   UNL     1      -4.041   2.941  25.577  0.00  0.00    +0.006 A 
ATOM      6  C   UNL     1      -3.487   2.368  25.367  0.00  0.00    -0.003 A 
ATOM      7  C   UNL     1      -3.686   1.787  24.814  0.00  0.00    -0.006 A 
ATOM     32  C   UNL     1      -4.437   1.780  24.474  0.00  0.00    -0.003 A 
ATOM     33  C   UNL     1      -4.990   2.355  24.686  0.00  0.00    +0.006 A 
BRANCH   4   2
ATOM      1  O   UNL     1      -6.040   3.290  25.838  0.00  0.00    -0.241 OA
ATOM      2  C   UNL     1      -5.345   3.509  25.449  0.00  0.00    +0.388 C 
ATOM      3  O   UNL     1      -5.205   4.303  25.271  0.00  0.00    -0.241 OA
ENDBRANCH   4   2
ENDBRANCH   8   7
ENDBRANCH   9   8
ENDBRANCH  14  13
TORSDOF 7
ENDMDL
MODEL 4
REMARK VINA RESULT:     -10.9      3.048      5.226
REMARK  Name = 
REMARK  7 active torsions:
REMARK  status: ('A' for Active; 'I' for Inactive)
REMARK    1  A    between atoms: C_2  and  C_4
REMARK    2  A    between atoms: C_7  and  C_8
REMARK    3  A    between atoms: C_8  and  N_9
REMARK    4  A    between atoms: C_13  and  C_14
REMARK    5  A    between atoms: C_16  and  C_19
REMARK    6  A    between atoms: C_22  and  O_23
REMARK    7  A    between atoms: O_23  and  C_24
REMARK                            x       y       z     vdW  Elec       q    Type
REMARK                         _______ _______ _______ _____ _____    ______ ____
ROOT
ATOM     14  C   UNL     1      -0.773   1.248  23.958  0.00  0.00    +0.251 A 
ATOM     15  N   UNL     1      -0.201   0.937  23.451  0.00  0.00    -0.190 NA
ATOM     16  C   UNL     1       0.540   1.092  23.775  0.00  0.00    +0.205 A 
ATOM     17  N   UNL     1       0.428   1.499  24.485  0.00  0.00    -0.056 NA
ATOM     18  O   UNL     1      -0.384   1.595  24.597  0.00  0.00    -0.336 OA
ENDROOT
BRANCH  16  19
ATOM     19  C   UNL     1       1.268   0.878  23.450  0.00  0.00    +0.058 A 
ATOM     20  C   UNL     1       1.362   0.134  23.105  0.00  0.00    +0.010 A 
ATOM     21  C   UNL     1       2.088  -0.081  22.779  0.00  0.00    +0.058 A 
ATOM     22  C   UNL     1       2.721   0.448  22.799  0.00  0.00    +0.225 A 
ATOM     30  N   UNL     1       2.628   1.192  23.144  0.00  0.00    -0.210 NA
ATOM     31  C   UNL     1       1.901   1.406  23.469  0.00  0.00    +0.105 A 
BRANCH  22  23
ATOM     23  O   UNL     1       3.449   0.233  22.473  0.00  0.00    -0.464 OA
BRANCH  23  24
ATOM     24  C   UNL     1       4.094   0.085  22.965  0.00  0.00    +0.168 C 
ATOM     25  C   UNL     1       4.173  -0.651  23.331  0.00  0.00    +0.044 C 
ATOM     26  C   UNL     1       4.818  -0.799  23.824  0.00  0.00    +0.004 C 
ATOM     27  C   UNL     1       5.383  -0.212  23.951  0.00  0.00    +0.000 C 
ATOM     28  C   UNL     1       5.304   0.524  23.585  0.00  0.00    +0.004 C 
ATOM     29  C   UNL     1       4.659   0.672  23.092  0.00  0.00    +0.044 C 
ENDBRANCH  23  24
ENDBRANCH  22  23
ENDBRANCH  16  19
BRANCH  14  13
ATOM      9  N   UNL     1      -2.110   0.690  24.211  0.00  0.00    -0.263 NA
ATOM     10  C   UNL     1      -2.871   0.857  23.941  0.00  0.00    +0.073 C 
ATOM     11  C   UNL     1      -2.821   1.486  23.409  0.00  0.00    +0.019 C 
ATOM     12  C   UNL     1      -2.029   1.709  23.351  0.00  0.00    +0.027 C 
ATOM     13  C   UNL     1      -1.589   1.217  23.847  0.00  0.00    +0.138 C 
BRANCH   9   8
ATOM      8  C   UNL     1      -1.905   0.102  24.750  0.00  0.00    +0.099 C 
BRANCH   8   7
ATOM      4  C   UNL     1      -3.178  -2.020  24.811  0.00  0.00    +0.080 A 
ATOM      5  C   UNL     1      -2.484  -1.967  24.367  0.00  0.00    +0.006 A 
ATOM      6  C   UNL     1      -2.060  -1.261  24.347  0.00  0.00    -0.003 A 
ATOM      7  C   UNL     1      -2.329  -0.605  24.770  0.00  0.00    -0.006 A 
ATOM     32  C   UNL     1      -3.023  -0.658  25.214  0.00  0.00    -0.003 A 
ATOM     33  C   UNL     1      -3.446  -1.365  25.234  0.00  0.00    +0.006 A 
BRANCH   4   2
ATOM      1  O   UNL     1      -4.066  -2.948  24.186  0.00  0.00    -0.241 OA
ATOM      2  C   UNL     1      -3.601  -2.727  24.832  0.00  0.00    +0.388 C 
ATOM      3  O   UNL     1      -3.562  -3.213  25.497  0.00  0.00    -0.241 OA
ENDBRANCH   4   2
ENDBRANCH   8   7
ENDBRANCH   9   8
ENDBRANCH  14  13
TORSDOF 7
ENDMDL
MODEL 5
REMARK VINA RESULT:     -10.7      1.172      5.194
REMARK  Name = 
REMARK  7 active torsions:
REMARK  status: ('A' for Active; 'I' for Inactive)
REMARK    1  A    between atoms: C_2  and  C_4
REMARK    2  A    between atoms: C_7  and  C_8
REMARK    3  A    between atoms: C_8  and  N_9
REMARK    4  A    between atoms: C_13  and  C_14
REMARK    5  A    between atoms: C_16  and  C_19
REMARK    6  A    between atoms: C_22  and  O_23
REMARK    7  A    between atoms: O_23  and  C_24
REMARK                            x       y       z     vdW  Elec       q    Type
REMARK                         _______ _______ _______ _____ _____    ______ ____
ROOT
ATOM     14  C   UNL     1      -0.071   1.153  24.275  0.00  0.00    +0.251 A 
ATOM     15  N   UNL     1      -0.819   1.492  24.347  0.00  0.00    -0.190 NA
ATOM     16  C   UNL     1      -0.735   2.219  24.728  0.00  0.00    +0.205 A 
ATOM     17  N   UNL     1       0.067   2.329  24.892  0.00  0.00    -0.056 NA
ATOM     18  O   UNL     1       0.477   1.670  24.612  0.00  0.00    -0.336 OA
ENDROOT
BRANCH  16  19
ATOM     19  C   UNL     1      -1.343   2.744  24.913  0.00  0.00    +0.058 A 
ATOM     20  C   UNL     1      -1.450   2.993  25.693  0.00  0.00    +0.010 A 
ATOM     21  C   UNL     1      -2.058   3.518  25.879  0.00  0.00    +0.058 A 
ATOM     22  C   UNL     1      -2.560   3.794  25.286  0.00  0.00    +0.225 A 
ATOM     30  N   UNL     1      -2.454   3.546  24.506  0.00  0.00    -0.210 NA
ATOM     31  C   UNL     1      -1.845   3.021  24.320  0.00  0.00    +0.105 A 
BRANCH  22  23
ATOM     23  O   UNL     1      -3.169   4.320  25.472  0.00  0.00    -0.464 OA
BRANCH  23  24
ATOM     24  C   UNL     1      -3.947   4.051  25.512  0.00  0.00    +0.168 C 
ATOM     25  C   UNL     1      -4.438   4.108  24.851  0.00  0.00    +0.044 C 
ATOM     26  C   UNL     1      -5.217   3.840  24.891  0.00  0.00    +0.004 C 
ATOM     27  C   UNL     1      -5.505   3.514  25.593  0.00  0.00    +0.000 C 
ATOM     28  C   UNL     1      -5.015   3.457  26.254  0.00  0.00    +0.004 C 
ATOM     29  C   UNL     1      -4.236   3.726  26.214  0.00  0.00    +0.044 C 
ENDBRANCH  23  24
ENDBRANCH  22  23
ENDBRANCH  16  19
BRANCH  14  13
ATOM      9  N   UNL     1      -0.175  -0.311  24.181  0.00  0.00    -0.263 NA
ATOM     10  C   UNL     1       0.133  -0.886  23.676  0.00  0.00    +0.073 C 
ATOM     11  C   UNL     1       0.599  -0.505  23.110  0.00  0.00    +0.019 C 
ATOM     12  C   UNL     1       0.579   0.305  23.266  0.00  0.00    +0.027 C 
ATOM     13  C   UNL     1       0.101   0.425  23.928  0.00  0.00    +0.138 C 
BRANCH   9   8
ATOM      8  C   UNL     1      -0.670  -0.447  24.825  0.00  0.00    +0.099 C 
BRANCH   8   7
ATOM      4  C   UNL     1      -2.456  -2.155  24.676  0.00  0.00    +0.080 A 
ATOM      5  C   UNL     1      -2.638  -1.357  24.570  0.00  0.00    +0.006 A 
ATOM      6  C   UNL     1      -2.043  -0.788  24.620  0.00  0.00    -0.003 A 
ATOM      7  C   UNL     1      -1.265  -1.017  24.776  0.00  0.00    -0.006 A 
ATOM     32  C   UNL     1      -1.083  -1.815  24.881  0.00  0.00    -0.003 A 
ATOM     33  C   UNL     1      -1.679  -2.383  24.831  0.00  0.00    +0.006 A 
BRANCH   4   2
ATOM      1  O   UNL     1      -3.246  -3.053  23.895  0.00  0.00    -0.241 OA
ATOM      2  C   UNL     1      -3.051  -2.723  24.626  0.00  0.00    +0.388 C 
ATOM      3  O   UNL     1      -3.452  -2.963  25.307  0.00  0.00    -0.241 OA
ENDBRANCH   4   2
ENDBRANCH   8   7
ENDBRANCH   9   8
ENDBRANCH  14  13
TORSDOF 7
ENDMDL
