MODEL 1
REMARK VINA RESULT:     -17.5      0.000      0.000
REMARK  Name = 
REMARK  2 active torsions:
REMARK  status: ('A' for Active; 'I' for Inactive)
REMARK    1  A    between atoms: C_5  and  C_8
REMARK    2  A    between atoms: C_18  and  C_20
REMARK                            x       y       z     vdW  Elec       q    Type
REMARK                         _______ _______ _______ _____ _____    ______ ____
ROOT
ATOM      8  C   UNL     1      -3.944   0.005  24.538  0.00  0.00    +0.056 A 
ATOM      9  C   UNL     1      -4.643  -0.461  24.219  0.00  0.00    +0.006 A 
ATOM     10  C   UNL     1      -4.505  -1.271  24.154  0.00  0.00    +0.013 A 
ATOM     11  C   UNL     1      -3.774  -1.583  24.375  0.00  0.00    +0.041 A 
ATOM     12  C   UNL     1      -3.325  -2.384  24.424  0.00  0.00    +0.058 C 
ATOM     13  C   UNL     1      -3.407  -3.069  24.297  0.00  0.00    +0.011 C 
ATOM     14  C   UNL     1      -2.824  -2.574  24.579  0.00  0.00    +0.043 C 
ATOM     15  C   UNL     1      -2.008  -2.148  24.935  0.00  0.00    +0.095 C 
ATOM     16  N   UNL     1      -2.263  -1.352  24.955  0.00  0.00    -0.279 N 
ATOM     17  C   UNL     1      -2.528  -1.986  24.769  0.00  0.00    +0.099 C 
ATOM     18  C   UNL     1      -2.123  -0.507  25.125  0.00  0.00    +0.225 C 
ATOM     19  O   UNL     1      -1.326  -0.307  25.443  0.00  0.00    -0.275 OA
ATOM     26  C   UNL     1      -3.285  -1.733  24.531  0.00  0.00    +0.110 C 
ATOM     27  N   UNL     1      -3.181  -1.085  24.660  0.00  0.00    -0.299 N 
ATOM     28  C   UNL     1      -3.320  -0.274  24.725  0.00  0.00    +0.261 A 
ATOM     29  O   UNL     1      -2.494   0.282  25.103  0.00  0.00    -0.267 OA
ENDROOT
BRANCH   8   5
ATOM      1 CL   UNL     1      -4.691   3.270  25.082  0.00  0.00    -0.082 Cl
ATOM      2  C   UNL     1      -4.514   2.431  24.942  0.00  0.00    +0.058 A 
ATOM      3  C   UNL     1      -5.140   1.906  24.829  0.00  0.00    +0.011 A 
ATOM      4  C   UNL     1      -4.988   1.105  24.695  0.00  0.00    +0.001 A 
ATOM      5  C   UNL     1      -3.870   0.751  24.670  0.00  0.00    +0.005 A 
ATOM      6  C   UNL     1      -3.811   1.412  24.788  0.00  0.00    +0.001 A 
ATOM      7  C   UNL     1      -3.736   2.157  24.920  0.00  0.00    +0.011 A 
ENDBRANCH   8   5
BRANCH  18  20
ATOM     20  C   UNL     1      -2.890  -0.068  24.910  0.00  0.00    +0.077 C 
ATOM     21  C   UNL     1      -2.882   0.273  24.159  0.00  0.00    +0.009 C 
ATOM     22  C   UNL     1      -3.542   0.689  23.889  0.00  0.00    +0.000 C 
ATOM     23  C   UNL     1      -4.208   0.763  24.370  0.00  0.00    +0.000 C 
ATOM     24  C   UNL     1      -4.215   0.422  25.121  0.00  0.00    +0.000 C 
ATOM     25  C   UNL     1      -3.555   0.006  25.391  0.00  0.00    +0.009 C 
ENDBRANCH  18  20
TORSDOF 2
ENDMDL
MODEL 2
REMARK VINA RESULT:     -17.5      1.567      3.344
REMARK  Name = 
REMARK  2 active torsions:
REMARK  status: ('A' for Active; 'I' for Inactive)
REMARK    1  A    between atoms: C_5  and  C_8
REMARK    2  A    between atoms: C_18  and  C_20
REMARK                            x       y       z     vdW  Elec       q    Type
REMARK                         _______ _______ _______ _____ _____    ______ ____
ROOT
ATOM      8  C   UNL     1      -3.924   0.097  24.672  0.00  0.00    +0.056 A 
ATOM      9  C   UNL     1      -4.786   0.343  24.608  0.00  0.00    +0.006 A 
ATOM     10  C   UNL     1      -4.905   1.159  24.646  0.00  0.00    +0.013 A 
ATOM     11  C   UNL     1      -4.260   1.665  24.736  0.00  0.00    +0.041 A 
ATOM     12  C   UNL     1      -4.060   2.559  24.807  0.00  0.00    +0.058 C 
ATOM     13  C   UNL     1      -4.363   3.192  24.818  0.00  0.00    +0.011 C 
ATOM     14  C   UNL     1      -3.611   2.884  24.868  0.00  0.00    +0.043 C 
ATOM     15  C   UNL     1      -2.642   2.708  24.945  0.00  0.00    +0.095 C 
ATOM     16  N   UNL     1      -2.646   1.874  24.895  0.00  0.00    -0.279 N 
ATOM     17  C   UNL     1      -3.121   2.406  24.884  0.00  0.00    +0.099 C 
ATOM     18  C   UNL     1      -2.233   1.105  24.887  0.00  0.00    +0.225 C 
ATOM     19  O   UNL     1      -1.356   1.140  24.968  0.00  0.00    -0.275 OA
ATOM     26  C   UNL     1      -3.810   1.948  24.793  0.00  0.00    +0.110 C 
ATOM     27  N   UNL     1      -3.497   1.357  24.787  0.00  0.00    -0.299 N 
ATOM     28  C   UNL     1      -3.378   0.541  24.749  0.00  0.00    +0.261 A 
ATOM     29  O   UNL     1      -2.358   0.244  24.824  0.00  0.00    -0.267 OA
ENDROOT
BRANCH   8   5
ATOM      1 CL   UNL     1      -3.463  -3.223  24.143  0.00  0.00    -0.082 Cl
ATOM      2  C   UNL     1      -3.595  -2.374  24.272  0.00  0.00    +0.058 A 
ATOM      3  C   UNL     1      -4.309  -2.040  24.028  0.00  0.00    +0.011 A 
ATOM      4  C   UNL     1      -4.448  -1.235  24.144  0.00  0.00    +0.001 A 
ATOM      5  C   UNL     1      -3.609  -0.596  24.659  0.00  0.00    +0.005 A 
ATOM      6  C   UNL     1      -3.336  -1.212  24.645  0.00  0.00    +0.001 A 
ATOM      7  C   UNL     1      -3.021  -1.904  24.632  0.00  0.00    +0.011 A 
ENDBRANCH   8   5
BRANCH  18  20
ATOM     20  C   UNL     1      -2.873   0.467  24.790  0.00  0.00    +0.077 C 
ATOM     21  C   UNL     1      -3.112   0.119  25.499  0.00  0.00    +0.009 C 
ATOM     22  C   UNL     1      -3.690  -0.470  25.495  0.00  0.00    +0.000 C 
ATOM     23  C   UNL     1      -4.029  -0.710  24.783  0.00  0.00    +0.000 C 
ATOM     24  C   UNL     1      -3.790  -0.362  24.073  0.00  0.00    +0.000 C 
ATOM     25  C   UNL     1      -3.212   0.227  24.077  0.00  0.00    +0.009 C 
ENDBRANCH  18  20
TORSDOF 2
ENDMDL
MODEL 3
REMARK VINA RESULT:     -17.2      1.803      3.774
REMARK  Name = 
REMARK  2 active torsions:
REMARK  status: ('A' for Active; 'I' for Inactive)
REMARK    1  A    between atoms: C_5  and  C_8
REMARK    2  A    between atoms: C_18  and  C_20
REMARK                            x       y       z     vdW  Elec       q    Type
REMARK                         _______ _______ _______ _____ _____    ______ ____
ROOT
ATOM      8  C   UNL     1      -3.406   0.607  24.665  0.00  0.00    +0.056 A 
ATOM      9  C   UNL     1      -2.536   0.815  24.751  0.00  0.00    +0.006 A 
ATOM     10  C   UNL     1      -2.398   1.608  24.929  0.00  0.00    +0.013 A 
ATOM     11  C   UNL     1      -3.032   2.129  25.012  0.00  0.00    +0.041 A 
ATOM     12  C   UNL     1      -3.211   3.011  25.194  0.00  0.00    +0.058 C 
ATOM     13  C   UNL     1      -2.892   3.619  25.340  0.00  0.00    +0.011 C 
ATOM     14  C   UNL     1      -3.654   3.347  25.245  0.00  0.00    +0.043 C 
ATOM     15  C   UNL     1      -4.630   3.212  25.170  0.00  0.00    +0.095 C 
ATOM     16  N   UNL     1      -4.645   2.395  24.993  0.00  0.00    -0.279 N 
ATOM     17  C   UNL     1      -4.157   2.897  25.124  0.00  0.00    +0.099 C 
ATOM     18  C   UNL     1      -5.078   1.658  24.813  0.00  0.00    +0.225 C 
ATOM     19  O   UNL     1      -5.956   1.726  24.786  0.00  0.00    -0.275 OA
ATOM     26  C   UNL     1      -3.476   2.423  25.054  0.00  0.00    +0.110 C 
ATOM     27  N   UNL     1      -3.805   1.856  24.916  0.00  0.00    -0.299 N 
ATOM     28  C   UNL     1      -3.943   1.063  24.738  0.00  0.00    +0.261 A 
ATOM     29  O   UNL     1      -4.973   0.811  24.635  0.00  0.00    -0.267 OA
ENDROOT
BRANCH   8   5
ATOM      1 CL   UNL     1      -3.904  -2.721  24.223  0.00  0.00    -0.082 Cl
ATOM      2  C   UNL     1      -3.762  -1.872  24.340  0.00  0.00    +0.058 A 
ATOM      3  C   UNL     1      -3.016  -1.623  24.590  0.00  0.00    +0.011 A 
ATOM      4  C   UNL     1      -2.867  -0.820  24.706  0.00  0.00    +0.001 A 
ATOM      5  C   UNL     1      -3.738  -0.060  24.505  0.00  0.00    +0.005 A 
ATOM      6  C   UNL     1      -4.026  -0.653  24.366  0.00  0.00    +0.001 A 
ATOM      7  C   UNL     1      -4.359  -1.318  24.206  0.00  0.00    +0.011 A 
ENDBRANCH   8   5
BRANCH  18  20
ATOM     20  C   UNL     1      -4.451   1.009  24.702  0.00  0.00    +0.077 C 
ATOM     21  C   UNL     1      -4.226   0.888  23.918  0.00  0.00    +0.009 C 
ATOM     22  C   UNL     1      -3.660   0.316  23.736  0.00  0.00    +0.000 C 
ATOM     23  C   UNL     1      -3.321  -0.136  24.336  0.00  0.00    +0.000 C 
ATOM     24  C   UNL     1      -3.546  -0.015  25.121  0.00  0.00    +0.000 C 
ATOM     25  C   UNL     1      -4.112   0.558  25.304  0.00  0.00    +0.009 C 
ENDBRANCH  18  20
TORSDOF 2
ENDMDL
MODEL 4
REMARK VINA RESULT:     -16.7      2.594      4.006
REMARK  Name = 
REMARK  2 active torsions:
REMARK  status: ('A' for Active; 'I' for Inactive)
REMARK    1  A    between atoms: C_5  and  C_8
REMARK    2  A    between atoms: C_18  and  C_20
REMARK                            x       y       z     vdW  Elec       q    Type
REMARK                         _______ _______ _______ _____ _____    ______ ____
ROOT
ATOM      8  C   UNL     1      -2.838   2.931  25.042  0.00  0.00    +0.056 A 
ATOM      9  C   UNL     1      -2.427   2.147  24.894  0.00  0.00    +0.006 A 
ATOM     10  C   UNL     1      -2.942   1.504  24.841  0.00  0.00    +0.013 A 
ATOM     11  C   UNL     1      -3.754   1.618  24.924  0.00  0.00    +0.041 A 
ATOM     12  C   UNL     1      -4.545   1.150  24.920  0.00  0.00    +0.058 C 
ATOM     13  C   UNL     1      -4.800   0.501  24.845  0.00  0.00    +0.011 C 
ATOM     14  C   UNL     1      -5.091   1.250  24.978  0.00  0.00    +0.043 C 
ATOM     15  C   UNL     1      -5.627   2.064  25.141  0.00  0.00    +0.095 C 
ATOM     16  N   UNL     1      -5.014   2.631  25.174  0.00  0.00    -0.279 N 
ATOM     17  C   UNL     1      -5.077   1.928  25.076  0.00  0.00    +0.099 C 
ATOM     18  C   UNL     1      -4.735   3.453  25.271  0.00  0.00    +0.225 C 
ATOM     19  O   UNL     1      -5.362   4.056  25.410  0.00  0.00    -0.275 OA
ATOM     26  C   UNL     1      -4.269   1.747  24.985  0.00  0.00    +0.110 C 
ATOM     27  N   UNL     1      -4.052   2.376  25.059  0.00  0.00    -0.299 N 
ATOM     28  C   UNL     1      -3.538   3.019  25.111  0.00  0.00    +0.261 A 
ATOM     29  O   UNL     1      -4.020   3.952  25.286  0.00  0.00    -0.267 OA
ENDROOT
BRANCH   8   5
ATOM      1 CL   UNL     1      -0.672   5.544  25.000  0.00  0.00    -0.082 Cl
ATOM      2  C   UNL     1      -1.216   4.866  25.005  0.00  0.00    +0.058 A 
ATOM      3  C   UNL     1      -0.942   4.134  24.743  0.00  0.00    +0.011 A 
ATOM      4  C   UNL     1      -1.447   3.480  24.742  0.00  0.00    +0.001 A 
ATOM      5  C   UNL     1      -2.548   3.631  25.120  0.00  0.00    +0.005 A 
ATOM      6  C   UNL     1      -2.284   4.248  25.187  0.00  0.00    +0.001 A 
ATOM      7  C   UNL     1      -1.994   4.947  25.266  0.00  0.00    +0.011 A 
ENDBRANCH   8   5
BRANCH  18  20
ATOM     20  C   UNL     1      -3.829   3.431  25.195  0.00  0.00    +0.077 C 
ATOM     21  C   UNL     1      -3.431   3.409  25.916  0.00  0.00    +0.009 C 
ATOM     22  C   UNL     1      -2.606   3.388  25.931  0.00  0.00    +0.000 C 
ATOM     23  C   UNL     1      -2.180   3.388  25.225  0.00  0.00    +0.000 C 
ATOM     24  C   UNL     1      -2.580   3.410  24.503  0.00  0.00    +0.000 C 
ATOM     25  C   UNL     1      -3.405   3.431  24.488  0.00  0.00    +0.009 C 
ENDBRANCH  18  20
TORSDOF 2
ENDMDL
MODEL 5
REMARK VINA RESULT:     -16.7      3.031      4.118
REMARK  Name = 
REMARK  2 active torsions:
REMARK  status: ('A' for Active; 'I' for Inactive)
REMARK    1  A    between atoms: C_5  and  C_8
REMARK    2  A    between atoms: C_18  and  C_20
REMARK                            x       y       z     vdW  Elec       q    Type
REMARK                         _______ _______ _______ _____ _____    ______ ____
ROOT
ATOM      8  C   UNL     1      -3.471   3.232  25.024  0.00  0.00    +0.056 A 
ATOM      9  C   UNL     1      -3.465   3.978  25.523  0.00  0.00    +0.006 A 
ATOM     10  C   UNL     1      -2.726   4.343  25.573  0.00  0.00    +0.013 A 
ATOM     11  C   UNL     1      -2.078   4.015  25.182  0.00  0.00    +0.041 A 
ATOM     12  C   UNL     1      -1.182   4.159  25.042  0.00  0.00    +0.058 C 
ATOM     13  C   UNL     1      -0.664   4.604  25.204  0.00  0.00    +0.011 C 
ATOM     14  C   UNL     1      -0.757   3.921  24.770  0.00  0.00    +0.043 C 
ATOM     15  C   UNL     1      -0.668   3.114  24.206  0.00  0.00    +0.095 C 
ATOM     16  N   UNL     1      -1.457   2.839  24.230  0.00  0.00    -0.279 N 
ATOM     17  C   UNL     1      -1.080   3.383  24.495  0.00  0.00    +0.099 C 
ATOM     18  C   UNL     1      -2.075   2.263  24.007  0.00  0.00    +0.225 C 
ATOM     19  O   UNL     1      -1.811   1.599  23.492  0.00  0.00    -0.275 OA
ATOM     26  C   UNL     1      -1.693   3.762  24.911  0.00  0.00    +0.110 C 
ATOM     27  N   UNL     1      -2.169   3.323  24.742  0.00  0.00    -0.299 N 
ATOM     28  C   UNL     1      -2.908   2.958  24.692  0.00  0.00    +0.261 A 
ATOM     29  O   UNL     1      -2.920   2.073  24.102  0.00  0.00    -0.267 OA
ENDROOT
BRANCH   8   5
ATOM      1 CL   UNL     1      -6.482   1.667  25.084  0.00  0.00    -0.082 Cl
ATOM      2  C   UNL     1      -5.716   2.077  25.080  0.00  0.00    +0.058 A 
ATOM      3  C   UNL     1      -5.586   2.685  25.622  0.00  0.00    +0.011 A 
ATOM      4  C   UNL     1      -4.863   3.083  25.630  0.00  0.00    +0.001 A 
ATOM      5  C   UNL     1      -4.043   2.757  24.857  0.00  0.00    +0.005 A 
ATOM      6  C   UNL     1      -4.553   2.340  24.714  0.00  0.00    +0.001 A 
ATOM      7  C   UNL     1      -5.123   1.866  24.546  0.00  0.00    +0.011 A 
ENDBRANCH   8   5
BRANCH  18  20
ATOM     20  C   UNL     1      -2.846   2.544  24.398  0.00  0.00    +0.077 C 
ATOM     21  C   UNL     1      -3.330   2.993  23.904  0.00  0.00    +0.009 C 
ATOM     22  C   UNL     1      -4.049   3.285  24.187  0.00  0.00    +0.000 C 
ATOM     23  C   UNL     1      -4.282   3.129  24.962  0.00  0.00    +0.000 C 
ATOM     24  C   UNL     1      -3.796   2.680  25.456  0.00  0.00    +0.000 C 
ATOM     25  C   UNL     1      -3.077   2.388  25.174  0.00  0.00    +0.009 C 
ENDBRANCH  18  20
TORSDOF 2
ENDMDL
