REMARK  Name = 
REMARK  3 active torsions:
REMARK  status: ('A' for Active; 'I' for Inactive)
REMARK    1  A    between atoms: C_4  and  O_5
REMARK    2  A    between atoms: O_5  and  C_6
REMARK    3  A    between atoms: N_11  and  C_13
REMARK                            x       y       z     vdW  Elec       q    Type
REMARK                         _______ _______ _______ _____ _____    ______ ____
ROOT
ATOM      6  C   UNL     1       2.289   2.983   0.000  0.00  0.00    +0.213 C 
ATOM      7  C   UNL     1       2.803   3.628   0.000  0.00  0.00    +0.187 C 
ATOM      8  O   UNL     1       3.628   3.628   0.000  0.00  0.00    -0.348 OA
ATOM      9  C   UNL     1       4.143   2.983   0.000  0.00  0.00    +0.160 C 
ATOM     10  C   UNL     1       3.959   2.179   0.000  0.00  0.00    +0.105 C 
ATOM     11  N   UNL     1       3.216   1.821   0.000  0.00  0.00    -0.269 NA
ATOM     12  C   UNL     1       2.472   2.179   0.000  0.00  0.00    +0.119 C 
ENDROOT
BRANCH  11  13
ATOM     13  C   UNL     1       3.216   0.996   0.000  0.00  0.00    +0.058 C 
ATOM     14  C   UNL     1       3.799   0.412   0.000  0.00  0.00    +0.016 C 
ATOM     15  C   UNL     1       3.216  -0.171   0.000  0.00  0.00    +0.003 C 
ATOM     16  C   UNL     1       2.632   0.412   0.000  0.00  0.00    +0.016 C 
ENDBRANCH  11  13
BRANCH   6   5
ATOM      5  O   UNL     1       1.484   3.167   0.000  0.00  0.00    -0.460 OA
BRANCH   5   4
ATOM      1  C   UNL     1       2.120   5.953   0.000  0.00  0.00    +0.052 C 
ATOM      2  C   UNL     1       1.559   5.348   0.000  0.00  0.00    +0.062 A 
ATOM      3  N   UNL     1       1.802   4.560   0.000  0.00  0.00    -0.216 NA
ATOM      4  C   UNL     1       1.241   3.955   0.000  0.00  0.00    +0.225 A 
ATOM     17  C   UNL     1       0.437   4.139   0.000  0.00  0.00    +0.058 A 
ATOM     18  C   UNL     1       0.194   4.927   0.000  0.00  0.00    +0.006 A 
ATOM     19  C   UNL     1       0.755   5.532   0.000  0.00  0.00    +0.015 A 
ENDBRANCH   5   4
ENDBRANCH   6   5
TORSDOF 3
