MODEL 1
REMARK VINA RESULT:     -11.5      0.000      0.000
REMARK  Name = 
REMARK  6 active torsions:
REMARK  status: ('A' for Active; 'I' for Inactive)
REMARK    1  A    between atoms: O_2  and  C_3
REMARK    2  A    between atoms: C_6  and  N_7
REMARK    3  A    between atoms: C_8  and  O_10
REMARK    4  A    between atoms: O_10  and  C_11
REMARK    5  A    between atoms: C_13  and  C_16
REMARK    6  A    between atoms: N_19  and  C_23
REMARK                            x       y       z     vdW  Elec       q    Type
REMARK                         _______ _______ _______ _____ _____    ______ ____
ROOT
ATOM     11  C   UNL     1      -5.024   1.024  24.915  0.00  0.00    +0.193 C 
ATOM     12  C   UNL     1      -4.435   1.478  25.272  0.00  0.00    +0.057 C 
ATOM     13  C   UNL     1      -4.542   2.262  25.039  0.00  0.00    +0.050 C 
ATOM     14  C   UNL     1      -5.198   2.292  24.539  0.00  0.00    -0.023 C 
ATOM     15  C   UNL     1      -5.495   1.526  24.463  0.00  0.00    +0.012 C 
ENDROOT
BRANCH  13  16
ATOM     16  C   UNL     1      -4.076   2.903  25.266  0.00  0.00    +0.011 A 
ATOM     17  C   UNL     1      -3.336   3.099  24.957  0.00  0.00    +0.058 A 
ATOM     18  C   UNL     1      -2.933   2.688  24.367  0.00  0.00    +0.052 C 
ATOM     19  N   UNL     1      -3.071   3.779  25.343  0.00  0.00    -0.234 N 
ATOM     20  N   UNL     1      -3.646   4.003  25.890  0.00  0.00    -0.170 NA
ATOM     21  C   UNL     1      -4.268   3.462  25.843  0.00  0.00    +0.077 A 
ATOM     22  C   UNL     1      -4.960   3.477  26.292  0.00  0.00    +0.054 C 
BRANCH  19  23
ATOM     23  C   UNL     1      -2.355   4.166  25.206  0.00  0.00    +0.083 A 
ATOM     24  C   UNL     1      -2.353   4.937  24.912  0.00  0.00    +0.019 A 
ATOM     25  C   UNL     1      -1.638   5.324  24.774  0.00  0.00    -0.002 A 
ATOM     26  C   UNL     1      -0.924   4.940  24.931  0.00  0.00    -0.011 A 
ATOM     27  C   UNL     1      -0.209   5.327  24.794  0.00  0.00    +0.032 C 
ATOM     28  C   UNL     1      -0.926   4.170  25.225  0.00  0.00    +0.055 A 
ATOM     29 CL   UNL     1      -0.213   3.786  25.382  0.00  0.00    -0.083 Cl
ATOM     30  C   UNL     1      -1.642   3.782  25.363  0.00  0.00    +0.030 A 
ENDBRANCH  19  23
ENDBRANCH  13  16
BRANCH  11  10
ATOM     10  O   UNL     1      -5.124   0.209  24.998  0.00  0.00    -0.432 OA
BRANCH  10   8
ATOM      7  N   UNL     1      -4.162  -0.803  25.303  0.00  0.00    -0.142 NA
ATOM      8  C   UNL     1      -4.528  -0.307  24.755  0.00  0.00    +0.426 C 
ATOM      9  O   UNL     1      -4.298  -0.326  23.963  0.00  0.00    -0.224 OA
BRANCH   7   6
ATOM      3  C   UNL     1      -2.373  -2.349  24.573  0.00  0.00    +0.139 A 
ATOM      4  C   UNL     1      -2.179  -1.648  24.960  0.00  0.00    +0.038 A 
ATOM      5  C   UNL     1      -2.775  -1.132  25.204  0.00  0.00    +0.020 A 
ATOM      6  C   UNL     1      -3.566  -1.318  25.060  0.00  0.00    +0.077 A 
ATOM     31  C   UNL     1      -3.760  -2.020  24.672  0.00  0.00    +0.020 A 
ATOM     32  C   UNL     1      -3.165  -2.536  24.429  0.00  0.00    +0.038 A 
BRANCH   3   2
ATOM      1  C   UNL     1      -1.001  -2.596  24.256  0.00  0.00    +0.252 C 
ATOM      2  O   UNL     1      -1.777  -2.865  24.329  0.00  0.00    -0.471 OA
ENDBRANCH   3   2
ENDBRANCH   7   6
ENDBRANCH  10   8
ENDBRANCH  11  10
TORSDOF 6
ENDMDL
MODEL 2
REMARK VINA RESULT:     -11.0      2.350      5.145
REMARK  Name = 
REMARK  6 active torsions:
REMARK  status: ('A' for Active; 'I' for Inactive)
REMARK    1  A    between atoms: O_2  and  C_3
REMARK    2  A    between atoms: C_6  and  N_7
REMARK    3  A    between atoms: C_8  and  O_10
REMARK    4  A    between atoms: O_10  and  C_11
REMARK    5  A    between atoms: C_13  and  C_16
REMARK    6  A    between atoms: N_19  and  C_23
REMARK                            x       y       z     vdW  Elec       q    Type
REMARK                         _______ _______ _______ _____ _____    ______ ____
ROOT
ATOM     11  C   UNL     1      -3.496   3.213  24.416  0.00  0.00    +0.193 C 
ATOM     12  C   UNL     1      -3.526   2.462  24.755  0.00  0.00    +0.057 C 
ATOM     13  C   UNL     1      -4.154   2.052  24.408  0.00  0.00    +0.050 C 
ATOM     14  C   UNL     1      -4.510   2.551  23.856  0.00  0.00    -0.023 C 
ATOM     15  C   UNL     1      -4.103   3.269  23.862  0.00  0.00    +0.012 C 
ENDROOT
BRANCH  13  16
ATOM     16  C   UNL     1      -4.383   1.280  24.583  0.00  0.00    +0.011 A 
ATOM     17  C   UNL     1      -3.993   0.592  24.347  0.00  0.00    +0.058 A 
ATOM     18  C   UNL     1      -3.304   0.556  23.895  0.00  0.00    +0.052 C 
ATOM     19  N   UNL     1      -4.413  -0.054  24.643  0.00  0.00    -0.234 N 
ATOM     20  N   UNL     1      -5.062   0.234  25.061  0.00  0.00    -0.170 NA
ATOM     21  C   UNL     1      -5.045   1.059  25.025  0.00  0.00    +0.077 A 
ATOM     22  C   UNL     1      -5.592   1.572  25.369  0.00  0.00    +0.054 C 
BRANCH  19  23
ATOM     23  C   UNL     1      -4.217  -0.849  24.538  0.00  0.00    +0.083 A 
ATOM     24  C   UNL     1      -4.437  -1.240  23.846  0.00  0.00    +0.019 A 
ATOM     25  C   UNL     1      -4.241  -2.034  23.742  0.00  0.00    -0.002 A 
ATOM     26  C   UNL     1      -3.825  -2.438  24.329  0.00  0.00    -0.011 A 
ATOM     27  C   UNL     1      -3.629  -3.232  24.225  0.00  0.00    +0.032 C 
ATOM     28  C   UNL     1      -3.605  -2.046  25.021  0.00  0.00    +0.055 A 
ATOM     29 CL   UNL     1      -3.189  -2.449  25.609  0.00  0.00    -0.083 Cl
ATOM     30  C   UNL     1      -3.801  -1.251  25.126  0.00  0.00    +0.030 A 
ENDBRANCH  19  23
ENDBRANCH  13  16
BRANCH  11  10
ATOM     10  O   UNL     1      -2.953   3.806  24.602  0.00  0.00    -0.432 OA
BRANCH  10   8
ATOM      7  N   UNL     1      -1.608   3.349  24.759  0.00  0.00    -0.142 NA
ATOM      8  C   UNL     1      -2.308   3.638  25.087  0.00  0.00    +0.426 C 
ATOM      9  O   UNL     1      -2.363   3.758  25.901  0.00  0.00    -0.224 OA
BRANCH   7   6
ATOM      3  C   UNL     1       0.327   2.846  26.217  0.00  0.00    +0.139 A 
ATOM      4  C   UNL     1       0.229   3.605  25.910  0.00  0.00    +0.038 A 
ATOM      5  C   UNL     1      -0.416   3.773  25.423  0.00  0.00    +0.020 A 
ATOM      6  C   UNL     1      -0.964   3.181  25.244  0.00  0.00    +0.077 A 
ATOM     31  C   UNL     1      -0.865   2.422  25.552  0.00  0.00    +0.020 A 
ATOM     32  C   UNL     1      -0.220   2.254  26.038  0.00  0.00    +0.038 A 
BRANCH   3   2
ATOM      1  C   UNL     1       0.869   2.611  27.518  0.00  0.00    +0.252 C 
ATOM      2  O   UNL     1       0.972   2.677  26.703  0.00  0.00    -0.471 OA
ENDBRANCH   3   2
ENDBRANCH   7   6
ENDBRANCH  10   8
ENDBRANCH  11  10
TORSDOF 6
ENDMDL
MODEL 3
REMARK VINA RESULT:     -10.9      4.042      5.555
REMARK  Name = 
REMARK  6 active torsions:
REMARK  status: ('A' for Active; 'I' for Inactive)
REMARK    1  A    between atoms: O_2  and  C_3
REMARK    2  A    between atoms: C_6  and  N_7
REMARK    3  A    between atoms: C_8  and  O_10
REMARK    4  A    between atoms: O_10  and  C_11
REMARK    5  A    between atoms: C_13  and  C_16
REMARK    6  A    between atoms: N_19  and  C_23
REMARK                            x       y       z     vdW  Elec       q    Type
REMARK                         _______ _______ _______ _____ _____    ______ ____
ROOT
ATOM     11  C   UNL     1       0.197   0.103  23.376  0.00  0.00    +0.193 C 
ATOM     12  C   UNL     1      -0.344   0.692  23.579  0.00  0.00    +0.057 C 
ATOM     13  C   UNL     1      -0.798   0.412  24.209  0.00  0.00    +0.050 C 
ATOM     14  C   UNL     1      -0.538  -0.348  24.394  0.00  0.00    -0.023 C 
ATOM     15  C   UNL     1       0.077  -0.540  23.878  0.00  0.00    +0.012 C 
ENDROOT
BRANCH  13  16
ATOM     16  C   UNL     1      -1.406   0.822  24.587  0.00  0.00    +0.011 A 
ATOM     17  C   UNL     1      -2.203   0.815  24.372  0.00  0.00    +0.058 A 
ATOM     18  C   UNL     1      -2.532   0.397  23.742  0.00  0.00    +0.052 C 
ATOM     19  N   UNL     1      -2.613   1.300  24.899  0.00  0.00    -0.234 N 
ATOM     20  N   UNL     1      -2.070   1.607  25.440  0.00  0.00    -0.170 NA
ATOM     21  C   UNL     1      -1.324   1.311  25.247  0.00  0.00    +0.077 A 
ATOM     22  C   UNL     1      -0.619   1.476  25.644  0.00  0.00    +0.054 C 
BRANCH  19  23
ATOM     23  C   UNL     1      -3.424   1.452  24.888  0.00  0.00    +0.083 A 
ATOM     24  C   UNL     1      -3.958   0.858  25.096  0.00  0.00    +0.019 A 
ATOM     25  C   UNL     1      -4.768   1.010  25.084  0.00  0.00    -0.002 A 
ATOM     26  C   UNL     1      -5.046   1.755  24.865  0.00  0.00    -0.011 A 
ATOM     27  C   UNL     1      -5.856   1.907  24.853  0.00  0.00    +0.032 C 
ATOM     28  C   UNL     1      -4.512   2.349  24.657  0.00  0.00    +0.055 A 
ATOM     29 CL   UNL     1      -4.789   3.095  24.438  0.00  0.00    -0.083 Cl
ATOM     30  C   UNL     1      -3.701   2.198  24.669  0.00  0.00    +0.030 A 
ENDBRANCH  19  23
ENDBRANCH  13  16
BRANCH  11  10
ATOM     10  O   UNL     1       0.760   0.149  22.774  0.00  0.00    -0.432 OA
BRANCH  10   8
ATOM      7  N   UNL     1       2.151  -0.084  22.548  0.00  0.00    -0.142 NA
ATOM      8  C   UNL     1       1.549   0.304  22.958  0.00  0.00    +0.426 C 
ATOM      9  O   UNL     1       1.735   0.846  23.551  0.00  0.00    -0.224 OA
BRANCH   7   6
ATOM      3  C   UNL     1       4.519   0.380  23.101  0.00  0.00    +0.139 A 
ATOM      4  C   UNL     1       4.173  -0.331  23.333  0.00  0.00    +0.038 A 
ATOM      5  C   UNL     1       3.384  -0.487  23.149  0.00  0.00    +0.020 A 
ATOM      6  C   UNL     1       2.940   0.071  22.732  0.00  0.00    +0.077 A 
ATOM     31  C   UNL     1       3.286   0.783  22.500  0.00  0.00    +0.020 A 
ATOM     32  C   UNL     1       4.075   0.938  22.684  0.00  0.00    +0.038 A 
BRANCH   3   2
ATOM      1  C   UNL     1       5.679   0.122  23.893  0.00  0.00    +0.252 C 
ATOM      2  O   UNL     1       5.308   0.536  23.285  0.00  0.00    -0.471 OA
ENDBRANCH   3   2
ENDBRANCH   7   6
ENDBRANCH  10   8
ENDBRANCH  11  10
TORSDOF 6
ENDMDL
MODEL 4
REMARK VINA RESULT:     -10.4      2.856      4.579
REMARK  Name = 
REMARK  6 active torsions:
REMARK  status: ('A' for Active; 'I' for Inactive)
REMARK    1  A    between atoms: O_2  and  C_3
REMARK    2  A    between atoms: C_6  and  N_7
REMARK    3  A    between atoms: C_8  and  O_10
REMARK    4  A    between atoms: O_10  and  C_11
REMARK    5  A    between atoms: C_13  and  C_16
REMARK    6  A    between atoms: N_19  and  C_23
REMARK                            x       y       z     vdW  Elec       q    Type
REMARK                         _______ _______ _______ _____ _____    ______ ____
ROOT
ATOM     11  C   UNL     1      -1.512  -1.208  24.425  0.00  0.00    +0.193 C 
ATOM     12  C   UNL     1      -2.130  -0.740  24.143  0.00  0.00    +0.057 C 
ATOM     13  C   UNL     1      -2.664  -0.625  24.762  0.00  0.00    +0.050 C 
ATOM     14  C   UNL     1      -2.376  -1.022  25.425  0.00  0.00    -0.023 C 
ATOM     15  C   UNL     1      -1.664  -1.383  25.216  0.00  0.00    +0.012 C 
ENDROOT
BRANCH  13  16
ATOM     16  C   UNL     1      -3.363  -0.189  24.723  0.00  0.00    +0.011 A 
ATOM     17  C   UNL     1      -3.453   0.604  24.932  0.00  0.00    +0.058 A 
ATOM     18  C   UNL     1      -2.859   1.101  25.216  0.00  0.00    +0.052 C 
ATOM     19  N   UNL     1      -4.241   0.813  24.806  0.00  0.00    -0.234 N 
ATOM     20  N   UNL     1      -4.639   0.150  24.520  0.00  0.00    -0.170 NA
ATOM     21  C   UNL     1      -4.096  -0.470  24.468  0.00  0.00    +0.077 A 
ATOM     22  C   UNL     1      -4.258  -1.236  24.208  0.00  0.00    +0.054 C 
BRANCH  19  23
ATOM     23  C   UNL     1      -4.574   1.556  24.943  0.00  0.00    +0.083 A 
ATOM     24  C   UNL     1      -4.347   2.201  24.481  0.00  0.00    +0.019 A 
ATOM     25  C   UNL     1      -4.679   2.943  24.618  0.00  0.00    -0.002 A 
ATOM     26  C   UNL     1      -5.238   3.041  25.217  0.00  0.00    -0.011 A 
ATOM     27  C   UNL     1      -5.570   3.783  25.354  0.00  0.00    +0.032 C 
ATOM     28  C   UNL     1      -5.465   2.397  25.679  0.00  0.00    +0.055 A 
ATOM     29 CL   UNL     1      -6.023   2.494  26.278  0.00  0.00    -0.083 Cl
ATOM     30  C   UNL     1      -5.132   1.654  25.542  0.00  0.00    +0.030 A 
ENDBRANCH  19  23
ENDBRANCH  13  16
BRANCH  11  10
ATOM     10  O   UNL     1      -0.857  -1.458  23.991  0.00  0.00    -0.432 OA
BRANCH  10   8
ATOM      7  N   UNL     1       0.029  -0.611  23.256  0.00  0.00    -0.142 NA
ATOM      8  C   UNL     1      -0.179  -0.989  23.959  0.00  0.00    +0.426 C 
ATOM      9  O   UNL     1       0.291  -0.899  24.631  0.00  0.00    -0.224 OA
BRANCH   7   6
ATOM      3  C   UNL     1       2.063   0.796  23.162  0.00  0.00    +0.139 A 
ATOM      4  C   UNL     1       2.059   0.052  22.806  0.00  0.00    +0.038 A 
ATOM      5  C   UNL     1       1.381  -0.417  22.837  0.00  0.00    +0.020 A 
ATOM      6  C   UNL     1       0.706  -0.142  23.225  0.00  0.00    +0.077 A 
ATOM     31  C   UNL     1       0.710   0.603  23.580  0.00  0.00    +0.020 A 
ATOM     32  C   UNL     1       1.387   1.072  23.549  0.00  0.00    +0.038 A 
BRANCH   3   2
ATOM      1  C   UNL     1       3.436   0.966  22.806  0.00  0.00    +0.252 C 
ATOM      2  O   UNL     1       2.741   1.266  23.131  0.00  0.00    -0.471 OA
ENDBRANCH   3   2
ENDBRANCH   7   6
ENDBRANCH  10   8
ENDBRANCH  11  10
TORSDOF 6
ENDMDL
MODEL 5
REMARK VINA RESULT:     -10.3      1.916      3.217
REMARK  Name = 
REMARK  6 active torsions:
REMARK  status: ('A' for Active; 'I' for Inactive)
REMARK    1  A    between atoms: O_2  and  C_3
REMARK    2  A    between atoms: C_6  and  N_7
REMARK    3  A    between atoms: C_8  and  O_10
REMARK    4  A    between atoms: O_10  and  C_11
REMARK    5  A    between atoms: C_13  and  C_16
REMARK    6  A    between atoms: N_19  and  C_23
REMARK                            x       y       z     vdW  Elec       q    Type
REMARK                         _______ _______ _______ _____ _____    ______ ____
ROOT
ATOM     11  C   UNL     1      -0.436   0.716  24.695  0.00  0.00    +0.193 C 
ATOM     12  C   UNL     1      -1.055   1.089  25.093  0.00  0.00    +0.057 C 
ATOM     13  C   UNL     1      -1.024   1.894  24.912  0.00  0.00    +0.050 C 
ATOM     14  C   UNL     1      -0.386   2.016  24.403  0.00  0.00    -0.023 C 
ATOM     15  C   UNL     1      -0.023   1.287  24.269  0.00  0.00    +0.012 C 
ENDROOT
BRANCH  13  16
ATOM     16  C   UNL     1      -1.540   2.473  25.191  0.00  0.00    +0.011 A 
ATOM     17  C   UNL     1      -2.338   2.548  24.996  0.00  0.00    +0.058 A 
ATOM     18  C   UNL     1      -2.760   2.055  24.487  0.00  0.00    +0.052 C 
ATOM     19  N   UNL     1      -2.639   3.201  25.399  0.00  0.00    -0.234 N 
ATOM     20  N   UNL     1      -2.028   3.531  25.844  0.00  0.00    -0.170 NA
ATOM     21  C   UNL     1      -1.348   3.081  25.716  0.00  0.00    +0.077 A 
ATOM     22  C   UNL     1      -0.606   3.216  26.052  0.00  0.00    +0.054 C 
BRANCH  19  23
ATOM     23  C   UNL     1      -3.417   3.477  25.364  0.00  0.00    +0.083 A 
ATOM     24  C   UNL     1      -3.603   4.127  24.892  0.00  0.00    +0.019 A 
ATOM     25  C   UNL     1      -4.379   4.402  24.857  0.00  0.00    -0.002 A 
ATOM     26  C   UNL     1      -4.970   4.027  25.294  0.00  0.00    -0.011 A 
ATOM     27  C   UNL     1      -5.747   4.302  25.259  0.00  0.00    +0.032 C 
ATOM     28  C   UNL     1      -4.784   3.377  25.766  0.00  0.00    +0.055 A 
ATOM     29 CL   UNL     1      -5.374   3.002  26.204  0.00  0.00    -0.083 Cl
ATOM     30  C   UNL     1      -4.007   3.102  25.802  0.00  0.00    +0.030 A 
ENDBRANCH  19  23
ENDBRANCH  13  16
BRANCH  11  10
ATOM     10  O   UNL     1      -0.261  -0.090  24.720  0.00  0.00    -0.432 OA
BRANCH  10   8
ATOM      7  N   UNL     1      -1.205  -1.079  25.137  0.00  0.00    -0.142 NA
ATOM      8  C   UNL     1      -0.843  -0.645  24.536  0.00  0.00    +0.426 C 
ATOM      9  O   UNL     1      -1.063  -0.765  23.750  0.00  0.00    -0.224 OA
BRANCH   7   6
ATOM      3  C   UNL     1      -2.952  -2.742  24.583  0.00  0.00    +0.139 A 
ATOM      4  C   UNL     1      -3.155  -2.048  24.979  0.00  0.00    +0.038 A 
ATOM      5  C   UNL     1      -2.573  -1.493  25.164  0.00  0.00    +0.020 A 
ATOM      6  C   UNL     1      -1.787  -1.634  24.952  0.00  0.00    +0.077 A 
ATOM     31  C   UNL     1      -1.584  -2.328  24.556  0.00  0.00    +0.020 A 
ATOM     32  C   UNL     1      -2.166  -2.883  24.371  0.00  0.00    +0.038 A 
BRANCH   3   2
ATOM      1  C   UNL     1      -4.151  -3.095  23.890  0.00  0.00    +0.252 C 
ATOM      2  O   UNL     1      -3.534  -3.297  24.397  0.00  0.00    -0.471 OA
ENDBRANCH   3   2
ENDBRANCH   7   6
ENDBRANCH  10   8
ENDBRANCH  11  10
TORSDOF 6
ENDMDL
MODEL 6
REMARK VINA RESULT:     -10.2      2.630      4.938
REMARK  Name = 
REMARK  6 active torsions:
REMARK  status: ('A' for Active; 'I' for Inactive)
REMARK    1  A    between atoms: O_2  and  C_3
REMARK    2  A    between atoms: C_6  and  N_7
REMARK    3  A    between atoms: C_8  and  O_10
REMARK    4  A    between atoms: O_10  and  C_11
REMARK    5  A    between atoms: C_13  and  C_16
REMARK    6  A    between atoms: N_19  and  C_23
REMARK                            x       y       z     vdW  Elec       q    Type
REMARK                         _______ _______ _______ _____ _____    ______ ____
ROOT
ATOM     11  C   UNL     1      -2.019   4.407  25.378  0.00  0.00    +0.193 C 
ATOM     12  C   UNL     1      -1.761   3.624  25.410  0.00  0.00    +0.057 C 
ATOM     13  C   UNL     1      -0.970   3.607  25.175  0.00  0.00    +0.050 C 
ATOM     14  C   UNL     1      -0.740   4.379  24.999  0.00  0.00    -0.023 C 
ATOM     15  C   UNL     1      -1.389   4.873  25.124  0.00  0.00    +0.012 C 
ENDROOT
BRANCH  13  16
ATOM     16  C   UNL     1      -0.493   2.936  25.126  0.00  0.00    +0.011 A 
ATOM     17  C   UNL     1      -0.430   2.431  24.476  0.00  0.00    +0.058 A 
ATOM     18  C   UNL     1      -0.833   2.510  23.761  0.00  0.00    +0.052 C 
ATOM     19  N   UNL     1       0.107   1.834  24.668  0.00  0.00    -0.234 N 
ATOM     20  N   UNL     1       0.375   1.969  25.435  0.00  0.00    -0.170 NA
ATOM     21  C   UNL     1       0.005   2.650  25.720  0.00  0.00    +0.077 A 
ATOM     22  C   UNL     1       0.113   2.986  26.465  0.00  0.00    +0.054 C 
BRANCH  19  23
ATOM     23  C   UNL     1       0.334   1.212  24.176  0.00  0.00    +0.083 A 
ATOM     24  C   UNL     1       0.959   1.311  23.646  0.00  0.00    +0.019 A 
ATOM     25  C   UNL     1       1.186   0.689  23.156  0.00  0.00    -0.002 A 
ATOM     26  C   UNL     1       0.790  -0.034  23.195  0.00  0.00    -0.011 A 
ATOM     27  C   UNL     1       1.017  -0.656  22.704  0.00  0.00    +0.032 C 
ATOM     28  C   UNL     1       0.166  -0.134  23.725  0.00  0.00    +0.055 A 
ATOM     29 CL   UNL     1      -0.231  -0.856  23.764  0.00  0.00    -0.083 Cl
ATOM     30  C   UNL     1      -0.062   0.489  24.216  0.00  0.00    +0.030 A 
ENDBRANCH  19  23
ENDBRANCH  13  16
BRANCH  11  10
ATOM     10  O   UNL     1      -2.776   4.675  25.567  0.00  0.00    -0.432 OA
BRANCH  10   8
ATOM      7  N   UNL     1      -3.937   4.012  25.063  0.00  0.00    -0.142 NA
ATOM      8  C   UNL     1      -3.391   4.136  25.669  0.00  0.00    +0.426 C 
ATOM      9  O   UNL     1      -3.461   3.721  26.379  0.00  0.00    -0.224 OA
BRANCH   7   6
ATOM      3  C   UNL     1      -5.785   2.396  25.374  0.00  0.00    +0.139 A 
ATOM      4  C   UNL     1      -5.812   3.130  25.748  0.00  0.00    +0.038 A 
ATOM      5  C   UNL     1      -5.197   3.669  25.645  0.00  0.00    +0.020 A 
ATOM      6  C   UNL     1      -4.553   3.474  25.167  0.00  0.00    +0.077 A 
ATOM     31  C   UNL     1      -4.526   2.739  24.792  0.00  0.00    +0.020 A 
ATOM     32  C   UNL     1      -5.141   2.200  24.896  0.00  0.00    +0.038 A 
BRANCH   3   2
ATOM      1  C   UNL     1      -6.595   1.590  26.233  0.00  0.00    +0.252 C 
ATOM      2  O   UNL     1      -6.401   1.856  25.477  0.00  0.00    -0.471 OA
ENDBRANCH   3   2
ENDBRANCH   7   6
ENDBRANCH  10   8
ENDBRANCH  11  10
TORSDOF 6
ENDMDL
MODEL 7
REMARK VINA RESULT:     -10.0      2.520      5.971
REMARK  Name = 
REMARK  6 active torsions:
REMARK  status: ('A' for Active; 'I' for Inactive)
REMARK    1  A    between atoms: O_2  and  C_3
REMARK    2  A    between atoms: C_6  and  N_7
REMARK    3  A    between atoms: C_8  and  O_10
REMARK    4  A    between atoms: O_10  and  C_11
REMARK    5  A    between atoms: C_13  and  C_16
REMARK    6  A    between atoms: N_19  and  C_23
REMARK                            x       y       z     vdW  Elec       q    Type
REMARK                         _______ _______ _______ _____ _____    ______ ____
ROOT
ATOM     11  C   UNL     1      -0.644   2.488  25.164  0.00  0.00    +0.193 C 
ATOM     12  C   UNL     1      -1.031   1.857  24.799  0.00  0.00    +0.057 C 
ATOM     13  C   UNL     1      -0.546   1.192  24.861  0.00  0.00    +0.050 C 
ATOM     14  C   UNL     1       0.140   1.413  25.264  0.00  0.00    -0.023 C 
ATOM     15  C   UNL     1       0.078   2.215  25.451  0.00  0.00    +0.012 C 
ENDROOT
BRANCH  13  16
ATOM     16  C   UNL     1      -0.716   0.440  24.571  0.00  0.00    +0.011 A 
ATOM     17  C   UNL     1      -1.325  -0.054  24.830  0.00  0.00    +0.058 A 
ATOM     18  C   UNL     1      -1.870   0.119  25.424  0.00  0.00    +0.052 C 
ATOM     19  N   UNL     1      -1.293  -0.751  24.390  0.00  0.00    -0.234 N 
ATOM     20  N   UNL     1      -0.665  -0.689  23.859  0.00  0.00    -0.170 NA
ATOM     21  C   UNL     1      -0.308   0.047  23.971  0.00  0.00    +0.077 A 
ATOM     22  C   UNL     1       0.343   0.339  23.555  0.00  0.00    +0.054 C 
BRANCH  19  23
ATOM     23  C   UNL     1      -1.801  -1.397  24.467  0.00  0.00    +0.083 A 
ATOM     24  C   UNL     1      -1.529  -2.096  24.810  0.00  0.00    +0.019 A 
ATOM     25  C   UNL     1      -2.036  -2.742  24.887  0.00  0.00    -0.002 A 
ATOM     26  C   UNL     1      -2.815  -2.689  24.621  0.00  0.00    -0.011 A 
ATOM     27  C   UNL     1      -3.323  -3.334  24.698  0.00  0.00    +0.032 C 
ATOM     28  C   UNL     1      -3.087  -1.989  24.278  0.00  0.00    +0.055 A 
ATOM     29 CL   UNL     1      -3.866  -1.935  24.013  0.00  0.00    -0.083 Cl
ATOM     30  C   UNL     1      -2.580  -1.343  24.201  0.00  0.00    +0.030 A 
ENDBRANCH  19  23
ENDBRANCH  13  16
BRANCH  11  10
ATOM     10  O   UNL     1      -0.931   3.259  25.230  0.00  0.00    -0.432 OA
BRANCH  10   8
ATOM      7  N   UNL     1      -2.259   3.597  24.822  0.00  0.00    -0.142 NA
ATOM      8  C   UNL     1      -1.724   3.390  25.415  0.00  0.00    +0.426 C 
ATOM      9  O   UNL     1      -1.983   3.313  26.195  0.00  0.00    -0.224 OA
BRANCH   7   6
ATOM      3  C   UNL     1      -4.638   3.988  25.379  0.00  0.00    +0.139 A 
ATOM      4  C   UNL     1      -4.438   3.487  24.756  0.00  0.00    +0.038 A 
ATOM      5  C   UNL     1      -3.644   3.356  24.570  0.00  0.00    +0.020 A 
ATOM      6  C   UNL     1      -3.051   3.727  25.008  0.00  0.00    +0.077 A 
ATOM     31  C   UNL     1      -3.252   4.229  25.631  0.00  0.00    +0.020 A 
ATOM     32  C   UNL     1      -4.044   4.360  25.817  0.00  0.00    +0.038 A 
BRANCH   3   2
ATOM      1  C   UNL     1      -5.930   3.481  25.719  0.00  0.00    +0.252 C 
ATOM      2  O   UNL     1      -5.431   4.119  25.566  0.00  0.00    -0.471 OA
ENDBRANCH   3   2
ENDBRANCH   7   6
ENDBRANCH  10   8
ENDBRANCH  11  10
TORSDOF 6
ENDMDL
MODEL 8
REMARK VINA RESULT:      -9.7      1.837      5.273
REMARK  Name = 
REMARK  6 active torsions:
REMARK  status: ('A' for Active; 'I' for Inactive)
REMARK    1  A    between atoms: O_2  and  C_3
REMARK    2  A    between atoms: C_6  and  N_7
REMARK    3  A    between atoms: C_8  and  O_10
REMARK    4  A    between atoms: O_10  and  C_11
REMARK    5  A    between atoms: C_13  and  C_16
REMARK    6  A    between atoms: N_19  and  C_23
REMARK                            x       y       z     vdW  Elec       q    Type
REMARK                         _______ _______ _______ _____ _____    ______ ____
ROOT
ATOM     11  C   UNL     1      -4.733   1.684  24.848  0.00  0.00    +0.193 C 
ATOM     12  C   UNL     1      -4.123   1.216  24.551  0.00  0.00    +0.057 C 
ATOM     13  C   UNL     1      -4.243   0.443  24.816  0.00  0.00    +0.050 C 
ATOM     14  C   UNL     1      -4.927   0.436  25.277  0.00  0.00    -0.023 C 
ATOM     15  C   UNL     1      -5.230   1.203  25.297  0.00  0.00    +0.012 C 
ENDROOT
BRANCH  13  16
ATOM     16  C   UNL     1      -3.763  -0.206  24.649  0.00  0.00    +0.011 A 
ATOM     17  C   UNL     1      -3.000  -0.333  24.937  0.00  0.00    +0.058 A 
ATOM     18  C   UNL     1      -2.583   0.168  25.442  0.00  0.00    +0.052 C 
ATOM     19  N   UNL     1      -2.728  -1.049  24.630  0.00  0.00    -0.234 N 
ATOM     20  N   UNL     1      -3.322  -1.365  24.154  0.00  0.00    -0.170 NA
ATOM     21  C   UNL     1      -3.962  -0.845  24.165  0.00  0.00    +0.077 A 
ATOM     22  C   UNL     1      -4.676  -0.944  23.763  0.00  0.00    +0.054 C 
BRANCH  19  23
ATOM     23  C   UNL     1      -1.990  -1.389  24.776  0.00  0.00    +0.083 A 
ATOM     24  C   UNL     1      -1.935  -2.083  25.219  0.00  0.00    +0.019 A 
ATOM     25  C   UNL     1      -1.198  -2.422  25.364  0.00  0.00    -0.002 A 
ATOM     26  C   UNL     1      -0.515  -2.069  25.066  0.00  0.00    -0.011 A 
ATOM     27  C   UNL     1       0.222  -2.409  25.211  0.00  0.00    +0.032 C 
ATOM     28  C   UNL     1      -0.569  -1.376  24.622  0.00  0.00    +0.055 A 
ATOM     29 CL   UNL     1       0.114  -1.022  24.324  0.00  0.00    -0.083 Cl
ATOM     30  C   UNL     1      -1.307  -1.036  24.477  0.00  0.00    +0.030 A 
ENDBRANCH  19  23
ENDBRANCH  13  16
BRANCH  11  10
ATOM     10  O   UNL     1      -4.829   2.493  24.719  0.00  0.00    -0.432 OA
BRANCH  10   8
ATOM      7  N   UNL     1      -3.930   3.401  25.361  0.00  0.00    -0.142 NA
ATOM      8  C   UNL     1      -4.169   2.988  24.688  0.00  0.00    +0.426 C 
ATOM      9  O   UNL     1      -3.749   3.068  23.983  0.00  0.00    -0.224 OA
BRANCH   7   6
ATOM      3  C   UNL     1      -1.950   4.883  25.265  0.00  0.00    +0.139 A 
ATOM      4  C   UNL     1      -1.938   4.209  25.740  0.00  0.00    +0.038 A 
ATOM      5  C   UNL     1      -2.598   3.714  25.772  0.00  0.00    +0.020 A 
ATOM      6  C   UNL     1      -3.271   3.895  25.329  0.00  0.00    +0.077 A 
ATOM     31  C   UNL     1      -3.283   4.570  24.854  0.00  0.00    +0.020 A 
ATOM     32  C   UNL     1      -2.623   5.063  24.822  0.00  0.00    +0.038 A 
BRANCH   3   2
ATOM      1  C   UNL     1      -0.654   5.186  24.745  0.00  0.00    +0.252 C 
ATOM      2  O   UNL     1      -1.291   5.377  25.233  0.00  0.00    -0.471 OA
ENDBRANCH   3   2
ENDBRANCH   7   6
ENDBRANCH  10   8
ENDBRANCH  11  10
TORSDOF 6
ENDMDL
