MODEL 1
REMARK VINA RESULT:     -10.0      0.000      0.000
REMARK  Name = 
REMARK  11 active torsions:
REMARK  status: ('A' for Active; 'I' for Inactive)
REMARK    1  A    between atoms: C_2  and  O_3
REMARK    2  A    between atoms: O_3  and  C_4
REMARK    3  A    between atoms: C_4  and  C_6
REMARK    4  A    between atoms: C_10  and  N_11
REMARK    5  A    between atoms: C_12  and  O_14
REMARK    6  A    between atoms: O_14  and  C_15
REMARK    7  A    between atoms: C_19  and  N_23
REMARK    8  A    between atoms: N_23  and  S_24
REMARK    9  A    between atoms: S_24  and  C_27
REMARK   10  A    between atoms: C_29  and  O_30
REMARK   11  A    between atoms: C_34  and  O_35
REMARK                            x       y       z     vdW  Elec       q    Type
REMARK                         _______ _______ _______ _____ _____    ______ ____
ROOT
ATOM     15  C   UNL     1      -0.139  -0.023  24.450  0.00  0.00    +0.229 C 
ATOM     16  C   UNL     1       0.087   0.291  23.721  0.00  0.00    +0.188 C 
ATOM     17  O   UNL     1       0.083   1.113  23.787  0.00  0.00    -0.348 OA
ATOM     18  C   UNL     1      -0.145   1.308  24.554  0.00  0.00    +0.166 C 
ATOM     19  C   UNL     1      -0.288   1.935  25.070  0.00  0.00    +0.157 C 
ATOM     20  C   UNL     1      -0.514   1.621  25.799  0.00  0.00    +0.164 C 
ATOM     21  O   UNL     1      -0.510   0.799  25.734  0.00  0.00    -0.348 OA
ATOM     22  C   UNL     1      -0.282   0.605  24.964  0.00  0.00    +0.186 C 
ENDROOT
BRANCH  15  14
ATOM     14  O   UNL     1      -0.209  -0.825  24.631  0.00  0.00    -0.432 OA
BRANCH  14  12
ATOM     11  N   UNL     1      -1.399  -1.527  24.996  0.00  0.00    -0.142 NA
ATOM     12  C   UNL     1      -0.889  -1.239  24.416  0.00  0.00    +0.425 C 
ATOM     13  O   UNL     1      -1.059  -1.365  23.618  0.00  0.00    -0.224 OA
BRANCH  11  10
ATOM      6  C   UNL     1      -3.465  -1.949  24.432  0.00  0.00    +0.077 A 
ATOM      7  C   UNL     1      -3.439  -2.770  24.350  0.00  0.00    +0.007 A 
ATOM      8  C   UNL     1      -2.733  -3.176  24.483  0.00  0.00    +0.002 A 
ATOM      9  C   UNL     1      -2.054  -2.761  24.699  0.00  0.00    +0.017 A 
ATOM     10  C   UNL     1      -2.079  -1.941  24.781  0.00  0.00    +0.077 A 
ATOM     37  C   UNL     1      -2.785  -1.535  24.648  0.00  0.00    +0.023 A 
BRANCH   6   4
ATOM      4  C   UNL     1      -4.170  -1.544  24.299  0.00  0.00    +0.341 C 
ATOM      5  O   UNL     1      -4.717  -1.834  23.753  0.00  0.00    -0.245 OA
BRANCH   4   3
ATOM      3  O   UNL     1      -4.330  -0.847  24.711  0.00  0.00    -0.445 OA
BRANCH   3   2
ATOM      1  C   UNL     1      -4.880   0.471  24.738  0.00  0.00    +0.051 C 
ATOM      2  C   UNL     1      -4.791  -0.258  24.363  0.00  0.00    +0.209 C 
ENDBRANCH   3   2
ENDBRANCH   4   3
ENDBRANCH   6   4
ENDBRANCH  11  10
ENDBRANCH  14  12
ENDBRANCH  15  14
BRANCH  19  23
ATOM     23  N   UNL     1      -0.218   2.737  24.889  0.00  0.00    -0.074 NA
BRANCH  23  24
ATOM     24  S   UNL     1      -0.827   3.259  25.081  0.00  0.00    +0.080 S 
ATOM     25  O   UNL     1      -1.136   3.178  24.321  0.00  0.00    -0.151 OA
ATOM     26  O   UNL     1      -0.518   3.340  25.842  0.00  0.00    -0.151 OA
BRANCH  24  27
ATOM     27  C   UNL     1      -1.437   3.781  25.273  0.00  0.00    +0.160 A 
ATOM     28  C   UNL     1      -2.138   3.493  25.600  0.00  0.00    +0.060 A 
ATOM     29  C   UNL     1      -2.748   4.015  25.791  0.00  0.00    +0.140 A 
ATOM     32  C   UNL     1      -2.657   4.823  25.656  0.00  0.00    +0.040 A 
ATOM     33  C   UNL     1      -1.957   5.110  25.329  0.00  0.00    +0.041 A 
ATOM     34  C   UNL     1      -1.346   4.589  25.138  0.00  0.00    +0.157 A 
BRANCH  29  30
ATOM     30  O   UNL     1      -3.448   3.726  26.118  0.00  0.00    -0.471 OA
ATOM     31  C   UNL     1      -4.168   3.859  25.738  0.00  0.00    +0.252 C 
ENDBRANCH  29  30
BRANCH  34  35
ATOM     35  O   UNL     1      -0.645   4.877  24.811  0.00  0.00    -0.470 OA
ATOM     36  C   UNL     1      -0.580   5.675  24.614  0.00  0.00    +0.253 C 
ENDBRANCH  34  35
ENDBRANCH  24  27
ENDBRANCH  23  24
ENDBRANCH  19  23
TORSDOF 11
ENDMDL
MODEL 2
REMARK VINA RESULT:      -9.9      1.604      6.223
REMARK  Name = 
REMARK  11 active torsions:
REMARK  status: ('A' for Active; 'I' for Inactive)
REMARK    1  A    between atoms: C_2  and  O_3
REMARK    2  A    between atoms: O_3  and  C_4
REMARK    3  A    between atoms: C_4  and  C_6
REMARK    4  A    between atoms: C_10  and  N_11
REMARK    5  A    between atoms: C_12  and  O_14
REMARK    6  A    between atoms: O_14  and  C_15
REMARK    7  A    between atoms: C_19  and  N_23
REMARK    8  A    between atoms: N_23  and  S_24
REMARK    9  A    between atoms: S_24  and  C_27
REMARK   10  A    between atoms: C_29  and  O_30
REMARK   11  A    between atoms: C_34  and  O_35
REMARK                            x       y       z     vdW  Elec       q    Type
REMARK                         _______ _______ _______ _____ _____    ______ ____
ROOT
ATOM     15  C   UNL     1      -4.722   2.396  24.947  0.00  0.00    +0.229 C 
ATOM     16  C   UNL     1      -5.167   2.103  25.577  0.00  0.00    +0.188 C 
ATOM     17  O   UNL     1      -5.139   1.279  25.546  0.00  0.00    -0.348 OA
ATOM     18  C   UNL     1      -4.679   1.063  24.898  0.00  0.00    +0.166 C 
ATOM     19  C   UNL     1      -4.376   0.421  24.477  0.00  0.00    +0.157 C 
ATOM     20  C   UNL     1      -3.932   0.714  23.848  0.00  0.00    +0.164 C 
ATOM     21  O   UNL     1      -3.959   1.537  23.879  0.00  0.00    -0.348 OA
ATOM     22  C   UNL     1      -4.420   1.754  24.528  0.00  0.00    +0.186 C 
ENDROOT
BRANCH  15  14
ATOM     14  O   UNL     1      -4.600   3.193  24.769  0.00  0.00    -0.432 OA
BRANCH  14  12
ATOM     11  N   UNL     1      -3.375   3.874  24.493  0.00  0.00    -0.142 NA
ATOM     12  C   UNL     1      -3.920   3.576  25.035  0.00  0.00    +0.425 C 
ATOM     13  O   UNL     1      -3.786   3.662  25.845  0.00  0.00    -0.224 OA
BRANCH  11  10
ATOM      6  C   UNL     1      -1.306   4.225  25.095  0.00  0.00    +0.077 A 
ATOM      7  C   UNL     1      -1.335   5.026  25.292  0.00  0.00    +0.007 A 
ATOM      8  C   UNL     1      -2.044   5.442  25.222  0.00  0.00    +0.002 A 
ATOM      9  C   UNL     1      -2.723   5.058  24.955  0.00  0.00    +0.017 A 
ATOM     10  C   UNL     1      -2.695   4.257  24.759  0.00  0.00    +0.077 A 
ATOM     37  C   UNL     1      -1.987   3.841  24.829  0.00  0.00    +0.023 A 
BRANCH   6   4
ATOM      4  C   UNL     1      -0.598   3.809  25.165  0.00  0.00    +0.341 C 
ATOM      5  O   UNL     1      -0.044   3.831  24.554  0.00  0.00    -0.245 OA
BRANCH   4   3
ATOM      3  O   UNL     1      -0.442   3.370  25.846  0.00  0.00    -0.445 OA
BRANCH   3   2
ATOM      1  C   UNL     1       0.220   2.278  26.488  0.00  0.00    +0.051 C 
ATOM      2  C   UNL     1       0.109   2.756  25.825  0.00  0.00    +0.209 C 
ENDBRANCH   3   2
ENDBRANCH   4   3
ENDBRANCH   6   4
ENDBRANCH  11  10
ENDBRANCH  14  12
ENDBRANCH  15  14
BRANCH  19  23
ATOM     23  N   UNL     1      -4.498  -0.376  24.656  0.00  0.00    -0.074 NA
BRANCH  23  24
ATOM     24  S   UNL     1      -3.858  -0.897  24.676  0.00  0.00    +0.080 S 
ATOM     25  O   UNL     1      -3.913  -0.932  25.498  0.00  0.00    -0.151 OA
ATOM     26  O   UNL     1      -3.804  -0.861  23.853  0.00  0.00    -0.151 OA
BRANCH  24  27
ATOM     27  C   UNL     1      -3.219  -1.418  24.696  0.00  0.00    +0.160 A 
ATOM     28  C   UNL     1      -2.480  -1.154  24.952  0.00  0.00    +0.060 A 
ATOM     29  C   UNL     1      -1.841  -1.675  24.973  0.00  0.00    +0.140 A 
ATOM     32  C   UNL     1      -1.940  -2.459  24.737  0.00  0.00    +0.040 A 
ATOM     33  C   UNL     1      -2.678  -2.722  24.481  0.00  0.00    +0.041 A 
ATOM     34  C   UNL     1      -3.318  -2.202  24.461  0.00  0.00    +0.157 A 
BRANCH  29  30
ATOM     30  O   UNL     1      -1.103  -1.410  25.229  0.00  0.00    -0.471 OA
ATOM     31  C   UNL     1      -0.535  -1.173  24.681  0.00  0.00    +0.252 C 
ENDBRANCH  29  30
BRANCH  34  35
ATOM     35  O   UNL     1      -4.057  -2.466  24.204  0.00  0.00    -0.470 OA
ATOM     36  C   UNL     1      -4.148  -3.242  23.941  0.00  0.00    +0.253 C 
ENDBRANCH  34  35
ENDBRANCH  24  27
ENDBRANCH  23  24
ENDBRANCH  19  23
TORSDOF 11
ENDMDL
MODEL 3
REMARK VINA RESULT:      -9.8      1.420      3.212
REMARK  Name = 
REMARK  11 active torsions:
REMARK  status: ('A' for Active; 'I' for Inactive)
REMARK    1  A    between atoms: C_2  and  O_3
REMARK    2  A    between atoms: O_3  and  C_4
REMARK    3  A    between atoms: C_4  and  C_6
REMARK    4  A    between atoms: C_10  and  N_11
REMARK    5  A    between atoms: C_12  and  O_14
REMARK    6  A    between atoms: O_14  and  C_15
REMARK    7  A    between atoms: C_19  and  N_23
REMARK    8  A    between atoms: N_23  and  S_24
REMARK    9  A    between atoms: S_24  and  C_27
REMARK   10  A    between atoms: C_29  and  O_30
REMARK   11  A    between atoms: C_34  and  O_35
REMARK                            x       y       z     vdW  Elec       q    Type
REMARK                         _______ _______ _______ _____ _____    ______ ____
ROOT
ATOM     15  C   UNL     1      -4.726   1.077  24.724  0.00  0.00    +0.229 C 
ATOM     16  C   UNL     1      -4.885   1.338  25.490  0.00  0.00    +0.188 C 
ATOM     17  O   UNL     1      -4.535   2.079  25.584  0.00  0.00    -0.348 OA
ATOM     18  C   UNL     1      -4.160   2.277  24.878  0.00  0.00    +0.166 C 
ATOM     19  C   UNL     1      -3.712   2.856  24.498  0.00  0.00    +0.157 C 
ATOM     20  C   UNL     1      -3.553   2.596  23.732  0.00  0.00    +0.164 C 
ATOM     21  O   UNL     1      -3.902   1.855  23.638  0.00  0.00    -0.348 OA
ATOM     22  C   UNL     1      -4.278   1.657  24.346  0.00  0.00    +0.186 C 
ENDROOT
BRANCH  15  14
ATOM     14  O   UNL     1      -4.971   0.362  24.394  0.00  0.00    -0.432 OA
BRANCH  14  12
ATOM     11  N   UNL     1      -4.265  -0.798  23.950  0.00  0.00    -0.142 NA
ATOM     12  C   UNL     1      -4.560  -0.333  24.563  0.00  0.00    +0.425 C 
ATOM     13  O   UNL     1      -4.446  -0.563  25.348  0.00  0.00    -0.224 OA
BRANCH  11  10
ATOM      6  C   UNL     1      -2.635  -2.162  24.447  0.00  0.00    +0.077 A 
ATOM      7  C   UNL     1      -3.033  -2.884  24.458  0.00  0.00    +0.007 A 
ATOM      8  C   UNL     1      -3.843  -2.911  24.299  0.00  0.00    +0.002 A 
ATOM      9  C   UNL     1      -4.253  -2.215  24.130  0.00  0.00    +0.017 A 
ATOM     10  C   UNL     1      -3.854  -1.493  24.119  0.00  0.00    +0.077 A 
ATOM     37  C   UNL     1      -3.045  -1.467  24.278  0.00  0.00    +0.023 A 
BRANCH   6   4
ATOM      4  C   UNL     1      -1.826  -2.136  24.606  0.00  0.00    +0.341 C 
ATOM      5  O   UNL     1      -1.453  -2.781  24.962  0.00  0.00    -0.245 OA
BRANCH   4   3
ATOM      3  O   UNL     1      -1.388  -1.465  24.409  0.00  0.00    -0.445 OA
BRANCH   3   2
ATOM      1  C   UNL     1      -0.150  -0.752  24.414  0.00  0.00    +0.051 C 
ATOM      2  C   UNL     1      -0.605  -1.394  24.661  0.00  0.00    +0.209 C 
ENDBRANCH   3   2
ENDBRANCH   4   3
ENDBRANCH   6   4
ENDBRANCH  11  10
ENDBRANCH  14  12
ENDBRANCH  15  14
BRANCH  19  23
ATOM     23  N   UNL     1      -3.467   3.572  24.828  0.00  0.00    -0.074 NA
BRANCH  23  24
ATOM     24  S   UNL     1      -2.664   3.715  24.952  0.00  0.00    +0.080 S 
ATOM     25  O   UNL     1      -2.794   3.733  25.766  0.00  0.00    -0.151 OA
ATOM     26  O   UNL     1      -2.534   3.696  24.137  0.00  0.00    -0.151 OA
BRANCH  24  27
ATOM     27  C   UNL     1      -1.861   3.858  25.077  0.00  0.00    +0.160 A 
ATOM     28  C   UNL     1      -1.342   3.226  25.187  0.00  0.00    +0.060 A 
ATOM     29  C   UNL     1      -0.539   3.369  25.312  0.00  0.00    +0.140 A 
ATOM     32  C   UNL     1      -0.255   4.144  25.328  0.00  0.00    +0.040 A 
ATOM     33  C   UNL     1      -0.774   4.775  25.219  0.00  0.00    +0.041 A 
ATOM     34  C   UNL     1      -1.577   4.633  25.093  0.00  0.00    +0.157 A 
BRANCH  29  30
ATOM     30  O   UNL     1      -0.021   2.737  25.422  0.00  0.00    -0.471 OA
ATOM     31  C   UNL     1       0.187   2.500  26.183  0.00  0.00    +0.252 C 
ENDBRANCH  29  30
BRANCH  34  35
ATOM     35  O   UNL     1      -2.097   5.265  24.984  0.00  0.00    -0.470 OA
ATOM     36  C   UNL     1      -1.807   6.037  24.959  0.00  0.00    +0.253 C 
ENDBRANCH  34  35
ENDBRANCH  24  27
ENDBRANCH  23  24
ENDBRANCH  19  23
TORSDOF 11
ENDMDL
MODEL 4
REMARK VINA RESULT:      -9.8      1.157      5.316
REMARK  Name = 
REMARK  11 active torsions:
REMARK  status: ('A' for Active; 'I' for Inactive)
REMARK    1  A    between atoms: C_2  and  O_3
REMARK    2  A    between atoms: O_3  and  C_4
REMARK    3  A    between atoms: C_4  and  C_6
REMARK    4  A    between atoms: C_10  and  N_11
REMARK    5  A    between atoms: C_12  and  O_14
REMARK    6  A    between atoms: O_14  and  C_15
REMARK    7  A    between atoms: C_19  and  N_23
REMARK    8  A    between atoms: N_23  and  S_24
REMARK    9  A    between atoms: S_24  and  C_27
REMARK   10  A    between atoms: C_29  and  O_30
REMARK   11  A    between atoms: C_34  and  O_35
REMARK                            x       y       z     vdW  Elec       q    Type
REMARK                         _______ _______ _______ _____ _____    ______ ____
ROOT
ATOM     15  C   UNL     1       0.000   1.279  24.533  0.00  0.00    +0.229 C 
ATOM     16  C   UNL     1       0.094   0.980  23.770  0.00  0.00    +0.188 C 
ATOM     17  O   UNL     1      -0.250   0.231  23.747  0.00  0.00    -0.348 OA
ATOM     18  C   UNL     1      -0.556   0.067  24.494  0.00  0.00    +0.166 C 
ATOM     19  C   UNL     1      -0.959  -0.497  24.943  0.00  0.00    +0.157 C 
ATOM     20  C   UNL     1      -1.052  -0.198  25.706  0.00  0.00    +0.164 C 
ATOM     21  O   UNL     1      -0.708   0.551  25.729  0.00  0.00    -0.348 OA
ATOM     22  C   UNL     1      -0.402   0.715  24.980  0.00  0.00    +0.186 C 
ENDROOT
BRANCH  15  14
ATOM     14  O   UNL     1       0.263   2.014  24.801  0.00  0.00    -0.432 OA
BRANCH  14  12
ATOM     11  N   UNL     1      -0.416   3.110  25.418  0.00  0.00    -0.142 NA
ATOM     12  C   UNL     1      -0.229   2.674  24.744  0.00  0.00    +0.425 C 
ATOM     13  O   UNL     1      -0.534   2.898  24.010  0.00  0.00    -0.224 OA
BRANCH  11  10
ATOM      6  C   UNL     1      -2.182   4.386  25.557  0.00  0.00    +0.077 A 
ATOM      7  C   UNL     1      -1.890   5.091  25.245  0.00  0.00    +0.007 A 
ATOM      8  C   UNL     1      -1.106   5.136  24.990  0.00  0.00    +0.002 A 
ATOM      9  C   UNL     1      -0.615   4.476  25.048  0.00  0.00    +0.017 A 
ATOM     10  C   UNL     1      -0.907   3.770  25.360  0.00  0.00    +0.077 A 
ATOM     37  C   UNL     1      -1.690   3.725  25.615  0.00  0.00    +0.023 A 
BRANCH   6   4
ATOM      4  C   UNL     1      -2.965   4.341  25.811  0.00  0.00    +0.341 C 
ATOM      5  O   UNL     1      -3.168   4.597  26.569  0.00  0.00    -0.245 OA
BRANCH   4   3
ATOM      3  O   UNL     1      -3.546   4.039  25.309  0.00  0.00    -0.445 OA
BRANCH   3   2
ATOM      1  C   UNL     1      -4.881   3.577  25.097  0.00  0.00    +0.051 C 
ATOM      2  C   UNL     1      -4.300   3.874  25.601  0.00  0.00    +0.209 C 
ENDBRANCH   3   2
ENDBRANCH   4   3
ENDBRANCH   6   4
ENDBRANCH  11  10
ENDBRANCH  14  12
ENDBRANCH  15  14
BRANCH  19  23
ATOM     23  N   UNL     1      -1.221  -1.232  24.675  0.00  0.00    -0.074 NA
BRANCH  23  24
ATOM     24  S   UNL     1      -2.026  -1.363  24.551  0.00  0.00    +0.080 S 
ATOM     25  O   UNL     1      -1.907  -1.319  23.736  0.00  0.00    -0.151 OA
ATOM     26  O   UNL     1      -2.144  -1.407  25.366  0.00  0.00    -0.151 OA
BRANCH  24  27
ATOM     27  C   UNL     1      -2.831  -1.494  24.426  0.00  0.00    +0.160 A 
ATOM     28  C   UNL     1      -3.350  -0.854  24.377  0.00  0.00    +0.060 A 
ATOM     29  C   UNL     1      -4.155  -0.985  24.253  0.00  0.00    +0.140 A 
ATOM     32  C   UNL     1      -4.441  -1.755  24.177  0.00  0.00    +0.040 A 
ATOM     33  C   UNL     1      -3.923  -2.394  24.227  0.00  0.00    +0.041 A 
ATOM     34  C   UNL     1      -3.117  -2.264  24.351  0.00  0.00    +0.157 A 
BRANCH  29  30
ATOM     30  O   UNL     1      -4.673  -0.345  24.203  0.00  0.00    -0.471 OA
ATOM     31  C   UNL     1      -4.797   0.138  24.860  0.00  0.00    +0.252 C 
ENDBRANCH  29  30
BRANCH  34  35
ATOM     35  O   UNL     1      -2.599  -2.904  24.401  0.00  0.00    -0.470 OA
ATOM     36  C   UNL     1      -2.880  -3.672  24.295  0.00  0.00    +0.253 C 
ENDBRANCH  34  35
ENDBRANCH  24  27
ENDBRANCH  23  24
ENDBRANCH  19  23
TORSDOF 11
ENDMDL
MODEL 5
REMARK VINA RESULT:      -8.5      2.560      4.974
REMARK  Name = 
REMARK  11 active torsions:
REMARK  status: ('A' for Active; 'I' for Inactive)
REMARK    1  A    between atoms: C_2  and  O_3
REMARK    2  A    between atoms: O_3  and  C_4
REMARK    3  A    between atoms: C_4  and  C_6
REMARK    4  A    between atoms: C_10  and  N_11
REMARK    5  A    between atoms: C_12  and  O_14
REMARK    6  A    between atoms: O_14  and  C_15
REMARK    7  A    between atoms: C_19  and  N_23
REMARK    8  A    between atoms: N_23  and  S_24
REMARK    9  A    between atoms: S_24  and  C_27
REMARK   10  A    between atoms: C_29  and  O_30
REMARK   11  A    between atoms: C_34  and  O_35
REMARK                            x       y       z     vdW  Elec       q    Type
REMARK                         _______ _______ _______ _____ _____    ______ ____
ROOT
ATOM     15  C   UNL     1      -0.951   0.592  23.912  0.00  0.00    +0.229 C 
ATOM     16  C   UNL     1      -1.159   0.960  23.203  0.00  0.00    +0.188 C 
ATOM     17  O   UNL     1      -1.968   1.117  23.227  0.00  0.00    -0.348 OA
ATOM     18  C   UNL     1      -2.260   0.847  23.949  0.00  0.00    +0.166 C 
ATOM     19  C   UNL     1      -2.940   0.777  24.411  0.00  0.00    +0.157 C 
ATOM     20  C   UNL     1      -2.732   0.410  25.119  0.00  0.00    +0.164 C 
ATOM     21  O   UNL     1      -1.923   0.253  25.096  0.00  0.00    -0.348 OA
ATOM     22  C   UNL     1      -1.631   0.523  24.373  0.00  0.00    +0.186 C 
ENDROOT
BRANCH  15  14
ATOM     14  O   UNL     1      -0.194   0.339  24.123  0.00  0.00    -0.432 OA
BRANCH  14  12
ATOM     11  N   UNL     1       0.934  -0.202  23.432  0.00  0.00    -0.142 NA
ATOM     12  C   UNL     1       0.434   0.433  23.596  0.00  0.00    +0.425 C 
ATOM     13  O   UNL     1       0.562   1.163  23.234  0.00  0.00    -0.224 OA
BRANCH  11  10
ATOM      6  C   UNL     1       2.911   0.288  22.646  0.00  0.00    +0.077 A 
ATOM      7  C   UNL     1       2.819   0.079  21.853  0.00  0.00    +0.007 A 
ATOM      8  C   UNL     1       2.098  -0.223  21.586  0.00  0.00    +0.002 A 
ATOM      9  C   UNL     1       1.471  -0.317  22.113  0.00  0.00    +0.017 A 
ATOM     10  C   UNL     1       1.563  -0.108  22.906  0.00  0.00    +0.077 A 
ATOM     37  C   UNL     1       2.282   0.194  23.172  0.00  0.00    +0.023 A 
BRANCH   6   4
ATOM      4  C   UNL     1       3.630   0.590  22.911  0.00  0.00    +0.341 C 
ATOM      5  O   UNL     1       3.747   1.406  22.949  0.00  0.00    -0.245 OA
BRANCH   4   3
ATOM      3  O   UNL     1       4.234   0.077  23.140  0.00  0.00    -0.445 OA
BRANCH   3   2
ATOM      1  C   UNL     1       5.531  -0.126  23.705  0.00  0.00    +0.051 C 
ATOM      2  C   UNL     1       4.962   0.379  23.386  0.00  0.00    +0.209 C 
ENDBRANCH   3   2
ENDBRANCH   4   3
ENDBRANCH   6   4
ENDBRANCH  11  10
ENDBRANCH  14  12
ENDBRANCH  15  14
BRANCH  19  23
ATOM     23  N   UNL     1      -3.697   1.031  24.200  0.00  0.00    -0.074 NA
BRANCH  23  24
ATOM     24  S   UNL     1      -4.037   1.679  24.582  0.00  0.00    +0.080 S 
ATOM     25  O   UNL     1      -4.002   2.110  23.879  0.00  0.00    -0.151 OA
ATOM     26  O   UNL     1      -4.071   1.247  25.284  0.00  0.00    -0.151 OA
BRANCH  24  27
ATOM     27  C   UNL     1      -4.376   2.327  24.963  0.00  0.00    +0.160 A 
ATOM     28  C   UNL     1      -3.901   2.957  25.207  0.00  0.00    +0.060 A 
ATOM     29  C   UNL     1      -4.241   3.605  25.587  0.00  0.00    +0.140 A 
ATOM     32  C   UNL     1      -5.054   3.624  25.724  0.00  0.00    +0.040 A 
ATOM     33  C   UNL     1      -5.528   2.995  25.481  0.00  0.00    +0.041 A 
ATOM     34  C   UNL     1      -5.189   2.346  25.100  0.00  0.00    +0.157 A 
BRANCH  29  30
ATOM     30  O   UNL     1      -3.766   4.234  25.831  0.00  0.00    -0.471 OA
ATOM     31  C   UNL     1      -3.273   4.151  26.486  0.00  0.00    +0.252 C 
ENDBRANCH  29  30
BRANCH  34  35
ATOM     35  O   UNL     1      -5.664   1.716  24.856  0.00  0.00    -0.470 OA
ATOM     36  C   UNL     1      -6.478   1.741  24.984  0.00  0.00    +0.253 C 
ENDBRANCH  34  35
ENDBRANCH  24  27
ENDBRANCH  23  24
ENDBRANCH  19  23
TORSDOF 11
ENDMDL
MODEL 6
REMARK VINA RESULT:      -8.3      1.486      3.753
REMARK  Name = 
REMARK  11 active torsions:
REMARK  status: ('A' for Active; 'I' for Inactive)
REMARK    1  A    between atoms: C_2  and  O_3
REMARK    2  A    between atoms: O_3  and  C_4
REMARK    3  A    between atoms: C_4  and  C_6
REMARK    4  A    between atoms: C_10  and  N_11
REMARK    5  A    between atoms: C_12  and  O_14
REMARK    6  A    between atoms: O_14  and  C_15
REMARK    7  A    between atoms: C_19  and  N_23
REMARK    8  A    between atoms: N_23  and  S_24
REMARK    9  A    between atoms: S_24  and  C_27
REMARK   10  A    between atoms: C_29  and  O_30
REMARK   11  A    between atoms: C_34  and  O_35
REMARK                            x       y       z     vdW  Elec       q    Type
REMARK                         _______ _______ _______ _____ _____    ______ ____
ROOT
ATOM     15  C   UNL     1      -0.743   3.017  24.884  0.00  0.00    +0.229 C 
ATOM     16  C   UNL     1      -0.783   3.058  25.707  0.00  0.00    +0.188 C 
ATOM     17  O   UNL     1      -1.540   3.315  25.911  0.00  0.00    -0.348 OA
ATOM     18  C   UNL     1      -1.967   3.433  25.216  0.00  0.00    +0.166 C 
ATOM     19  C   UNL     1      -2.698   3.664  24.912  0.00  0.00    +0.157 C 
ATOM     20  C   UNL     1      -2.657   3.623  24.089  0.00  0.00    +0.164 C 
ATOM     21  O   UNL     1      -1.901   3.366  23.885  0.00  0.00    -0.348 OA
ATOM     22  C   UNL     1      -1.474   3.248  24.581  0.00  0.00    +0.186 C 
ENDROOT
BRANCH  15  14
ATOM     14  O   UNL     1      -0.086   2.784  24.442  0.00  0.00    -0.432 OA
BRANCH  14  12
ATOM     11  N   UNL     1      -0.187   1.489  23.846  0.00  0.00    -0.142 NA
ATOM     12  C   UNL     1       0.135   1.990  24.417  0.00  0.00    +0.425 C 
ATOM     13  O   UNL     1       0.679   1.696  24.964  0.00  0.00    -0.224 OA
BRANCH  11  10
ATOM      6  C   UNL     1      -0.179  -0.662  24.215  0.00  0.00    +0.077 A 
ATOM      7  C   UNL     1       0.476  -0.894  23.772  0.00  0.00    +0.007 A 
ATOM      8  C   UNL     1       0.911  -0.331  23.353  0.00  0.00    +0.002 A 
ATOM      9  C   UNL     1       0.690   0.463  23.378  0.00  0.00    +0.017 A 
ATOM     10  C   UNL     1       0.034   0.695  23.822  0.00  0.00    +0.077 A 
ATOM     37  C   UNL     1      -0.400   0.132  24.240  0.00  0.00    +0.023 A 
BRANCH   6   4
ATOM      4  C   UNL     1      -0.614  -1.225  24.633  0.00  0.00    +0.341 C 
ATOM      5  O   UNL     1      -0.347  -1.491  25.368  0.00  0.00    -0.245 OA
BRANCH   4   3
ATOM      3  O   UNL     1      -1.316  -1.523  24.318  0.00  0.00    -0.445 OA
BRANCH   3   2
ATOM      1  C   UNL     1      -2.462  -2.367  24.434  0.00  0.00    +0.051 C 
ATOM      2  C   UNL     1      -1.734  -2.108  24.722  0.00  0.00    +0.209 C 
ENDBRANCH   3   2
ENDBRANCH   4   3
ENDBRANCH   6   4
ENDBRANCH  11  10
ENDBRANCH  14  12
ENDBRANCH  15  14
BRANCH  19  23
ATOM     23  N   UNL     1      -3.355   3.897  25.354  0.00  0.00    -0.074 NA
BRANCH  23  24
ATOM     24  S   UNL     1      -4.042   3.440  25.344  0.00  0.00    +0.080 S 
ATOM     25  O   UNL     1      -4.163   3.642  24.554  0.00  0.00    -0.151 OA
ATOM     26  O   UNL     1      -3.920   3.239  26.135  0.00  0.00    -0.151 OA
BRANCH  24  27
ATOM     27  C   UNL     1      -4.729   2.983  25.333  0.00  0.00    +0.160 A 
ATOM     28  C   UNL     1      -4.691   2.187  25.120  0.00  0.00    +0.060 A 
ATOM     29  C   UNL     1      -5.378   1.731  25.109  0.00  0.00    +0.140 A 
ATOM     32  C   UNL     1      -6.103   2.070  25.311  0.00  0.00    +0.040 A 
ATOM     33  C   UNL     1      -6.140   2.865  25.524  0.00  0.00    +0.041 A 
ATOM     34  C   UNL     1      -5.453   3.322  25.536  0.00  0.00    +0.157 A 
BRANCH  29  30
ATOM     30  O   UNL     1      -5.340   0.935  24.895  0.00  0.00    -0.471 OA
ATOM     31  C   UNL     1      -4.772   0.442  25.234  0.00  0.00    +0.252 C 
ENDBRANCH  29  30
BRANCH  34  35
ATOM     35  O   UNL     1      -5.491   4.119  25.749  0.00  0.00    -0.470 OA
ATOM     36  C   UNL     1      -6.223   4.492  25.820  0.00  0.00    +0.253 C 
ENDBRANCH  34  35
ENDBRANCH  24  27
ENDBRANCH  23  24
ENDBRANCH  19  23
TORSDOF 11
ENDMDL
MODEL 7
REMARK VINA RESULT:      -8.3      1.468      5.191
REMARK  Name = 
REMARK  11 active torsions:
REMARK  status: ('A' for Active; 'I' for Inactive)
REMARK    1  A    between atoms: C_2  and  O_3
REMARK    2  A    between atoms: O_3  and  C_4
REMARK    3  A    between atoms: C_4  and  C_6
REMARK    4  A    between atoms: C_10  and  N_11
REMARK    5  A    between atoms: C_12  and  O_14
REMARK    6  A    between atoms: O_14  and  C_15
REMARK    7  A    between atoms: C_19  and  N_23
REMARK    8  A    between atoms: N_23  and  S_24
REMARK    9  A    between atoms: S_24  and  C_27
REMARK   10  A    between atoms: C_29  and  O_30
REMARK   11  A    between atoms: C_34  and  O_35
REMARK                            x       y       z     vdW  Elec       q    Type
REMARK                         _______ _______ _______ _____ _____    ______ ____
ROOT
ATOM     15  C   UNL     1      -1.127   2.857  25.178  0.00  0.00    +0.229 C 
ATOM     16  C   UNL     1      -0.828   2.676  25.925  0.00  0.00    +0.188 C 
ATOM     17  O   UNL     1      -0.559   1.896  25.908  0.00  0.00    -0.348 OA
ATOM     18  C   UNL     1      -0.693   1.595  25.153  0.00  0.00    +0.166 C 
ATOM     19  C   UNL     1      -0.611   0.928  24.674  0.00  0.00    +0.157 C 
ATOM     20  C   UNL     1      -0.911   1.109  23.928  0.00  0.00    +0.164 C 
ATOM     21  O   UNL     1      -1.179   1.889  23.944  0.00  0.00    -0.348 OA
ATOM     22  C   UNL     1      -1.045   2.190  24.701  0.00  0.00    +0.186 C 
ENDROOT
BRANCH  15  14
ATOM     14  O   UNL     1      -1.453   3.580  24.949  0.00  0.00    -0.432 OA
BRANCH  14  12
ATOM     11  N   UNL     1      -2.856   3.674  24.691  0.00  0.00    -0.142 NA
ATOM     12  C   UNL     1      -2.213   3.787  25.195  0.00  0.00    +0.425 C 
ATOM     13  O   UNL     1      -2.330   4.107  25.947  0.00  0.00    -0.224 OA
BRANCH  11  10
ATOM      6  C   UNL     1      -4.908   3.503  25.414  0.00  0.00    +0.077 A 
ATOM      7  C   UNL     1      -5.135   4.296  25.429  0.00  0.00    +0.007 A 
ATOM      8  C   UNL     1      -4.601   4.882  25.198  0.00  0.00    +0.002 A 
ATOM      9  C   UNL     1      -3.842   4.674  24.952  0.00  0.00    +0.017 A 
ATOM     10  C   UNL     1      -3.615   3.881  24.937  0.00  0.00    +0.077 A 
ATOM     37  C   UNL     1      -4.148   3.296  25.167  0.00  0.00    +0.023 A 
BRANCH   6   4
ATOM      4  C   UNL     1      -5.441   2.918  25.644  0.00  0.00    +0.341 C 
ATOM      5  O   UNL     1      -5.665   2.851  26.436  0.00  0.00    -0.245 OA
BRANCH   4   3
ATOM      3  O   UNL     1      -5.752   2.398  25.084  0.00  0.00    -0.445 OA
BRANCH   3   2
ATOM      1  C   UNL     1      -6.534   1.246  24.763  0.00  0.00    +0.051 C 
ATOM      2  C   UNL     1      -6.216   1.760  25.325  0.00  0.00    +0.209 C 
ENDBRANCH   3   2
ENDBRANCH   4   3
ENDBRANCH   6   4
ENDBRANCH  11  10
ENDBRANCH  14  12
ENDBRANCH  15  14
BRANCH  19  23
ATOM     23  N   UNL     1      -0.285   0.205  24.904  0.00  0.00    -0.074 NA
BRANCH  23  24
ATOM     24  S   UNL     1      -0.735  -0.485  24.856  0.00  0.00    +0.080 S 
ATOM     25  O   UNL     1      -0.974  -0.382  25.639  0.00  0.00    -0.151 OA
ATOM     26  O   UNL     1      -0.496  -0.587  24.073  0.00  0.00    -0.151 OA
BRANCH  24  27
ATOM     27  C   UNL     1      -1.186  -1.174  24.809  0.00  0.00    +0.160 A 
ATOM     28  C   UNL     1      -1.967  -1.139  24.545  0.00  0.00    +0.060 A 
ATOM     29  C   UNL     1      -2.418  -1.828  24.499  0.00  0.00    +0.140 A 
ATOM     32  C   UNL     1      -2.088  -2.552  24.716  0.00  0.00    +0.040 A 
ATOM     33  C   UNL     1      -1.308  -2.587  24.979  0.00  0.00    +0.041 A 
ATOM     34  C   UNL     1      -0.856  -1.898  25.026  0.00  0.00    +0.157 A 
BRANCH  29  30
ATOM     30  O   UNL     1      -3.199  -1.792  24.235  0.00  0.00    -0.471 OA
ATOM     31  C   UNL     1      -3.667  -2.470  24.234  0.00  0.00    +0.252 C 
ENDBRANCH  29  30
BRANCH  34  35
ATOM     35  O   UNL     1      -0.075  -1.934  25.290  0.00  0.00    -0.470 OA
ATOM     36  C   UNL     1       0.256  -2.659  25.501  0.00  0.00    +0.253 C 
ENDBRANCH  34  35
ENDBRANCH  24  27
ENDBRANCH  23  24
ENDBRANCH  19  23
TORSDOF 11
ENDMDL
MODEL 8
REMARK VINA RESULT:      -8.2      1.494      4.754
REMARK  Name = 
REMARK  11 active torsions:
REMARK  status: ('A' for Active; 'I' for Inactive)
REMARK    1  A    between atoms: C_2  and  O_3
REMARK    2  A    between atoms: O_3  and  C_4
REMARK    3  A    between atoms: C_4  and  C_6
REMARK    4  A    between atoms: C_10  and  N_11
REMARK    5  A    between atoms: C_12  and  O_14
REMARK    6  A    between atoms: O_14  and  C_15
REMARK    7  A    between atoms: C_19  and  N_23
REMARK    8  A    between atoms: N_23  and  S_24
REMARK    9  A    between atoms: S_24  and  C_27
REMARK   10  A    between atoms: C_29  and  O_30
REMARK   11  A    between atoms: C_34  and  O_35
REMARK                            x       y       z     vdW  Elec       q    Type
REMARK                         _______ _______ _______ _____ _____    ______ ____
ROOT
ATOM     15  C   UNL     1      -1.757   3.847  25.259  0.00  0.00    +0.229 C 
ATOM     16  C   UNL     1      -1.265   3.725  25.910  0.00  0.00    +0.188 C 
ATOM     17  O   UNL     1      -0.674   3.195  25.686  0.00  0.00    -0.348 OA
ATOM     18  C   UNL     1      -0.801   2.990  24.897  0.00  0.00    +0.166 C 
ATOM     19  C   UNL     1      -0.515   2.536  24.271  0.00  0.00    +0.157 C 
ATOM     20  C   UNL     1      -1.007   2.658  23.620  0.00  0.00    +0.164 C 
ATOM     21  O   UNL     1      -1.598   3.188  23.845  0.00  0.00    -0.348 OA
ATOM     22  C   UNL     1      -1.470   3.393  24.634  0.00  0.00    +0.186 C 
ENDROOT
BRANCH  15  14
ATOM     14  O   UNL     1      -2.420   4.339  25.239  0.00  0.00    -0.432 OA
BRANCH  14  12
ATOM     11  N   UNL     1      -3.757   3.949  24.920  0.00  0.00    -0.142 NA
ATOM     12  C   UNL     1      -3.156   4.049  25.475  0.00  0.00    +0.425 C 
ATOM     13  O   UNL     1      -3.289   3.860  26.267  0.00  0.00    -0.224 OA
BRANCH  11  10
ATOM      6  C   UNL     1      -5.423   2.580  25.261  0.00  0.00    +0.077 A 
ATOM      7  C   UNL     1      -5.965   3.082  25.629  0.00  0.00    +0.007 A 
ATOM      8  C   UNL     1      -5.771   3.874  25.760  0.00  0.00    +0.002 A 
ATOM      9  C   UNL     1      -5.035   4.162  25.524  0.00  0.00    +0.017 A 
ATOM     10  C   UNL     1      -4.493   3.660  25.156  0.00  0.00    +0.077 A 
ATOM     37  C   UNL     1      -4.687   2.870  25.025  0.00  0.00    +0.023 A 
BRANCH   6   4
ATOM      4  C   UNL     1      -5.617   1.790  25.130  0.00  0.00    +0.341 C 
ATOM      5  O   UNL     1      -6.379   1.587  24.885  0.00  0.00    -0.245 OA
BRANCH   4   3
ATOM      3  O   UNL     1      -5.051   1.201  25.245  0.00  0.00    -0.445 OA
BRANCH   3   2
ATOM      1  C   UNL     1      -4.537  -0.084  24.887  0.00  0.00    +0.051 C 
ATOM      2  C   UNL     1      -5.166   0.449  24.923  0.00  0.00    +0.209 C 
ENDBRANCH   3   2
ENDBRANCH   4   3
ENDBRANCH   6   4
ENDBRANCH  11  10
ENDBRANCH  14  12
ENDBRANCH  15  14
BRANCH  19  23
ATOM     23  N   UNL     1       0.148   2.044  24.291  0.00  0.00    -0.074 NA
BRANCH  23  24
ATOM     24  S   UNL     1       0.059   1.228  24.215  0.00  0.00    +0.080 S 
ATOM     25  O   UNL     1       0.374   1.124  24.970  0.00  0.00    -0.151 OA
ATOM     26  O   UNL     1      -0.255   1.333  23.459  0.00  0.00    -0.151 OA
BRANCH  24  27
ATOM     27  C   UNL     1      -0.029   0.411  24.139  0.00  0.00    +0.160 A 
ATOM     28  C   UNL     1      -0.621   0.020  24.560  0.00  0.00    +0.060 A 
ATOM     29  C   UNL     1      -0.709  -0.797  24.485  0.00  0.00    +0.140 A 
ATOM     32  C   UNL     1      -0.206  -1.223  23.988  0.00  0.00    +0.040 A 
ATOM     33  C   UNL     1       0.385  -0.831  23.568  0.00  0.00    +0.041 A 
ATOM     34  C   UNL     1       0.474  -0.015  23.643  0.00  0.00    +0.157 A 
BRANCH  29  30
ATOM     30  O   UNL     1      -1.302  -1.188  24.906  0.00  0.00    -0.471 OA
ATOM     31  C   UNL     1      -1.426  -1.995  24.794  0.00  0.00    +0.252 C 
ENDBRANCH  29  30
BRANCH  34  35
ATOM     35  O   UNL     1       1.066   0.377  23.222  0.00  0.00    -0.470 OA
ATOM     36  C   UNL     1       1.586  -0.053  22.747  0.00  0.00    +0.253 C 
ENDBRANCH  34  35
ENDBRANCH  24  27
ENDBRANCH  23  24
ENDBRANCH  19  23
TORSDOF 11
ENDMDL
