REMARK  Name = 
REMARK  4 active torsions:
REMARK  status: ('A' for Active; 'I' for Inactive)
REMARK    1  A    between atoms: C_2  and  N_3
REMARK    2  A    between atoms: C_8  and  C_9
REMARK    3  A    between atoms: N_11  and  C_12
REMARK    4  A    between atoms: C_18  and  C_19
REMARK                            x       y       z     vdW  Elec       q    Type
REMARK                         _______ _______ _______ _____ _____    ______ ____
ROOT
ATOM     12  C   UNL     1       1.823  -0.014   0.000  0.00  0.00    +0.133 C 
ATOM     13  C   UNL     1       1.156  -0.499   0.000  0.00  0.00    +0.202 C 
ATOM     14  O   UNL     1       1.156  -1.324   0.000  0.00  0.00    -0.219 OA
ATOM     15  C   UNL     1       0.489  -0.014   0.000  0.00  0.00    +0.184 C 
ATOM     16  O   UNL     1      -0.296  -0.269   0.000  0.00  0.00    -0.220 OA
ATOM     17  C   UNL     1       0.744   0.771   0.000  0.00  0.00    +0.042 C 
ATOM     18  C   UNL     1       1.569   0.771   0.000  0.00  0.00    +0.049 C 
ENDROOT
BRANCH  18  19
ATOM     19  C   UNL     1       2.054   1.438   0.000  0.00  0.00    -0.002 A 
ATOM     20  C   UNL     1       1.718   2.192   0.000  0.00  0.00    -0.001 A 
ATOM     21  C   UNL     1       2.203   2.859   0.000  0.00  0.00    +0.020 A 
ATOM     22  C   UNL     1       3.023   2.773   0.000  0.00  0.00    +0.099 A 
ATOM     23  N   UNL     1       3.359   2.019   0.000  0.00  0.00    -0.243 NA
ATOM     24  C   UNL     1       2.874   1.352   0.000  0.00  0.00    +0.095 A 
ENDBRANCH  18  19
BRANCH  12  11
ATOM      9  C   UNL     1       2.780  -1.076   0.000  0.00  0.00    +0.282 C 
ATOM     10  O   UNL     1       2.167  -1.628   0.000  0.00  0.00    -0.267 OA
ATOM     11  N   UNL     1       2.608  -0.269   0.000  0.00  0.00    -0.199 NA
BRANCH   9   8
ATOM      3  N   UNL     1       4.232  -0.846   0.000  0.00  0.00    -0.247 N 
ATOM      4  N   UNL     1       4.899  -1.331   0.000  0.00  0.00    -0.174 NA
ATOM      5  C   UNL     1       4.644  -2.115   0.000  0.00  0.00    +0.081 A 
ATOM      6  C   UNL     1       5.129  -2.783   0.000  0.00  0.00    +0.054 C 
ATOM      7  C   UNL     1       3.819  -2.115   0.000  0.00  0.00    +0.040 A 
ATOM      8  C   UNL     1       3.564  -1.331   0.000  0.00  0.00    +0.134 A 
BRANCH   3   2
ATOM      1  C   UNL     1       4.946   0.392   0.000  0.00  0.00    +0.028 C 
ATOM      2  C   UNL     1       4.232  -0.021   0.000  0.00  0.00    +0.128 C 
ENDBRANCH   3   2
ENDBRANCH   9   8
ENDBRANCH  12  11
TORSDOF 4
