MODEL 1
REMARK VINA RESULT:     -10.8      0.000      0.000
REMARK  Name = 
REMARK  3 active torsions:
REMARK  status: ('A' for Active; 'I' for Inactive)
REMARK    1  A    between atoms: N_3  and  C_4
REMARK    2  A    between atoms: C_4  and  C_5
REMARK    3  A    between atoms: N_14  and  C_18
REMARK                            x       y       z     vdW  Elec       q    Type
REMARK                         _______ _______ _______ _____ _____    ______ ____
ROOT
ATOM      1  O   UNL     1      -4.838   2.769  25.017  0.00  0.00    -0.252 OA
ATOM      2  C   UNL     1      -4.239   2.252  24.786  0.00  0.00    +0.308 C 
ATOM      3  N   UNL     1      -3.494   2.467  24.503  0.00  0.00    -0.258 N 
ATOM     11  C   UNL     1      -3.073   1.776  24.340  0.00  0.00    +0.116 C 
ATOM     12  C   UNL     1      -3.558   1.134  24.521  0.00  0.00    +0.113 C 
ATOM     13  C   UNL     1      -3.437   0.320  24.472  0.00  0.00    +0.094 C 
ATOM     14  N   UNL     1      -4.035  -0.201  24.698  0.00  0.00    -0.271 NA
ATOM     15  C   UNL     1      -4.755   0.093  24.973  0.00  0.00    +0.094 C 
ATOM     16  C   UNL     1      -4.877   0.907  25.023  0.00  0.00    +0.112 C 
ATOM     17  N   UNL     1      -4.278   1.428  24.797  0.00  0.00    -0.261 N 
ENDROOT
BRANCH  14  18
ATOM     18  C   UNL     1      -3.914  -1.016  24.648  0.00  0.00    +0.063 C 
ATOM     19  C   UNL     1      -4.162  -1.429  23.978  0.00  0.00    +0.048 C 
ATOM     20  C   UNL     1      -4.042  -2.243  23.927  0.00  0.00    +0.144 C 
ATOM     21  O   UNL     1      -3.674  -2.645  24.548  0.00  0.00    -0.354 OA
ATOM     22  C   UNL     1      -3.426  -2.232  25.218  0.00  0.00    +0.144 C 
ATOM     23  C   UNL     1      -3.547  -1.417  25.267  0.00  0.00    +0.048 C 
ENDBRANCH  14  18
BRANCH   3   4
ATOM      4  C   UNL     1      -3.219   3.238  24.402  0.00  0.00    +0.123 C 
BRANCH   4   5
ATOM      5  C   UNL     1      -2.482   3.457  24.702  0.00  0.00    +0.017 A 
ATOM      6  C   UNL     1      -2.432   3.834  25.435  0.00  0.00    +0.001 A 
ATOM      7  C   UNL     1      -1.695   4.052  25.735  0.00  0.00    +0.020 A 
ATOM      8  C   UNL     1      -1.010   3.894  25.304  0.00  0.00    +0.099 A 
ATOM      9  N   UNL     1      -1.061   3.517  24.573  0.00  0.00    -0.243 NA
ATOM     10  C   UNL     1      -1.797   3.298  24.271  0.00  0.00    +0.096 A 
ENDBRANCH   4   5
ENDBRANCH   3   4
TORSDOF 3
ENDMDL
MODEL 2
REMARK VINA RESULT:     -10.8      1.282      4.630
REMARK  Name = 
REMARK  3 active torsions:
REMARK  status: ('A' for Active; 'I' for Inactive)
REMARK    1  A    between atoms: N_3  and  C_4
REMARK    2  A    between atoms: C_4  and  C_5
REMARK    3  A    between atoms: N_14  and  C_18
REMARK                            x       y       z     vdW  Elec       q    Type
REMARK                         _______ _______ _______ _____ _____    ______ ____
ROOT
ATOM      1  O   UNL     1      -5.439   1.745  25.190  0.00  0.00    -0.252 OA
ATOM      2  C   UNL     1      -4.634   1.682  25.020  0.00  0.00    +0.308 C 
ATOM      3  N   UNL     1      -4.245   1.004  24.757  0.00  0.00    -0.258 N 
ATOM     11  C   UNL     1      -3.447   1.189  24.657  0.00  0.00    +0.116 C 
ATOM     12  C   UNL     1      -3.343   1.982  24.859  0.00  0.00    +0.113 C 
ATOM     13  C   UNL     1      -2.675   2.467  24.868  0.00  0.00    +0.094 C 
ATOM     14  N   UNL     1      -2.740   3.255  25.100  0.00  0.00    -0.271 NA
ATOM     15  C   UNL     1      -3.474   3.559  25.324  0.00  0.00    +0.094 C 
ATOM     16  C   UNL     1      -4.142   3.076  25.316  0.00  0.00    +0.112 C 
ATOM     17  N   UNL     1      -4.076   2.286  25.083  0.00  0.00    -0.261 N 
ENDROOT
BRANCH  14  18
ATOM     18  C   UNL     1      -2.073   3.740  25.109  0.00  0.00    +0.063 C 
ATOM     19  C   UNL     1      -2.159   4.560  25.123  0.00  0.00    +0.048 C 
ATOM     20  C   UNL     1      -1.493   5.045  25.132  0.00  0.00    +0.144 C 
ATOM     21  O   UNL     1      -0.738   4.710  25.128  0.00  0.00    -0.354 OA
ATOM     22  C   UNL     1      -0.652   3.890  25.114  0.00  0.00    +0.144 C 
ATOM     23  C   UNL     1      -1.319   3.405  25.105  0.00  0.00    +0.048 C 
ENDBRANCH  14  18
BRANCH   3   4
ATOM      4  C   UNL     1      -4.593   0.269  24.617  0.00  0.00    +0.123 C 
BRANCH   4   5
ATOM      5  C   UNL     1      -4.165  -0.423  24.753  0.00  0.00    +0.017 A 
ATOM      6  C   UNL     1      -3.927  -0.891  24.116  0.00  0.00    +0.001 A 
ATOM      7  C   UNL     1      -3.499  -1.583  24.251  0.00  0.00    +0.020 A 
ATOM      8  C   UNL     1      -3.309  -1.808  25.022  0.00  0.00    +0.099 A 
ATOM      9  N   UNL     1      -3.547  -1.340  25.658  0.00  0.00    -0.243 NA
ATOM     10  C   UNL     1      -3.975  -0.647  25.524  0.00  0.00    +0.096 A 
ENDBRANCH   4   5
ENDBRANCH   3   4
TORSDOF 3
ENDMDL
MODEL 3
REMARK VINA RESULT:     -10.1      2.101      3.257
REMARK  Name = 
REMARK  3 active torsions:
REMARK  status: ('A' for Active; 'I' for Inactive)
REMARK    1  A    between atoms: N_3  and  C_4
REMARK    2  A    between atoms: C_4  and  C_5
REMARK    3  A    between atoms: N_14  and  C_18
REMARK                            x       y       z     vdW  Elec       q    Type
REMARK                         _______ _______ _______ _____ _____    ______ ____
ROOT
ATOM      1  O   UNL     1      -2.453   3.758  25.089  0.00  0.00    -0.252 OA
ATOM      2  C   UNL     1      -2.641   2.969  24.937  0.00  0.00    +0.308 C 
ATOM      3  N   UNL     1      -3.390   2.677  24.754  0.00  0.00    -0.258 N 
ATOM     11  C   UNL     1      -3.326   1.861  24.644  0.00  0.00    +0.116 C 
ATOM     12  C   UNL     1      -2.537   1.651  24.759  0.00  0.00    +0.113 C 
ATOM     13  C   UNL     1      -2.149   0.924  24.722  0.00  0.00    +0.094 C 
ATOM     14  N   UNL     1      -1.338   0.881  24.866  0.00  0.00    -0.271 NA
ATOM     15  C   UNL     1      -0.915   1.566  25.046  0.00  0.00    +0.094 C 
ATOM     16  C   UNL     1      -1.302   2.293  25.083  0.00  0.00    +0.112 C 
ATOM     17  N   UNL     1      -2.114   2.335  24.939  0.00  0.00    -0.261 N 
ENDROOT
BRANCH  14  18
ATOM     18  C   UNL     1      -0.949   0.154  24.829  0.00  0.00    +0.063 C 
ATOM     19  C   UNL     1      -1.070  -0.408  25.421  0.00  0.00    +0.048 C 
ATOM     20  C   UNL     1      -0.682  -1.135  25.386  0.00  0.00    +0.144 C 
ATOM     21  O   UNL     1      -0.172  -1.300  24.757  0.00  0.00    -0.354 OA
ATOM     22  C   UNL     1      -0.052  -0.738  24.165  0.00  0.00    +0.144 C 
ATOM     23  C   UNL     1      -0.441  -0.011  24.202  0.00  0.00    +0.048 C 
ENDBRANCH  14  18
BRANCH   3   4
ATOM      4  C   UNL     1      -4.083   3.121  24.692  0.00  0.00    +0.123 C 
BRANCH   4   5
ATOM      5  C   UNL     1      -4.773   2.864  25.065  0.00  0.00    +0.017 A 
ATOM      6  C   UNL     1      -5.285   2.348  24.673  0.00  0.00    +0.001 A 
ATOM      7  C   UNL     1      -5.975   2.092  25.045  0.00  0.00    +0.020 A 
ATOM      8  C   UNL     1      -6.153   2.350  25.808  0.00  0.00    +0.099 A 
ATOM      9  N   UNL     1      -5.642   2.865  26.199  0.00  0.00    -0.243 NA
ATOM     10  C   UNL     1      -4.951   3.123  25.827  0.00  0.00    +0.096 A 
ENDBRANCH   4   5
ENDBRANCH   3   4
TORSDOF 3
ENDMDL
MODEL 4
REMARK VINA RESULT:     -10.0      1.858      5.109
REMARK  Name = 
REMARK  3 active torsions:
REMARK  status: ('A' for Active; 'I' for Inactive)
REMARK    1  A    between atoms: N_3  and  C_4
REMARK    2  A    between atoms: C_4  and  C_5
REMARK    3  A    between atoms: N_14  and  C_18
REMARK                            x       y       z     vdW  Elec       q    Type
REMARK                         _______ _______ _______ _____ _____    ______ ____
ROOT
ATOM      1  O   UNL     1      -0.560  -0.197  25.646  0.00  0.00    -0.252 OA
ATOM      2  C   UNL     1      -1.079   0.341  25.295  0.00  0.00    +0.308 C 
ATOM      3  N   UNL     1      -1.714   0.152  24.804  0.00  0.00    -0.258 N 
ATOM     11  C   UNL     1      -2.081   0.857  24.579  0.00  0.00    +0.116 C 
ATOM     12  C   UNL     1      -1.671   1.480  24.931  0.00  0.00    +0.113 C 
ATOM     13  C   UNL     1      -1.782   2.297  24.906  0.00  0.00    +0.094 C 
ATOM     14  N   UNL     1      -1.274   2.796  25.323  0.00  0.00    -0.271 NA
ATOM     15  C   UNL     1      -0.655   2.477  25.765  0.00  0.00    +0.094 C 
ATOM     16  C   UNL     1      -0.543   1.660  25.791  0.00  0.00    +0.112 C 
ATOM     17  N   UNL     1      -1.052   1.161  25.373  0.00  0.00    -0.261 N 
ENDROOT
BRANCH  14  18
ATOM     18  C   UNL     1      -1.384   3.613  25.298  0.00  0.00    +0.063 C 
ATOM     19  C   UNL     1      -2.070   3.946  25.614  0.00  0.00    +0.048 C 
ATOM     20  C   UNL     1      -2.181   4.763  25.590  0.00  0.00    +0.144 C 
ATOM     21  O   UNL     1      -1.606   5.247  25.248  0.00  0.00    -0.354 OA
ATOM     22  C   UNL     1      -0.921   4.914  24.932  0.00  0.00    +0.144 C 
ATOM     23  C   UNL     1      -0.811   4.097  24.957  0.00  0.00    +0.048 C 
ENDBRANCH  14  18
BRANCH   3   4
ATOM      4  C   UNL     1      -1.944  -0.607  24.578  0.00  0.00    +0.123 C 
BRANCH   4   5
ATOM      5  C   UNL     1      -2.736  -0.831  24.628  0.00  0.00    +0.017 A 
ATOM      6  C   UNL     1      -3.218  -0.790  23.959  0.00  0.00    +0.001 A 
ATOM      7  C   UNL     1      -4.011  -1.014  24.009  0.00  0.00    +0.020 A 
ATOM      8  C   UNL     1      -4.321  -1.279  24.726  0.00  0.00    +0.099 A 
ATOM      9  N   UNL     1      -3.839  -1.321  25.393  0.00  0.00    -0.243 NA
ATOM     10  C   UNL     1      -3.046  -1.097  25.345  0.00  0.00    +0.096 A 
ENDBRANCH   4   5
ENDBRANCH   3   4
TORSDOF 3
ENDMDL
MODEL 5
REMARK VINA RESULT:      -9.9      1.776      2.242
REMARK  Name = 
REMARK  3 active torsions:
REMARK  status: ('A' for Active; 'I' for Inactive)
REMARK    1  A    between atoms: N_3  and  C_4
REMARK    2  A    between atoms: C_4  and  C_5
REMARK    3  A    between atoms: N_14  and  C_18
REMARK                            x       y       z     vdW  Elec       q    Type
REMARK                         _______ _______ _______ _____ _____    ______ ____
ROOT
ATOM      1  O   UNL     1      -0.254   1.771  25.750  0.00  0.00    -0.252 OA
ATOM      2  C   UNL     1      -0.961   1.521  25.406  0.00  0.00    +0.308 C 
ATOM      3  N   UNL     1      -1.517   2.004  25.035  0.00  0.00    -0.258 N 
ATOM     11  C   UNL     1      -2.136   1.525  24.772  0.00  0.00    +0.116 C 
ATOM     12  C   UNL     1      -1.962   0.746  24.981  0.00  0.00    +0.113 C 
ATOM     13  C   UNL     1      -2.370   0.039  24.866  0.00  0.00    +0.094 C 
ATOM     14  N   UNL     1      -2.053  -0.671  25.141  0.00  0.00    -0.271 NA
ATOM     15  C   UNL     1      -1.327  -0.673  25.533  0.00  0.00    +0.094 C 
ATOM     16  C   UNL     1      -0.918   0.034  25.649  0.00  0.00    +0.112 C 
ATOM     17  N   UNL     1      -1.236   0.744  25.373  0.00  0.00    -0.261 N 
ENDROOT
BRANCH  14  18
ATOM     18  C   UNL     1      -2.461  -1.378  25.026  0.00  0.00    +0.063 C 
ATOM     19  C   UNL     1      -2.158  -1.950  24.514  0.00  0.00    +0.048 C 
ATOM     20  C   UNL     1      -2.565  -2.658  24.397  0.00  0.00    +0.144 C 
ATOM     21  O   UNL     1      -3.277  -2.794  24.794  0.00  0.00    -0.354 OA
ATOM     22  C   UNL     1      -3.580  -2.223  25.306  0.00  0.00    +0.144 C 
ATOM     23  C   UNL     1      -3.172  -1.515  25.421  0.00  0.00    +0.048 C 
ENDBRANCH  14  18
BRANCH   3   4
ATOM      4  C   UNL     1      -1.465   2.822  24.943  0.00  0.00    +0.123 C 
BRANCH   4   5
ATOM      5  C   UNL     1      -2.108   3.301  25.133  0.00  0.00    +0.017 A 
ATOM      6  C   UNL     1      -2.167   3.631  25.888  0.00  0.00    +0.001 A 
ATOM      7  C   UNL     1      -2.811   4.111  26.078  0.00  0.00    +0.020 A 
ATOM      8  C   UNL     1      -3.396   4.260  25.515  0.00  0.00    +0.099 A 
ATOM      9  N   UNL     1      -3.336   3.930  24.762  0.00  0.00    -0.243 NA
ATOM     10  C   UNL     1      -2.693   3.451  24.570  0.00  0.00    +0.096 A 
ENDBRANCH   4   5
ENDBRANCH   3   4
TORSDOF 3
ENDMDL
