MODEL 1
REMARK VINA RESULT:     -16.2      0.000      0.000
REMARK  Name = 
REMARK  5 active torsions:
REMARK  status: ('A' for Active; 'I' for Inactive)
REMARK    1  A    between atoms: O_2  and  C_3
REMARK    2  A    between atoms: C_6  and  N_7
REMARK    3  A    between atoms: C_19  and  N_20
REMARK    4  A    between atoms: N_20  and  S_21
REMARK    5  A    between atoms: S_21  and  C_24
REMARK                            x       y       z     vdW  Elec       q    Type
REMARK                         _______ _______ _______ _____ _____    ______ ____
ROOT
ATOM      7  N   UNL     1      -3.298   2.283  24.738  0.00  0.00    -0.162 NA
ATOM      8  C   UNL     1      -3.335   3.102  24.838  0.00  0.00    +0.327 C 
ATOM      9  O   UNL     1      -2.675   3.568  24.672  0.00  0.00    -0.250 OA
ATOM     10  N   UNL     1      -4.033   3.454  25.103  0.00  0.00    -0.262 N 
ATOM     11  C   UNL     1      -4.560   4.057  25.340  0.00  0.00    +0.097 C 
ATOM     12  C   UNL     1      -5.357   3.510  25.543  0.00  0.00    +0.043 C 
ATOM     13  C   UNL     1      -6.086   3.209  25.749  0.00  0.00    +0.011 C 
ATOM     14  C   UNL     1      -5.469   2.964  25.521  0.00  0.00    +0.058 C 
ATOM     15  C   UNL     1      -4.706   3.507  25.329  0.00  0.00    +0.101 C 
ATOM     16  C   UNL     1      -5.041   2.182  25.298  0.00  0.00    +0.041 A 
ATOM     17  C   UNL     1      -5.175   1.369  25.255  0.00  0.00    +0.014 A 
ATOM     18  C   UNL     1      -4.572   0.865  25.004  0.00  0.00    +0.024 A 
ATOM     19  C   UNL     1      -3.836   1.174  24.796  0.00  0.00    +0.147 A 
ATOM     31  C   UNL     1      -3.702   1.986  24.839  0.00  0.00    +0.277 A 
ATOM     32  O   UNL     1      -2.948   1.789  24.571  0.00  0.00    -0.266 OA
ATOM     33  N   UNL     1      -4.305   2.490  25.090  0.00  0.00    -0.298 N 
ATOM     34  C   UNL     1      -4.903   2.698  25.308  0.00  0.00    +0.110 C 
ENDROOT
BRANCH   7   6
ATOM      3  C   UNL     1      -1.206   1.229  23.940  0.00  0.00    +0.139 A 
ATOM      4  C   UNL     1      -1.774   1.480  23.398  0.00  0.00    +0.038 A 
ATOM      5  C   UNL     1      -2.471   1.832  23.664  0.00  0.00    +0.020 A 
ATOM      6  C   UNL     1      -2.601   1.932  24.473  0.00  0.00    +0.075 A 
ATOM     35  C   UNL     1      -2.032   1.680  25.015  0.00  0.00    +0.020 A 
ATOM     36  C   UNL     1      -1.335   1.329  24.749  0.00  0.00    +0.038 A 
BRANCH   3   2
ATOM      1  C   UNL     1       0.221   1.161  23.934  0.00  0.00    +0.252 C 
ATOM      2  O   UNL     1      -0.508   0.878  23.674  0.00  0.00    -0.471 OA
ENDBRANCH   3   2
ENDBRANCH   7   6
BRANCH  19  20
ATOM     20  N   UNL     1      -3.234   0.669  24.546  0.00  0.00    -0.092 NA
BRANCH  20  21
ATOM     21  S   UNL     1      -3.366  -0.144  24.508  0.00  0.00    +0.093 S 
ATOM     22  O   UNL     1      -3.627  -0.066  23.730  0.00  0.00    -0.148 OA
ATOM     23  O   UNL     1      -3.104  -0.223  25.286  0.00  0.00    -0.148 OA
BRANCH  21  24
ATOM     24  C   UNL     1      -3.497  -0.958  24.471  0.00  0.00    +0.127 A 
ATOM     25  C   UNL     1      -3.930  -1.278  23.845  0.00  0.00    +0.021 A 
ATOM     26  C   UNL     1      -4.061  -2.092  23.809  0.00  0.00    +0.013 A 
ATOM     27  C   UNL     1      -3.760  -2.585  24.397  0.00  0.00    +0.058 A 
ATOM     28 CL   UNL     1      -3.891  -3.399  24.361  0.00  0.00    -0.082 Cl
ATOM     29  C   UNL     1      -3.328  -2.265  25.023  0.00  0.00    +0.013 A 
ATOM     30  C   UNL     1      -3.196  -1.452  25.059  0.00  0.00    +0.021 A 
ENDBRANCH  21  24
ENDBRANCH  20  21
ENDBRANCH  19  20
TORSDOF 5
ENDMDL
MODEL 2
REMARK VINA RESULT:     -15.3      1.221      3.044
REMARK  Name = 
REMARK  5 active torsions:
REMARK  status: ('A' for Active; 'I' for Inactive)
REMARK    1  A    between atoms: O_2  and  C_3
REMARK    2  A    between atoms: C_6  and  N_7
REMARK    3  A    between atoms: C_19  and  N_20
REMARK    4  A    between atoms: N_20  and  S_21
REMARK    5  A    between atoms: S_21  and  C_24
REMARK                            x       y       z     vdW  Elec       q    Type
REMARK                         _______ _______ _______ _____ _____    ______ ____
ROOT
ATOM      7  N   UNL     1      -2.914   2.620  25.042  0.00  0.00    -0.162 NA
ATOM      8  C   UNL     1      -2.654   3.396  25.154  0.00  0.00    +0.327 C 
ATOM      9  O   UNL     1      -3.198   4.016  25.156  0.00  0.00    -0.250 OA
ATOM     10  N   UNL     1      -1.851   3.551  25.264  0.00  0.00    -0.262 N 
ATOM     11  C   UNL     1      -1.153   3.992  25.392  0.00  0.00    +0.097 C 
ATOM     12  C   UNL     1      -0.492   3.258  25.392  0.00  0.00    +0.043 C 
ATOM     13  C   UNL     1       0.166   2.777  25.418  0.00  0.00    +0.011 C 
ATOM     14  C   UNL     1      -0.526   2.704  25.329  0.00  0.00    +0.058 C 
ATOM     15  C   UNL     1      -1.153   3.425  25.332  0.00  0.00    +0.101 C 
ATOM     16  C   UNL     1      -1.171   2.066  25.187  0.00  0.00    +0.041 A 
ATOM     17  C   UNL     1      -1.256   1.251  25.091  0.00  0.00    +0.014 A 
ATOM     18  C   UNL     1      -2.004   0.925  24.970  0.00  0.00    +0.024 A 
ATOM     19  C   UNL     1      -2.668   1.415  24.944  0.00  0.00    +0.147 A 
ATOM     31  C   UNL     1      -2.583   2.229  25.039  0.00  0.00    +0.277 A 
ATOM     32  O   UNL     1      -3.402   2.238  24.945  0.00  0.00    -0.266 OA
ATOM     33  N   UNL     1      -1.835   2.555  25.161  0.00  0.00    -0.298 N 
ATOM     34  C   UNL     1      -1.172   2.597  25.243  0.00  0.00    +0.110 C 
ENDROOT
BRANCH   7   6
ATOM      3  C   UNL     1      -5.323   2.158  24.714  0.00  0.00    +0.139 A 
ATOM      4  C   UNL     1      -5.005   2.171  25.475  0.00  0.00    +0.038 A 
ATOM      5  C   UNL     1      -4.202   2.325  25.584  0.00  0.00    +0.020 A 
ATOM      6  C   UNL     1      -3.716   2.466  24.932  0.00  0.00    +0.075 A 
ATOM     35  C   UNL     1      -4.034   2.452  24.171  0.00  0.00    +0.020 A 
ATOM     36  C   UNL     1      -4.837   2.298  24.062  0.00  0.00    +0.038 A 
BRANCH   3   2
ATOM      1  C   UNL     1      -6.627   1.945  25.257  0.00  0.00    +0.252 C 
ATOM      2  O   UNL     1      -6.126   2.003  24.604  0.00  0.00    -0.471 OA
ENDBRANCH   3   2
ENDBRANCH   7   6
BRANCH  19  20
ATOM     20  N   UNL     1      -3.415   1.088  24.822  0.00  0.00    -0.092 NA
BRANCH  20  21
ATOM     21  S   UNL     1      -3.500   0.273  24.735  0.00  0.00    +0.093 S 
ATOM     22  O   UNL     1      -3.398   0.349  23.920  0.00  0.00    -0.148 OA
ATOM     23  O   UNL     1      -3.603   0.196  25.550  0.00  0.00    -0.148 OA
BRANCH  21  24
ATOM     24  C   UNL     1      -3.586  -0.544  24.648  0.00  0.00    +0.127 A 
ATOM     25  C   UNL     1      -3.445  -1.044  25.289  0.00  0.00    +0.021 A 
ATOM     26  C   UNL     1      -3.531  -1.860  25.202  0.00  0.00    +0.013 A 
ATOM     27  C   UNL     1      -3.757  -2.175  24.475  0.00  0.00    +0.058 A 
ATOM     28 CL   UNL     1      -3.842  -2.991  24.388  0.00  0.00    -0.082 Cl
ATOM     29  C   UNL     1      -3.898  -1.676  23.834  0.00  0.00    +0.013 A 
ATOM     30  C   UNL     1      -3.812  -0.860  23.921  0.00  0.00    +0.021 A 
ENDBRANCH  21  24
ENDBRANCH  20  21
ENDBRANCH  19  20
TORSDOF 5
ENDMDL
MODEL 3
REMARK VINA RESULT:     -15.2      1.841      4.179
REMARK  Name = 
REMARK  5 active torsions:
REMARK  status: ('A' for Active; 'I' for Inactive)
REMARK    1  A    between atoms: O_2  and  C_3
REMARK    2  A    between atoms: C_6  and  N_7
REMARK    3  A    between atoms: C_19  and  N_20
REMARK    4  A    between atoms: N_20  and  S_21
REMARK    5  A    between atoms: S_21  and  C_24
REMARK                            x       y       z     vdW  Elec       q    Type
REMARK                         _______ _______ _______ _____ _____    ______ ____
ROOT
ATOM      7  N   UNL     1      -1.881  -0.548  24.685  0.00  0.00    -0.162 NA
ATOM      8  C   UNL     1      -1.556  -1.307  24.690  0.00  0.00    +0.327 C 
ATOM      9  O   UNL     1      -0.747  -1.408  24.808  0.00  0.00    -0.250 OA
ATOM     10  N   UNL     1      -2.042  -1.964  24.577  0.00  0.00    -0.262 N 
ATOM     11  C   UNL     1      -2.261  -2.766  24.497  0.00  0.00    +0.097 C 
ATOM     12  C   UNL     1      -3.233  -2.659  24.355  0.00  0.00    +0.043 C 
ATOM     13  C   UNL     1      -4.034  -2.740  24.227  0.00  0.00    +0.011 C 
ATOM     14  C   UNL     1      -3.575  -2.219  24.328  0.00  0.00    +0.058 C 
ATOM     15  C   UNL     1      -2.637  -2.339  24.464  0.00  0.00    +0.101 C 
ATOM     16  C   UNL     1      -3.526  -1.303  24.389  0.00  0.00    +0.041 A 
ATOM     17  C   UNL     1      -4.005  -0.633  24.355  0.00  0.00    +0.014 A 
ATOM     18  C   UNL     1      -3.673   0.116  24.449  0.00  0.00    +0.024 A 
ATOM     19  C   UNL     1      -2.862   0.195  24.578  0.00  0.00    +0.147 A 
ATOM     31  C   UNL     1      -2.383  -0.476  24.612  0.00  0.00    +0.277 A 
ATOM     32  O   UNL     1      -1.777   0.070  24.737  0.00  0.00    -0.266 OA
ATOM     33  N   UNL     1      -2.715  -1.225  24.518  0.00  0.00    -0.298 N 
ATOM     34  C   UNL     1      -3.173  -1.703  24.420  0.00  0.00    +0.110 C 
ENDROOT
BRANCH   7   6
ATOM      3  C   UNL     1      -0.423   1.423  25.025  0.00  0.00    +0.139 A 
ATOM      4  C   UNL     1      -0.769   1.049  25.673  0.00  0.00    +0.038 A 
ATOM      5  C   UNL     1      -1.256   0.392  25.560  0.00  0.00    +0.020 A 
ATOM      6  C   UNL     1      -1.395   0.109  24.797  0.00  0.00    +0.075 A 
ATOM     35  C   UNL     1      -1.049   0.483  24.149  0.00  0.00    +0.020 A 
ATOM     36  C   UNL     1      -0.563   1.140  24.262  0.00  0.00    +0.038 A 
BRANCH   3   2
ATOM      1  C   UNL     1       0.191   2.372  25.899  0.00  0.00    +0.252 C 
ATOM      2  O   UNL     1       0.063   2.080  25.138  0.00  0.00    -0.471 OA
ENDBRANCH   3   2
ENDBRANCH   7   6
BRANCH  19  20
ATOM     20  N   UNL     1      -2.530   0.944  24.673  0.00  0.00    -0.092 NA
BRANCH  20  21
ATOM     21  S   UNL     1      -3.014   1.612  24.670  0.00  0.00    +0.093 S 
ATOM     22  O   UNL     1      -2.897   1.694  23.857  0.00  0.00    -0.148 OA
ATOM     23  O   UNL     1      -3.130   1.531  25.482  0.00  0.00    -0.148 OA
BRANCH  21  24
ATOM     24  C   UNL     1      -3.497   2.281  24.668  0.00  0.00    +0.127 A 
ATOM     25  C   UNL     1      -3.595   2.718  23.974  0.00  0.00    +0.021 A 
ATOM     26  C   UNL     1      -4.079   3.386  23.973  0.00  0.00    +0.013 A 
ATOM     27  C   UNL     1      -4.464   3.618  24.665  0.00  0.00    +0.058 A 
ATOM     28 CL   UNL     1      -4.947   4.286  24.663  0.00  0.00    -0.082 Cl
ATOM     29  C   UNL     1      -4.366   3.182  25.358  0.00  0.00    +0.013 A 
ATOM     30  C   UNL     1      -3.883   2.513  25.359  0.00  0.00    +0.021 A 
ENDBRANCH  21  24
ENDBRANCH  20  21
ENDBRANCH  19  20
TORSDOF 5
ENDMDL
MODEL 4
REMARK VINA RESULT:     -14.4      1.775      2.571
REMARK  Name = 
REMARK  5 active torsions:
REMARK  status: ('A' for Active; 'I' for Inactive)
REMARK    1  A    between atoms: O_2  and  C_3
REMARK    2  A    between atoms: C_6  and  N_7
REMARK    3  A    between atoms: C_19  and  N_20
REMARK    4  A    between atoms: N_20  and  S_21
REMARK    5  A    between atoms: S_21  and  C_24
REMARK                            x       y       z     vdW  Elec       q    Type
REMARK                         _______ _______ _______ _____ _____    ______ ____
ROOT
ATOM      7  N   UNL     1      -3.737   3.036  25.261  0.00  0.00    -0.162 NA
ATOM      8  C   UNL     1      -4.405   3.476  25.465  0.00  0.00    +0.327 C 
ATOM      9  O   UNL     1      -4.328   4.272  25.667  0.00  0.00    -0.250 OA
ATOM     10  N   UNL     1      -5.149   3.120  25.466  0.00  0.00    -0.262 N 
ATOM     11  C   UNL     1      -5.977   3.044  25.554  0.00  0.00    +0.097 C 
ATOM     12  C   UNL     1      -6.082   2.092  25.313  0.00  0.00    +0.043 C 
ATOM     13  C   UNL     1      -6.334   1.336  25.144  0.00  0.00    +0.011 C 
ATOM     14  C   UNL     1      -5.728   1.689  25.160  0.00  0.00    +0.058 C 
ATOM     15  C   UNL     1      -5.642   2.611  25.395  0.00  0.00    +0.101 C 
ATOM     16  C   UNL     1      -4.827   1.582  25.014  0.00  0.00    +0.041 A 
ATOM     17  C   UNL     1      -4.279   1.008  24.790  0.00  0.00    +0.014 A 
ATOM     18  C   UNL     1      -3.478   1.201  24.738  0.00  0.00    +0.024 A 
ATOM     19  C   UNL     1      -3.227   1.968  24.910  0.00  0.00    +0.147 A 
ATOM     31  C   UNL     1      -3.775   2.541  25.134  0.00  0.00    +0.277 A 
ATOM     32  O   UNL     1      -3.114   3.032  25.179  0.00  0.00    -0.266 OA
ATOM     33  N   UNL     1      -4.575   2.348  25.186  0.00  0.00    -0.298 N 
ATOM     34  C   UNL     1      -5.140   1.989  25.164  0.00  0.00    +0.110 C 
ENDROOT
BRANCH   7   6
ATOM      3  C   UNL     1      -1.505   4.105  25.259  0.00  0.00    +0.139 A 
ATOM      4  C   UNL     1      -1.793   3.754  25.947  0.00  0.00    +0.038 A 
ATOM      5  C   UNL     1      -2.538   3.398  25.948  0.00  0.00    +0.020 A 
ATOM      6  C   UNL     1      -2.993   3.392  25.259  0.00  0.00    +0.075 A 
ATOM     35  C   UNL     1      -2.704   3.743  24.572  0.00  0.00    +0.020 A 
ATOM     36  C   UNL     1      -1.961   4.099  24.570  0.00  0.00    +0.038 A 
BRANCH   3   2
ATOM      1  C   UNL     1      -0.648   5.180  24.869  0.00  0.00    +0.252 C 
ATOM      2  O   UNL     1      -0.761   4.461  25.258  0.00  0.00    -0.471 OA
ENDBRANCH   3   2
ENDBRANCH   7   6
BRANCH  19  20
ATOM     20  N   UNL     1      -2.426   2.160  24.857  0.00  0.00    -0.092 NA
BRANCH  20  21
ATOM     21  S   UNL     1      -1.875   1.581  24.655  0.00  0.00    +0.093 S 
ATOM     22  O   UNL     1      -1.973   1.767  23.857  0.00  0.00    -0.148 OA
ATOM     23  O   UNL     1      -1.777   1.395  25.452  0.00  0.00    -0.148 OA
BRANCH  21  24
ATOM     24  C   UNL     1      -1.323   1.001  24.452  0.00  0.00    +0.127 A 
ATOM     25  C   UNL     1      -1.121   0.416  24.997  0.00  0.00    +0.021 A 
ATOM     26  C   UNL     1      -0.570  -0.163  24.795  0.00  0.00    +0.013 A 
ATOM     27  C   UNL     1      -0.221  -0.157  24.047  0.00  0.00    +0.058 A 
ATOM     28 CL   UNL     1       0.331  -0.736  23.845  0.00  0.00    -0.082 Cl
ATOM     29  C   UNL     1      -0.423   0.428  23.502  0.00  0.00    +0.013 A 
ATOM     30  C   UNL     1      -0.974   1.007  23.705  0.00  0.00    +0.021 A 
ENDBRANCH  21  24
ENDBRANCH  20  21
ENDBRANCH  19  20
TORSDOF 5
ENDMDL
MODEL 5
REMARK VINA RESULT:     -14.2      1.513      3.126
REMARK  Name = 
REMARK  5 active torsions:
REMARK  status: ('A' for Active; 'I' for Inactive)
REMARK    1  A    between atoms: O_2  and  C_3
REMARK    2  A    between atoms: C_6  and  N_7
REMARK    3  A    between atoms: C_19  and  N_20
REMARK    4  A    between atoms: N_20  and  S_21
REMARK    5  A    between atoms: S_21  and  C_24
REMARK                            x       y       z     vdW  Elec       q    Type
REMARK                         _______ _______ _______ _____ _____    ______ ____
ROOT
ATOM      7  N   UNL     1      -4.425   0.985  25.007  0.00  0.00    -0.162 NA
ATOM      8  C   UNL     1      -5.229   1.056  25.181  0.00  0.00    +0.327 C 
ATOM      9  O   UNL     1      -5.708   0.384  25.199  0.00  0.00    -0.250 OA
ATOM     10  N   UNL     1      -5.554   1.798  25.336  0.00  0.00    -0.262 N 
ATOM     11  C   UNL     1      -6.131   2.372  25.524  0.00  0.00    +0.097 C 
ATOM     12  C   UNL     1      -5.569   3.185  25.505  0.00  0.00    +0.043 C 
ATOM     13  C   UNL     1      -5.251   3.934  25.529  0.00  0.00    +0.011 C 
ATOM     14  C   UNL     1      -5.029   3.280  25.405  0.00  0.00    +0.058 C 
ATOM     15  C   UNL     1      -5.585   2.504  25.427  0.00  0.00    +0.101 C 
ATOM     16  C   UNL     1      -4.272   2.803  25.192  0.00  0.00    +0.041 A 
ATOM     17  C   UNL     1      -3.469   2.912  25.040  0.00  0.00    +0.014 A 
ATOM     18  C   UNL     1      -2.992   2.262  24.864  0.00  0.00    +0.024 A 
ATOM     19  C   UNL     1      -3.318   1.505  24.840  0.00  0.00    +0.147 A 
ATOM     31  C   UNL     1      -4.121   1.396  24.993  0.00  0.00    +0.277 A 
ATOM     32  O   UNL     1      -3.950   0.600  24.863  0.00  0.00    -0.266 OA
ATOM     33  N   UNL     1      -4.598   2.046  25.169  0.00  0.00    -0.298 N 
ATOM     34  C   UNL     1      -4.784   2.679  25.283  0.00  0.00    +0.110 C 
ENDROOT
BRANCH   7   6
ATOM      3  C   UNL     1      -3.452  -1.242  24.542  0.00  0.00    +0.139 A 
ATOM      4  C   UNL     1      -3.474  -0.955  25.315  0.00  0.00    +0.038 A 
ATOM      5  C   UNL     1      -3.798  -0.212  25.470  0.00  0.00    +0.020 A 
ATOM      6  C   UNL     1      -4.101   0.243  24.851  0.00  0.00    +0.075 A 
ATOM     35  C   UNL     1      -4.079  -0.045  24.079  0.00  0.00    +0.020 A 
ATOM     36  C   UNL     1      -3.755  -0.787  23.924  0.00  0.00    +0.038 A 
BRANCH   3   2
ATOM      1  C   UNL     1      -3.585  -2.664  24.488  0.00  0.00    +0.252 C 
ATOM      2  O   UNL     1      -3.128  -1.985  24.387  0.00  0.00    -0.471 OA
ENDBRANCH   3   2
ENDBRANCH   7   6
BRANCH  19  20
ATOM     20  N   UNL     1      -2.840   0.856  24.665  0.00  0.00    -0.092 NA
BRANCH  20  21
ATOM     21  S   UNL     1      -2.035   0.963  24.518  0.00  0.00    +0.093 S 
ATOM     22  O   UNL     1      -1.873   0.831  25.316  0.00  0.00    -0.148 OA
ATOM     23  O   UNL     1      -2.198   1.096  23.720  0.00  0.00    -0.148 OA
BRANCH  21  24
ATOM     24  C   UNL     1      -1.230   1.071  24.371  0.00  0.00    +0.127 A 
ATOM     25  C   UNL     1      -0.727   1.306  24.981  0.00  0.00    +0.021 A 
ATOM     26  C   UNL     1       0.077   1.414  24.833  0.00  0.00    +0.013 A 
ATOM     27  C   UNL     1       0.378   1.286  24.076  0.00  0.00    +0.058 A 
ATOM     28 CL   UNL     1       1.183   1.393  23.928  0.00  0.00    -0.082 Cl
ATOM     29  C   UNL     1      -0.125   1.051  23.466  0.00  0.00    +0.013 A 
ATOM     30  C   UNL     1      -0.929   0.943  23.613  0.00  0.00    +0.021 A 
ENDBRANCH  21  24
ENDBRANCH  20  21
ENDBRANCH  19  20
TORSDOF 5
ENDMDL
MODEL 6
REMARK VINA RESULT:     -14.1      2.233      4.869
REMARK  Name = 
REMARK  5 active torsions:
REMARK  status: ('A' for Active; 'I' for Inactive)
REMARK    1  A    between atoms: O_2  and  C_3
REMARK    2  A    between atoms: C_6  and  N_7
REMARK    3  A    between atoms: C_19  and  N_20
REMARK    4  A    between atoms: N_20  and  S_21
REMARK    5  A    between atoms: S_21  and  C_24
REMARK                            x       y       z     vdW  Elec       q    Type
REMARK                         _______ _______ _______ _____ _____    ______ ____
ROOT
ATOM      7  N   UNL     1      -2.880  -0.054  24.764  0.00  0.00    -0.162 NA
ATOM      8  C   UNL     1      -3.057  -0.859  24.722  0.00  0.00    +0.327 C 
ATOM      9  O   UNL     1      -3.835  -1.105  24.604  0.00  0.00    -0.250 OA
ATOM     10  N   UNL     1      -2.455  -1.419  24.797  0.00  0.00    -0.262 N 
ATOM     11  C   UNL     1      -2.089  -2.169  24.835  0.00  0.00    +0.097 C 
ATOM     12  C   UNL     1      -1.152  -1.888  24.976  0.00  0.00    +0.043 C 
ATOM     13  C   UNL     1      -0.348  -1.824  25.094  0.00  0.00    +0.011 C 
ATOM     14  C   UNL     1      -0.898  -1.394  25.023  0.00  0.00    +0.058 C 
ATOM     15  C   UNL     1      -1.799  -1.681  24.887  0.00  0.00    +0.101 C 
ATOM     16  C   UNL     1      -1.118  -0.502  25.010  0.00  0.00    +0.041 A 
ATOM     17  C   UNL     1      -0.773   0.244  25.075  0.00  0.00    +0.014 A 
ATOM     18  C   UNL     1      -1.241   0.922  25.021  0.00  0.00    +0.024 A 
ATOM     19  C   UNL     1      -2.054   0.853  24.902  0.00  0.00    +0.147 A 
ATOM     31  C   UNL     1      -2.400   0.107  24.837  0.00  0.00    +0.277 A 
ATOM     32  O   UNL     1      -3.099   0.534  24.744  0.00  0.00    -0.266 OA
ATOM     33  N   UNL     1      -1.932  -0.570  24.891  0.00  0.00    -0.298 N 
ATOM     34  C   UNL     1      -1.391  -0.959  24.961  0.00  0.00    +0.110 C 
ENDROOT
BRANCH   7   6
ATOM      3  C   UNL     1      -4.686   1.622  24.539  0.00  0.00    +0.139 A 
ATOM      4  C   UNL     1      -4.504   1.310  25.280  0.00  0.00    +0.038 A 
ATOM      5  C   UNL     1      -3.901   0.751  25.355  0.00  0.00    +0.020 A 
ATOM      6  C   UNL     1      -3.482   0.504  24.688  0.00  0.00    +0.075 A 
ATOM     35  C   UNL     1      -3.665   0.817  23.947  0.00  0.00    +0.020 A 
ATOM     36  C   UNL     1      -4.267   1.375  23.872  0.00  0.00    +0.038 A 
BRANCH   3   2
ATOM      1  C   UNL     1      -5.997   2.082  24.874  0.00  0.00    +0.252 C 
ATOM      2  O   UNL     1      -5.289   2.181  24.463  0.00  0.00    -0.471 OA
ENDBRANCH   3   2
ENDBRANCH   7   6
BRANCH  19  20
ATOM     20  N   UNL     1      -2.521   1.530  24.848  0.00  0.00    -0.092 NA
BRANCH  20  21
ATOM     21  S   UNL     1      -2.172   2.277  24.890  0.00  0.00    +0.093 S 
ATOM     22  O   UNL     1      -2.268   2.276  25.709  0.00  0.00    -0.148 OA
ATOM     23  O   UNL     1      -2.077   2.277  24.070  0.00  0.00    -0.148 OA
BRANCH  21  24
ATOM     24  C   UNL     1      -1.823   3.024  24.930  0.00  0.00    +0.127 A 
ATOM     25  C   UNL     1      -1.252   3.243  24.377  0.00  0.00    +0.021 A 
ATOM     26  C   UNL     1      -0.903   3.989  24.418  0.00  0.00    +0.013 A 
ATOM     27  C   UNL     1      -1.126   4.516  25.012  0.00  0.00    +0.058 A 
ATOM     28 CL   UNL     1      -0.778   5.263  25.053  0.00  0.00    -0.082 Cl
ATOM     29  C   UNL     1      -1.697   4.297  25.566  0.00  0.00    +0.013 A 
ATOM     30  C   UNL     1      -2.046   3.551  25.525  0.00  0.00    +0.021 A 
ENDBRANCH  21  24
ENDBRANCH  20  21
ENDBRANCH  19  20
TORSDOF 5
ENDMDL
