MODEL 1
REMARK VINA RESULT:     -10.4      0.000      0.000
REMARK  Name = 
REMARK  4 active torsions:
REMARK  status: ('A' for Active; 'I' for Inactive)
REMARK    1  A    between atoms: C_2  and  C_5
REMARK    2  A    between atoms: C_5  and  C_6
REMARK    3  A    between atoms: N_16  and  C_17
REMARK    4  A    between atoms: C_17  and  C_18
REMARK                            x       y       z     vdW  Elec       q    Type
REMARK                         _______ _______ _______ _____ _____    ______ ____
ROOT
ATOM      6  C   UNL     1      -3.434  -0.443  24.591  0.00  0.00    +0.226 C 
ATOM      7  O   UNL     1      -2.668  -0.655  24.370  0.00  0.00    -0.275 OA
ATOM      8  N   UNL     1      -3.624   0.352  24.712  0.00  0.00    -0.276 N 
ATOM      9  C   UNL     1      -4.390   0.564  24.933  0.00  0.00    +0.115 C 
ATOM     10  C   UNL     1      -4.579   1.357  25.053  0.00  0.00    +0.117 C 
ATOM     11  N   UNL     1      -4.003   1.939  24.953  0.00  0.00    -0.254 N 
ATOM     12  C   UNL     1      -3.237   1.727  24.733  0.00  0.00    +0.174 C 
ATOM     13  C   UNL     1      -3.047   0.933  24.612  0.00  0.00    +0.123 C 
ATOM     14  C   UNL     1      -2.788   2.416  24.676  0.00  0.00    +0.253 C 
ATOM     15  O   UNL     1      -1.990   2.460  24.469  0.00  0.00    -0.273 OA
ATOM     16  N   UNL     1      -3.276   3.055  24.861  0.00  0.00    -0.203 N 
ATOM     21  C   UNL     1      -4.027   2.759  25.033  0.00  0.00    +0.314 C 
ATOM     22  O   UNL     1      -4.686   3.207  25.247  0.00  0.00    -0.252 OA
ENDROOT
BRANCH   6   5
ATOM      5  C   UNL     1      -4.011  -1.024  24.691  0.00  0.00    +0.085 C 
BRANCH   5   2
ATOM      1  C   UNL     1      -3.639  -2.608  24.421  0.00  0.00    +0.000 C 
ATOM      2  C   UNL     1      -3.825  -1.817  24.556  0.00  0.00    +0.009 C 
ATOM      3  C   UNL     1      -3.498  -1.868  25.312  0.00  0.00    +0.000 C 
ATOM      4  C   UNL     1      -4.152  -1.764  23.800  0.00  0.00    +0.000 C 
ENDBRANCH   5   2
ENDBRANCH   6   5
BRANCH  16  17
ATOM     17  C   UNL     1      -3.053   3.849  24.873  0.00  0.00    +0.191 C 
BRANCH  17  18
ATOM     18  C   UNL     1      -2.636   4.151  25.518  0.00  0.00    +0.281 C 
ATOM     19  N   UNL     1      -1.871   4.442  25.416  0.00  0.00    -0.086 NA
ATOM     20  O   UNL     1      -2.987   4.162  26.266  0.00  0.00    -0.270 OA
ENDBRANCH  17  18
ENDBRANCH  16  17
TORSDOF 4
ENDMDL
MODEL 2
REMARK VINA RESULT:      -9.7      0.704      1.420
REMARK  Name = 
REMARK  4 active torsions:
REMARK  status: ('A' for Active; 'I' for Inactive)
REMARK    1  A    between atoms: C_2  and  C_5
REMARK    2  A    between atoms: C_5  and  C_6
REMARK    3  A    between atoms: N_16  and  C_17
REMARK    4  A    between atoms: C_17  and  C_18
REMARK                            x       y       z     vdW  Elec       q    Type
REMARK                         _______ _______ _______ _____ _____    ______ ____
ROOT
ATOM      6  C   UNL     1      -3.629  -0.393  24.627  0.00  0.00    +0.226 C 
ATOM      7  O   UNL     1      -4.366  -0.455  24.992  0.00  0.00    -0.275 OA
ATOM      8  N   UNL     1      -3.267   0.346  24.549  0.00  0.00    -0.276 N 
ATOM      9  C   UNL     1      -2.530   0.407  24.183  0.00  0.00    +0.115 C 
ATOM     10  C   UNL     1      -2.170   1.145  24.106  0.00  0.00    +0.117 C 
ATOM     11  N   UNL     1      -2.545   1.821  24.393  0.00  0.00    -0.254 N 
ATOM     12  C   UNL     1      -3.282   1.759  24.758  0.00  0.00    +0.174 C 
ATOM     13  C   UNL     1      -3.644   1.021  24.836  0.00  0.00    +0.123 C 
ATOM     14  C   UNL     1      -3.519   2.515  24.985  0.00  0.00    +0.253 C 
ATOM     15  O   UNL     1      -4.223   2.709  25.370  0.00  0.00    -0.273 OA
ATOM     16  N   UNL     1      -2.928   3.045  24.761  0.00  0.00    -0.203 N 
ATOM     21  C   UNL     1      -2.327   2.615  24.395  0.00  0.00    +0.314 C 
ATOM     22  O   UNL     1      -1.628   2.927  24.085  0.00  0.00    -0.252 OA
ENDROOT
BRANCH   6   5
ATOM      5  C   UNL     1      -3.252  -1.068  24.340  0.00  0.00    +0.085 C 
BRANCH   5   2
ATOM      1  C   UNL     1      -3.969  -2.545  24.507  0.00  0.00    +0.000 C 
ATOM      2  C   UNL     1      -3.611  -1.807  24.423  0.00  0.00    +0.009 C 
ATOM      3  C   UNL     1      -4.058  -1.666  23.744  0.00  0.00    +0.000 C 
ATOM      4  C   UNL     1      -3.164  -1.947  25.102  0.00  0.00    +0.000 C 
ENDBRANCH   5   2
ENDBRANCH   6   5
BRANCH  16  17
ATOM     17  C   UNL     1      -2.936   3.861  24.882  0.00  0.00    +0.191 C 
BRANCH  17  18
ATOM     18  C   UNL     1      -2.530   4.189  25.521  0.00  0.00    +0.281 C 
ATOM     19  N   UNL     1      -1.829   4.605  25.395  0.00  0.00    -0.086 NA
ATOM     20  O   UNL     1      -2.826   4.099  26.286  0.00  0.00    -0.270 OA
ENDBRANCH  17  18
ENDBRANCH  16  17
TORSDOF 4
ENDMDL
MODEL 3
REMARK VINA RESULT:      -9.1      1.481      4.758
REMARK  Name = 
REMARK  4 active torsions:
REMARK  status: ('A' for Active; 'I' for Inactive)
REMARK    1  A    between atoms: C_2  and  C_5
REMARK    2  A    between atoms: C_5  and  C_6
REMARK    3  A    between atoms: N_16  and  C_17
REMARK    4  A    between atoms: C_17  and  C_18
REMARK                            x       y       z     vdW  Elec       q    Type
REMARK                         _______ _______ _______ _____ _____    ______ ____
ROOT
ATOM      6  C   UNL     1      -1.955   2.891  24.967  0.00  0.00    +0.226 C 
ATOM      7  O   UNL     1      -2.541   3.223  24.490  0.00  0.00    -0.275 OA
ATOM      8  N   UNL     1      -1.896   2.070  25.038  0.00  0.00    -0.276 N 
ATOM      9  C   UNL     1      -1.311   1.739  25.515  0.00  0.00    +0.115 C 
ATOM     10  C   UNL     1      -1.252   0.919  25.586  0.00  0.00    +0.117 C 
ATOM     11  N   UNL     1      -1.779   0.431  25.180  0.00  0.00    -0.254 N 
ATOM     12  C   UNL     1      -2.364   0.763  24.702  0.00  0.00    +0.174 C 
ATOM     13  C   UNL     1      -2.423   1.583  24.631  0.00  0.00    +0.123 C 
ATOM     14  C   UNL     1      -2.802   0.148  24.371  0.00  0.00    +0.253 C 
ATOM     15  O   UNL     1      -3.442   0.230  23.857  0.00  0.00    -0.273 OA
ATOM     16  N   UNL     1      -2.487  -0.565  24.643  0.00  0.00    -0.203 N 
ATOM     21  C   UNL     1      -1.855  -0.389  25.142  0.00  0.00    +0.314 C 
ATOM     22  O   UNL     1      -1.381  -0.938  25.536  0.00  0.00    -0.252 OA
ENDROOT
BRANCH   6   5
ATOM      5  C   UNL     1      -1.429   3.378  25.374  0.00  0.00    +0.085 C 
BRANCH   5   2
ATOM      1  C   UNL     1      -1.499   5.015  25.174  0.00  0.00    +0.000 C 
ATOM      2  C   UNL     1      -1.464   4.197  25.274  0.00  0.00    +0.009 C 
ATOM      3  C   UNL     1      -0.828   4.160  24.749  0.00  0.00    +0.000 C 
ATOM      4  C   UNL     1      -2.100   4.233  25.799  0.00  0.00    +0.000 C 
ENDBRANCH   5   2
ENDBRANCH   6   5
BRANCH  16  17
ATOM     17  C   UNL     1      -2.757  -1.320  24.449  0.00  0.00    +0.191 C 
BRANCH  17  18
ATOM     18  C   UNL     1      -3.451  -1.610  24.788  0.00  0.00    +0.281 C 
ATOM     19  N   UNL     1      -4.107  -1.771  24.315  0.00  0.00    -0.086 NA
ATOM     20  O   UNL     1      -3.488  -1.740  25.603  0.00  0.00    -0.270 OA
ENDBRANCH  17  18
ENDBRANCH  16  17
TORSDOF 4
ENDMDL
