REMARK  Name = 
REMARK  6 active torsions:
REMARK  status: ('A' for Active; 'I' for Inactive)
REMARK    1  A    between atoms: O_2  and  C_3
REMARK    2  A    between atoms: C_6  and  C_9
REMARK    3  A    between atoms: C_11  and  C_12
REMARK    4  A    between atoms: C_12  and  C_13
REMARK    5  A    between atoms: C_13  and  N_17
REMARK    6  A    between atoms: N_17  and  C_18
REMARK                            x       y       z     vdW  Elec       q    Type
REMARK                         _______ _______ _______ _____ _____    ______ ____
ROOT
ATOM      9  C   UNL     1       2.350   1.584   0.000  0.00  0.00    +0.177 A 
ATOM     10  C   UNL     1       2.393   0.760   0.000  0.00  0.00    +0.058 A 
ATOM     11  C   UNL     1       1.623   0.465   0.000  0.00  0.00    +0.102 A 
ATOM     25  N   UNL     1       1.103   1.106   0.000  0.00  0.00    -0.081 NA
ATOM     26  O   UNL     1       1.553   1.798   0.000  0.00  0.00    -0.354 OA
ENDROOT
BRANCH   9   6
ATOM      3  C   UNL     1       4.273   3.142   0.000  0.00  0.00    +0.139 A 
ATOM      4  C   UNL     1       4.402   2.327   0.000  0.00  0.00    +0.037 A 
ATOM      5  C   UNL     1       3.761   1.808   0.000  0.00  0.00    +0.006 A 
ATOM      6  C   UNL     1       2.991   2.103   0.000  0.00  0.00    +0.037 A 
ATOM      7  C   UNL     1       2.862   2.918   0.000  0.00  0.00    +0.006 A 
ATOM      8  C   UNL     1       3.503   3.437   0.000  0.00  0.00    +0.037 A 
BRANCH   3   2
ATOM      1  C   UNL     1       4.785   4.476   0.000  0.00  0.00    +0.252 C 
ATOM      2  O   UNL     1       4.914   3.661   0.000  0.00  0.00    -0.471 OA
ENDBRANCH   3   2
ENDBRANCH   9   6
BRANCH  11  12
ATOM     12  C   UNL     1       1.409  -0.332   0.000  0.00  0.00    +0.070 C 
BRANCH  12  13
ATOM     13  C   UNL     1       1.992  -0.916   0.000  0.00  0.00    +0.119 C 
ATOM     14  C   UNL     1       2.576  -1.499   0.000  0.00  0.00    +0.161 C 
ATOM     15  O   UNL     1       1.992  -2.082   0.000  0.00  0.00    -0.351 OA
ATOM     16  C   UNL     1       1.409  -1.499   0.000  0.00  0.00    +0.161 C 
BRANCH  13  17
ATOM     17  N   UNL     1       2.576  -0.332   0.000  0.00  0.00    -0.217 NA
BRANCH  17  18
ATOM     18  C   UNL     1       3.373  -0.546   0.000  0.00  0.00    +0.076 C 
ATOM     19  C   UNL     1       3.956   0.037   0.000  0.00  0.00    +0.035 C 
ATOM     20  C   UNL     1       4.753  -0.176   0.000  0.00  0.00    +0.074 C 
ATOM     21  N   UNL     1       4.966  -0.973   0.000  0.00  0.00    -0.271 NA
ATOM     22  C   UNL     1       5.763  -1.186   0.000  0.00  0.00    +0.090 C 
ATOM     23  C   UNL     1       4.383  -1.556   0.000  0.00  0.00    +0.074 C 
ATOM     24  C   UNL     1       3.586  -1.343   0.000  0.00  0.00    +0.035 C 
ENDBRANCH  17  18
ENDBRANCH  13  17
ENDBRANCH  12  13
ENDBRANCH  11  12
TORSDOF 6
