MODEL 1
REMARK VINA RESULT:     -12.8      0.000      0.000
REMARK  Name = 
REMARK  2 active torsions:
REMARK  status: ('A' for Active; 'I' for Inactive)
REMARK    1  A    between atoms: C_4  and  C_8
REMARK    2  A    between atoms: C_22  and  C_27
REMARK                            x       y       z     vdW  Elec       q    Type
REMARK                         _______ _______ _______ _____ _____    ______ ____
ROOT
ATOM      8  C   UNL     1      -3.977  -1.354  24.226  0.00  0.00    +0.249 C 
ATOM      9  O   UNL     1      -4.711  -1.423  23.855  0.00  0.00    -0.270 OA
ATOM     10  N   UNL     1      -3.637  -0.611  24.335  0.00  0.00    -0.272 N 
ATOM     11  C   UNL     1      -4.031   0.065  24.074  0.00  0.00    +0.115 C 
ATOM     12  C   UNL     1      -3.692   0.809  24.183  0.00  0.00    +0.116 C 
ATOM     13  N   UNL     1      -2.957   0.877  24.554  0.00  0.00    -0.266 N 
ATOM     14  C   UNL     1      -2.564   0.201  24.815  0.00  0.00    +0.174 C 
ATOM     15  C   UNL     1      -2.903  -0.543  24.706  0.00  0.00    +0.123 C 
ATOM     16  C   UNL     1      -1.833   0.146  25.195  0.00  0.00    +0.265 C 
ATOM     17  O   UNL     1      -1.587  -0.617  25.389  0.00  0.00    -0.271 OA
ATOM     18  N   UNL     1      -1.316   0.753  25.407  0.00  0.00    -0.178 NA
ATOM     19  C   UNL     1      -1.403   1.565  25.292  0.00  0.00    +0.078 A 
ATOM     20  C   UNL     1      -0.755   1.983  25.588  0.00  0.00    +0.017 A 
ATOM     21  C   UNL     1      -0.731   2.804  25.527  0.00  0.00    +0.001 A 
ATOM     22  C   UNL     1      -1.355   3.210  25.171  0.00  0.00    +0.000 A 
ATOM     23  C   UNL     1      -2.003   2.794  24.875  0.00  0.00    +0.006 A 
ATOM     24  C   UNL     1      -2.026   1.971  24.936  0.00  0.00    +0.069 A 
ATOM     25  C   UNL     1      -2.718   1.664  24.607  0.00  0.00    +0.251 C 
ATOM     26  O   UNL     1      -3.240   2.219  24.290  0.00  0.00    -0.270 OA
ENDROOT
BRANCH   8   4
ATOM      1  F   UNL     1      -2.135  -3.487  23.748  0.00  0.00    -0.204 F 
ATOM      2  C   UNL     1      -2.662  -3.097  24.248  0.00  0.00    +0.140 A 
ATOM      3  C   UNL     1      -3.056  -2.421  23.987  0.00  0.00    +0.034 A 
ATOM      4  C   UNL     1      -3.583  -2.031  24.488  0.00  0.00    +0.056 A 
ATOM      5  C   UNL     1      -3.716  -2.317  25.250  0.00  0.00    +0.005 A 
ATOM      6  C   UNL     1      -3.322  -2.993  25.512  0.00  0.00    +0.002 A 
ATOM      7  C   UNL     1      -2.795  -3.383  25.011  0.00  0.00    +0.030 A 
ENDBRANCH   8   4
BRANCH  22  27
ATOM     27  C   UNL     1      -1.331   4.033  25.111  0.00  0.00    +0.000 A 
ATOM     28  C   UNL     1      -0.703   4.400  24.723  0.00  0.00    +0.001 A 
ATOM     29  C   UNL     1      -0.679   5.223  24.663  0.00  0.00    +0.011 A 
ATOM     30  C   UNL     1      -1.284   5.678  24.992  0.00  0.00    +0.058 A 
ATOM     31 CL   UNL     1      -1.260   6.501  24.932  0.00  0.00    -0.082 Cl
ATOM     32  C   UNL     1      -1.912   5.311  25.380  0.00  0.00    +0.011 A 
ATOM     33  C   UNL     1      -1.936   4.488  25.440  0.00  0.00    +0.001 A 
ENDBRANCH  22  27
TORSDOF 2
ENDMDL
MODEL 2
REMARK VINA RESULT:     -12.6      2.673      6.120
REMARK  Name = 
REMARK  2 active torsions:
REMARK  status: ('A' for Active; 'I' for Inactive)
REMARK    1  A    between atoms: C_4  and  C_8
REMARK    2  A    between atoms: C_22  and  C_27
REMARK                            x       y       z     vdW  Elec       q    Type
REMARK                         _______ _______ _______ _____ _____    ______ ____
ROOT
ATOM      8  C   UNL     1      -0.506   3.467  25.371  0.00  0.00    +0.249 C 
ATOM      9  O   UNL     1       0.264   3.442  25.667  0.00  0.00    -0.270 OA
ATOM     10  N   UNL     1      -0.921   2.767  25.240  0.00  0.00    -0.272 N 
ATOM     11  C   UNL     1      -0.567   2.040  25.404  0.00  0.00    +0.115 C 
ATOM     12  C   UNL     1      -0.981   1.339  25.273  0.00  0.00    +0.116 C 
ATOM     13  N   UNL     1      -1.752   1.366  24.977  0.00  0.00    -0.266 N 
ATOM     14  C   UNL     1      -2.106   2.092  24.813  0.00  0.00    +0.174 C 
ATOM     15  C   UNL     1      -1.691   2.793  24.944  0.00  0.00    +0.123 C 
ATOM     16  C   UNL     1      -2.862   2.240  24.518  0.00  0.00    +0.265 C 
ATOM     17  O   UNL     1      -3.055   3.035  24.412  0.00  0.00    -0.271 OA
ATOM     18  N   UNL     1      -3.450   1.699  24.314  0.00  0.00    -0.178 NA
ATOM     19  C   UNL     1      -3.427   0.875  24.355  0.00  0.00    +0.078 A 
ATOM     20  C   UNL     1      -4.137   0.540  24.097  0.00  0.00    +0.017 A 
ATOM     21  C   UNL     1      -4.229  -0.279  24.095  0.00  0.00    +0.001 A 
ATOM     22  C   UNL     1      -3.613  -0.765  24.350  0.00  0.00    +0.000 A 
ATOM     23  C   UNL     1      -2.903  -0.430  24.608  0.00  0.00    +0.006 A 
ATOM     24  C   UNL     1      -2.812   0.389  24.610  0.00  0.00    +0.069 A 
ATOM     25  C   UNL     1      -2.065   0.608  24.888  0.00  0.00    +0.251 C 
ATOM     26  O   UNL     1      -1.568  -0.013  25.103  0.00  0.00    -0.270 OA
ENDROOT
BRANCH   8   4
ATOM      1  F   UNL     1      -2.408   5.498  26.025  0.00  0.00    -0.204 F 
ATOM      2  C   UNL     1      -1.812   5.209  25.534  0.00  0.00    +0.140 A 
ATOM      3  C   UNL     1      -1.457   4.483  25.698  0.00  0.00    +0.034 A 
ATOM      4  C   UNL     1      -0.860   4.195  25.206  0.00  0.00    +0.056 A 
ATOM      5  C   UNL     1      -0.618   4.633  24.551  0.00  0.00    +0.005 A 
ATOM      6  C   UNL     1      -0.972   5.359  24.386  0.00  0.00    +0.002 A 
ATOM      7  C   UNL     1      -1.569   5.647  24.878  0.00  0.00    +0.030 A 
ENDBRANCH   8   4
BRANCH  22  27
ATOM     27  C   UNL     1      -3.706  -1.584  24.347  0.00  0.00    +0.000 A 
ATOM     28  C   UNL     1      -3.439  -2.032  24.986  0.00  0.00    +0.001 A 
ATOM     29  C   UNL     1      -3.532  -2.852  24.983  0.00  0.00    +0.011 A 
ATOM     30  C   UNL     1      -3.892  -3.224  24.340  0.00  0.00    +0.058 A 
ATOM     31 CL   UNL     1      -3.985  -4.044  24.337  0.00  0.00    -0.082 Cl
ATOM     32  C   UNL     1      -4.158  -2.776  23.700  0.00  0.00    +0.011 A 
ATOM     33  C   UNL     1      -4.065  -1.956  23.703  0.00  0.00    +0.001 A 
ENDBRANCH  22  27
TORSDOF 2
ENDMDL
MODEL 3
REMARK VINA RESULT:     -11.8      3.008      4.481
REMARK  Name = 
REMARK  2 active torsions:
REMARK  status: ('A' for Active; 'I' for Inactive)
REMARK    1  A    between atoms: C_4  and  C_8
REMARK    2  A    between atoms: C_22  and  C_27
REMARK                            x       y       z     vdW  Elec       q    Type
REMARK                         _______ _______ _______ _____ _____    ______ ____
ROOT
ATOM      8  C   UNL     1      -4.422   3.185  24.681  0.00  0.00    +0.249 C 
ATOM      9  O   UNL     1      -4.547   3.973  24.470  0.00  0.00    -0.270 OA
ATOM     10  N   UNL     1      -3.710   2.815  24.492  0.00  0.00    -0.272 N 
ATOM     11  C   UNL     1      -3.122   3.232  24.092  0.00  0.00    +0.115 C 
ATOM     12  C   UNL     1      -2.409   2.862  23.902  0.00  0.00    +0.116 C 
ATOM     13  N   UNL     1      -2.285   2.074  24.115  0.00  0.00    -0.266 N 
ATOM     14  C   UNL     1      -2.873   1.657  24.515  0.00  0.00    +0.174 C 
ATOM     15  C   UNL     1      -3.585   2.028  24.704  0.00  0.00    +0.123 C 
ATOM     16  C   UNL     1      -2.861   0.874  24.775  0.00  0.00    +0.265 C 
ATOM     17  O   UNL     1      -3.542   0.616  25.163  0.00  0.00    -0.271 OA
ATOM     18  N   UNL     1      -2.259   0.315  24.699  0.00  0.00    -0.178 NA
ATOM     19  C   UNL     1      -1.520   0.401  24.344  0.00  0.00    +0.078 A 
ATOM     20  C   UNL     1      -1.082  -0.297  24.387  0.00  0.00    +0.017 A 
ATOM     21  C   UNL     1      -0.324  -0.328  24.063  0.00  0.00    +0.001 A 
ATOM     22  C   UNL     1      -0.004   0.337  23.696  0.00  0.00    +0.000 A 
ATOM     23  C   UNL     1      -0.442   1.036  23.653  0.00  0.00    +0.006 A 
ATOM     24  C   UNL     1      -1.200   1.067  23.977  0.00  0.00    +0.069 A 
ATOM     25  C   UNL     1      -1.540   1.812  23.875  0.00  0.00    +0.251 C 
ATOM     26  O   UNL     1      -1.075   2.367  23.481  0.00  0.00    -0.270 OA
ENDROOT
BRANCH   8   4
ATOM      1  F   UNL     1      -6.699   1.459  24.637  0.00  0.00    -0.204 F 
ATOM      2  C   UNL     1      -6.149   1.905  25.059  0.00  0.00    +0.140 A 
ATOM      3  C   UNL     1      -5.561   2.322  24.659  0.00  0.00    +0.034 A 
ATOM      4  C   UNL     1      -5.011   2.768  25.083  0.00  0.00    +0.056 A 
ATOM      5  C   UNL     1      -5.049   2.797  25.906  0.00  0.00    +0.005 A 
ATOM      6  C   UNL     1      -5.637   2.380  26.307  0.00  0.00    +0.002 A 
ATOM      7  C   UNL     1      -6.187   1.934  25.883  0.00  0.00    +0.030 A 
ENDBRANCH   8   4
BRANCH  22  27
ATOM     27  C   UNL     1       0.755   0.305  23.373  0.00  0.00    +0.000 A 
ATOM     28  C   UNL     1       1.351   0.790  23.671  0.00  0.00    +0.001 A 
ATOM     29  C   UNL     1       2.110   0.758  23.347  0.00  0.00    +0.011 A 
ATOM     30  C   UNL     1       2.271   0.240  22.724  0.00  0.00    +0.058 A 
ATOM     31 CL   UNL     1       3.029   0.208  22.401  0.00  0.00    -0.082 Cl
ATOM     32  C   UNL     1       1.674  -0.245  22.426  0.00  0.00    +0.011 A 
ATOM     33  C   UNL     1       0.916  -0.213  22.750  0.00  0.00    +0.001 A 
ENDBRANCH  22  27
TORSDOF 2
ENDMDL
MODEL 4
REMARK VINA RESULT:      -9.7      3.536      5.053
REMARK  Name = 
REMARK  2 active torsions:
REMARK  status: ('A' for Active; 'I' for Inactive)
REMARK    1  A    between atoms: C_4  and  C_8
REMARK    2  A    between atoms: C_22  and  C_27
REMARK                            x       y       z     vdW  Elec       q    Type
REMARK                         _______ _______ _______ _____ _____    ______ ____
ROOT
ATOM      8  C   UNL     1      -2.410   3.008  25.087  0.00  0.00    +0.249 C 
ATOM      9  O   UNL     1      -2.392   3.670  25.580  0.00  0.00    -0.270 OA
ATOM     10  N   UNL     1      -1.706   2.667  24.828  0.00  0.00    -0.272 N 
ATOM     11  C   UNL     1      -0.982   2.986  25.061  0.00  0.00    +0.115 C 
ATOM     12  C   UNL     1      -0.277   2.645  24.802  0.00  0.00    +0.116 C 
ATOM     13  N   UNL     1      -0.296   1.983  24.309  0.00  0.00    -0.266 N 
ATOM     14  C   UNL     1      -1.020   1.664  24.076  0.00  0.00    +0.174 C 
ATOM     15  C   UNL     1      -1.725   2.005  24.335  0.00  0.00    +0.123 C 
ATOM     16  C   UNL     1      -1.161   1.011  23.591  0.00  0.00    +0.265 C 
ATOM     17  O   UNL     1      -1.955   0.829  23.460  0.00  0.00    -0.271 OA
ATOM     18  N   UNL     1      -0.614   0.518  23.219  0.00  0.00    -0.178 NA
ATOM     19  C   UNL     1       0.209   0.555  23.241  0.00  0.00    +0.078 A 
ATOM     20  C   UNL     1       0.551  -0.046  22.791  0.00  0.00    +0.017 A 
ATOM     21  C   UNL     1       1.371  -0.108  22.739  0.00  0.00    +0.001 A 
ATOM     22  C   UNL     1       1.852   0.431  23.138  0.00  0.00    +0.000 A 
ATOM     23  C   UNL     1       1.511   1.033  23.589  0.00  0.00    +0.006 A 
ATOM     24  C   UNL     1       0.690   1.094  23.640  0.00  0.00    +0.069 A 
ATOM     25  C   UNL     1       0.464   1.730  24.115  0.00  0.00    +0.251 C 
ATOM     26  O   UNL     1       1.082   2.171  24.440  0.00  0.00    -0.270 OA
ENDROOT
BRANCH   8   4
ATOM      1  F   UNL     1      -4.553   1.164  25.509  0.00  0.00    -0.204 F 
ATOM      2  C   UNL     1      -4.205   1.766  25.065  0.00  0.00    +0.140 A 
ATOM      3  C   UNL     1      -3.482   2.086  25.298  0.00  0.00    +0.034 A 
ATOM      4  C   UNL     1      -3.135   2.688  24.853  0.00  0.00    +0.056 A 
ATOM      5  C   UNL     1      -3.511   2.971  24.176  0.00  0.00    +0.005 A 
ATOM      6  C   UNL     1      -4.235   2.651  23.943  0.00  0.00    +0.002 A 
ATOM      7  C   UNL     1      -4.582   2.049  24.387  0.00  0.00    +0.030 A 
ENDBRANCH   8   4
BRANCH  22  27
ATOM     27  C   UNL     1       2.673   0.369  23.086  0.00  0.00    +0.000 A 
ATOM     28  C   UNL     1       3.052  -0.314  23.350  0.00  0.00    +0.001 A 
ATOM     29  C   UNL     1       3.873  -0.376  23.298  0.00  0.00    +0.011 A 
ATOM     30  C   UNL     1       4.315   0.246  22.982  0.00  0.00    +0.058 A 
ATOM     31 CL   UNL     1       5.136   0.184  22.930  0.00  0.00    -0.082 Cl
ATOM     32  C   UNL     1       3.935   0.929  22.718  0.00  0.00    +0.011 A 
ATOM     33  C   UNL     1       3.114   0.991  22.770  0.00  0.00    +0.001 A 
ENDBRANCH  22  27
TORSDOF 2
ENDMDL
MODEL 5
REMARK VINA RESULT:      -9.7      2.911      4.276
REMARK  Name = 
REMARK  2 active torsions:
REMARK  status: ('A' for Active; 'I' for Inactive)
REMARK    1  A    between atoms: C_4  and  C_8
REMARK    2  A    between atoms: C_22  and  C_27
REMARK                            x       y       z     vdW  Elec       q    Type
REMARK                         _______ _______ _______ _____ _____    ______ ____
ROOT
ATOM      8  C   UNL     1       0.535  -0.664  23.892  0.00  0.00    +0.249 C 
ATOM      9  O   UNL     1       0.739  -1.364  24.277  0.00  0.00    -0.270 OA
ATOM     10  N   UNL     1      -0.184  -0.296  24.058  0.00  0.00    -0.272 N 
ATOM     11  C   UNL     1      -0.700  -0.629  24.609  0.00  0.00    +0.115 C 
ATOM     12  C   UNL     1      -1.420  -0.262  24.775  0.00  0.00    +0.116 C 
ATOM     13  N   UNL     1      -1.624   0.439  24.390  0.00  0.00    -0.266 N 
ATOM     14  C   UNL     1      -1.108   0.772  23.839  0.00  0.00    +0.174 C 
ATOM     15  C   UNL     1      -0.388   0.405  23.673  0.00  0.00    +0.123 C 
ATOM     16  C   UNL     1      -1.203   1.462  23.397  0.00  0.00    +0.265 C 
ATOM     17  O   UNL     1      -0.582   1.650  22.888  0.00  0.00    -0.271 OA
ATOM     18  N   UNL     1      -1.838   1.989  23.397  0.00  0.00    -0.178 NA
ATOM     19  C   UNL     1      -2.534   1.957  23.838  0.00  0.00    +0.078 A 
ATOM     20  C   UNL     1      -3.028   2.597  23.671  0.00  0.00    +0.017 A 
ATOM     21  C   UNL     1      -3.754   2.669  24.055  0.00  0.00    +0.001 A 
ATOM     22  C   UNL     1      -3.987   2.101  24.606  0.00  0.00    +0.000 A 
ATOM     23  C   UNL     1      -3.494   1.460  24.774  0.00  0.00    +0.006 A 
ATOM     24  C   UNL     1      -2.768   1.389  24.389  0.00  0.00    +0.069 A 
ATOM     25  C   UNL     1      -2.362   0.713  24.635  0.00  0.00    +0.251 C 
ATOM     26  O   UNL     1      -2.746   0.251  25.200  0.00  0.00    -0.270 OA
ENDROOT
BRANCH   8   4
ATOM      1  F   UNL     1       1.473  -0.435  21.202  0.00  0.00    -0.204 F 
ATOM      2  C   UNL     1       1.520  -0.217  21.996  0.00  0.00    +0.140 A 
ATOM      3  C   UNL     1       1.004  -0.549  22.547  0.00  0.00    +0.034 A 
ATOM      4  C   UNL     1       1.052  -0.330  23.341  0.00  0.00    +0.056 A 
ATOM      5  C   UNL     1       1.614   0.221  23.584  0.00  0.00    +0.005 A 
ATOM      6  C   UNL     1       2.130   0.555  23.033  0.00  0.00    +0.002 A 
ATOM      7  C   UNL     1       2.083   0.335  22.239  0.00  0.00    +0.030 A 
ENDBRANCH   8   4
BRANCH  22  27
ATOM     27  C   UNL     1      -4.714   2.174  24.990  0.00  0.00    +0.000 A 
ATOM     28  C   UNL     1      -5.345   1.688  24.775  0.00  0.00    +0.001 A 
ATOM     29  C   UNL     1      -6.071   1.761  25.158  0.00  0.00    +0.011 A 
ATOM     30  C   UNL     1      -6.167   2.319  25.759  0.00  0.00    +0.058 A 
ATOM     31 CL   UNL     1      -6.893   2.392  26.143  0.00  0.00    -0.082 Cl
ATOM     32  C   UNL     1      -5.536   2.805  25.975  0.00  0.00    +0.011 A 
ATOM     33  C   UNL     1      -4.809   2.732  25.591  0.00  0.00    +0.001 A 
ENDBRANCH  22  27
TORSDOF 2
ENDMDL
MODEL 6
REMARK VINA RESULT:      -9.5     14.425     16.510
REMARK  Name = 
REMARK  2 active torsions:
REMARK  status: ('A' for Active; 'I' for Inactive)
REMARK    1  A    between atoms: C_4  and  C_8
REMARK    2  A    between atoms: C_22  and  C_27
REMARK                            x       y       z     vdW  Elec       q    Type
REMARK                         _______ _______ _______ _____ _____    ______ ____
ROOT
ATOM      8  C   UNL     1      -2.760 -10.418  11.552  0.00  0.00    +0.249 C 
ATOM      9  O   UNL     1      -1.961 -10.617  11.497  0.00  0.00    -0.270 OA
ATOM     10  N   UNL     1      -3.138 -10.428  12.285  0.00  0.00    -0.272 N 
ATOM     11  C   UNL     1      -2.718 -10.637  12.963  0.00  0.00    +0.115 C 
ATOM     12  C   UNL     1      -3.095 -10.648  13.696  0.00  0.00    +0.116 C 
ATOM     13  N   UNL     1      -3.895 -10.449  13.751  0.00  0.00    -0.266 N 
ATOM     14  C   UNL     1      -4.315 -10.240  13.073  0.00  0.00    +0.174 C 
ATOM     15  C   UNL     1      -3.937 -10.229  12.340  0.00  0.00    +0.123 C 
ATOM     16  C   UNL     1      -5.109 -10.024  13.006  0.00  0.00    +0.265 C 
ATOM     17  O   UNL     1      -5.367  -9.844  12.244  0.00  0.00    -0.271 OA
ATOM     18  N   UNL     1      -5.678  -9.964  13.601  0.00  0.00    -0.178 NA
ATOM     19  C   UNL     1      -5.593 -10.106  14.409  0.00  0.00    +0.078 A 
ATOM     20  C   UNL     1      -6.303  -9.982  14.812  0.00  0.00    +0.017 A 
ATOM     21  C   UNL     1      -6.338 -10.093  15.628  0.00  0.00    +0.001 A 
ATOM     22  C   UNL     1      -5.665 -10.329  16.042  0.00  0.00    +0.000 A 
ATOM     23  C   UNL     1      -4.955 -10.454  15.639  0.00  0.00    +0.006 A 
ATOM     24  C   UNL     1      -4.920 -10.342  14.822  0.00  0.00    +0.069 A 
ATOM     25  C   UNL     1      -4.164 -10.494  14.529  0.00  0.00    +0.251 C 
ATOM     26  O   UNL     1      -3.603 -10.723  15.089  0.00  0.00    -0.270 OA
ENDROOT
BRANCH   8   4
ATOM      1  F   UNL     1      -3.591  -8.435   9.670  0.00  0.00    -0.204 F 
ATOM      2  C   UNL     1      -3.596  -9.216   9.932  0.00  0.00    +0.140 A 
ATOM      3  C   UNL     1      -3.176  -9.426  10.610  0.00  0.00    +0.034 A 
ATOM      4  C   UNL     1      -3.181 -10.208  10.873  0.00  0.00    +0.056 A 
ATOM      5  C   UNL     1      -3.605 -10.780  10.458  0.00  0.00    +0.005 A 
ATOM      6  C   UNL     1      -4.026 -10.571   9.780  0.00  0.00    +0.002 A 
ATOM      7  C   UNL     1      -4.021  -9.789   9.517  0.00  0.00    +0.030 A 
ENDBRANCH   8   4
BRANCH  22  27
ATOM     27  C   UNL     1      -5.700 -10.441  16.859  0.00  0.00    +0.000 A 
ATOM     28  C   UNL     1      -5.015 -10.384  17.313  0.00  0.00    +0.001 A 
ATOM     29  C   UNL     1      -5.050 -10.496  18.130  0.00  0.00    +0.011 A 
ATOM     30  C   UNL     1      -5.773 -10.664  18.492  0.00  0.00    +0.058 A 
ATOM     31 CL   UNL     1      -5.808 -10.776  19.309  0.00  0.00    -0.082 Cl
ATOM     32  C   UNL     1      -6.459 -10.722  18.038  0.00  0.00    +0.011 A 
ATOM     33  C   UNL     1      -6.423 -10.610  17.221  0.00  0.00    +0.001 A 
ENDBRANCH  22  27
TORSDOF 2
ENDMDL
