MODEL 1
REMARK VINA RESULT:     -16.8      0.000      0.000
REMARK  Name = 
REMARK  2 active torsions:
REMARK  status: ('A' for Active; 'I' for Inactive)
REMARK    1  A    between atoms: C_7  and  N_10
REMARK    2  A    between atoms: C_19  and  C_20
REMARK                            x       y       z     vdW  Elec       q    Type
REMARK                         _______ _______ _______ _____ _____    ______ ____
ROOT
ATOM     10  N   UNL     1      -3.322   2.851  24.824  0.00  0.00    -0.273 NA
ATOM     11  C   UNL     1      -3.429   3.678  24.873  0.00  0.00    +0.074 C 
ATOM     12  C   UNL     1      -4.395   3.708  25.080  0.00  0.00    +0.039 C 
ATOM     13  C   UNL     1      -5.167   3.901  25.252  0.00  0.00    +0.011 C 
ATOM     14  C   UNL     1      -4.787   3.319  25.152  0.00  0.00    +0.054 C 
ATOM     15  C   UNL     1      -3.854   3.307  24.952  0.00  0.00    +0.078 C 
ATOM     16  C   UNL     1      -4.862   2.403  25.140  0.00  0.00    +0.041 A 
ATOM     17  C   UNL     1      -5.420   1.804  25.241  0.00  0.00    +0.013 A 
ATOM     18  C   UNL     1      -5.195   1.014  25.168  0.00  0.00    +0.006 A 
ATOM     19  C   UNL     1      -4.412   0.822  24.994  0.00  0.00    +0.062 A 
ATOM     29  C   UNL     1      -3.853   1.421  24.893  0.00  0.00    +0.261 A 
ATOM     30  O   UNL     1      -3.333   0.795  24.762  0.00  0.00    -0.267 OA
ATOM     31  N   UNL     1      -4.078   2.211  24.966  0.00  0.00    -0.299 N 
ATOM     32  C   UNL     1      -4.463   2.750  25.065  0.00  0.00    +0.110 C 
ENDROOT
BRANCH  10   7
ATOM      1  C   UNL     1      -1.402  -0.399  25.040  0.00  0.00    +0.095 C 
ATOM      2  C   UNL     1      -1.771  -0.031  24.401  0.00  0.00    +0.226 C 
ATOM      3  O   UNL     1      -1.753  -0.385  23.655  0.00  0.00    -0.275 OA
ATOM      4  N   UNL     1      -2.159   0.689  24.506  0.00  0.00    -0.279 N 
ATOM      5  C   UNL     1      -2.528   1.057  23.867  0.00  0.00    +0.095 C 
ATOM      6  C   UNL     1      -2.915   1.777  23.972  0.00  0.00    +0.038 C 
ATOM      7  C   UNL     1      -2.934   2.130  24.718  0.00  0.00    +0.061 C 
ATOM      8  C   UNL     1      -2.565   1.763  25.357  0.00  0.00    +0.038 C 
ATOM      9  C   UNL     1      -2.177   1.042  25.252  0.00  0.00    +0.095 C 
ENDBRANCH  10   7
BRANCH  19  20
ATOM     20  C   UNL     1      -4.188   0.032  24.921  0.00  0.00    +0.034 A 
ATOM     21  C   UNL     1      -3.885  -0.444  25.524  0.00  0.00    +0.007 A 
ATOM     22  C   UNL     1      -3.737  -1.191  25.209  0.00  0.00    +0.006 A 
ATOM     23  C   UNL     1      -3.947  -1.178  24.411  0.00  0.00    +0.029 A 
ATOM     24  S   UNL     1      -4.226  -0.422  24.233  0.00  0.00    -0.087 S 
ATOM     25  C   UNL     1      -3.858  -1.856  23.950  0.00  0.00    +0.006 A 
ATOM     26  C   UNL     1      -3.558  -2.547  24.286  0.00  0.00    +0.001 A 
ATOM     27  C   UNL     1      -3.348  -2.560  25.084  0.00  0.00    +0.000 A 
ATOM     28  C   UNL     1      -3.437  -1.883  25.545  0.00  0.00    +0.001 A 
ENDBRANCH  19  20
TORSDOF 2
ENDMDL
MODEL 2
REMARK VINA RESULT:     -16.3      1.428      4.111
REMARK  Name = 
REMARK  2 active torsions:
REMARK  status: ('A' for Active; 'I' for Inactive)
REMARK    1  A    between atoms: C_7  and  N_10
REMARK    2  A    between atoms: C_19  and  C_20
REMARK                            x       y       z     vdW  Elec       q    Type
REMARK                         _______ _______ _______ _____ _____    ______ ____
ROOT
ATOM     10  N   UNL     1      -3.940  -0.597  24.267  0.00  0.00    -0.273 NA
ATOM     11  C   UNL     1      -4.302  -1.348  24.217  0.00  0.00    +0.074 C 
ATOM     12  C   UNL     1      -3.615  -1.894  24.671  0.00  0.00    +0.039 C 
ATOM     13  C   UNL     1      -3.155  -2.472  25.013  0.00  0.00    +0.011 C 
ATOM     14  C   UNL     1      -3.121  -1.780  24.904  0.00  0.00    +0.054 C 
ATOM     15  C   UNL     1      -3.795  -1.266  24.463  0.00  0.00    +0.078 C 
ATOM     16  C   UNL     1      -2.579  -1.052  25.051  0.00  0.00    +0.041 A 
ATOM     17  C   UNL     1      -1.854  -0.852  25.389  0.00  0.00    +0.013 A 
ATOM     18  C   UNL     1      -1.597  -0.068  25.379  0.00  0.00    +0.006 A 
ATOM     19  C   UNL     1      -2.065   0.515  25.031  0.00  0.00    +0.062 A 
ATOM     29  C   UNL     1      -2.791   0.315  24.693  0.00  0.00    +0.261 A 
ATOM     30  O   UNL     1      -2.836   1.120  24.523  0.00  0.00    -0.267 OA
ATOM     31  N   UNL     1      -3.048  -0.469  24.703  0.00  0.00    -0.299 N 
ATOM     32  C   UNL     1      -3.055  -1.128  24.820  0.00  0.00    +0.110 C 
ENDROOT
BRANCH  10   7
ATOM      1  C   UNL     1      -3.840   3.179  24.441  0.00  0.00    +0.095 C 
ATOM      2  C   UNL     1      -3.533   2.655  23.883  0.00  0.00    +0.226 C 
ATOM      3  O   UNL     1      -3.124   2.946  23.227  0.00  0.00    -0.275 OA
ATOM      4  N   UNL     1      -3.634   1.843  23.978  0.00  0.00    -0.279 N 
ATOM      5  C   UNL     1      -3.327   1.319  23.420  0.00  0.00    +0.095 C 
ATOM      6  C   UNL     1      -3.429   0.507  23.515  0.00  0.00    +0.038 C 
ATOM      7  C   UNL     1      -3.838   0.216  24.171  0.00  0.00    +0.061 C 
ATOM      8  C   UNL     1      -4.145   0.739  24.730  0.00  0.00    +0.038 C 
ATOM      9  C   UNL     1      -4.044   1.552  24.634  0.00  0.00    +0.095 C 
ENDBRANCH  10   7
BRANCH  19  20
ATOM     20  C   UNL     1      -1.808   1.298  25.021  0.00  0.00    +0.034 A 
ATOM     21  C   UNL     1      -1.976   1.872  25.590  0.00  0.00    +0.007 A 
ATOM     22  C   UNL     1      -1.610   2.574  25.362  0.00  0.00    +0.006 A 
ATOM     23  C   UNL     1      -1.214   2.435  24.651  0.00  0.00    +0.029 A 
ATOM     24  S   UNL     1      -1.337   1.647  24.440  0.00  0.00    -0.087 S 
ATOM     25  C   UNL     1      -0.794   3.045  24.288  0.00  0.00    +0.006 A 
ATOM     26  C   UNL     1      -0.768   3.793  24.635  0.00  0.00    +0.001 A 
ATOM     27  C   UNL     1      -1.164   3.931  25.346  0.00  0.00    +0.000 A 
ATOM     28  C   UNL     1      -1.584   3.322  25.709  0.00  0.00    +0.001 A 
ENDBRANCH  19  20
TORSDOF 2
ENDMDL
MODEL 3
REMARK VINA RESULT:     -16.3      1.161      3.933
REMARK  Name = 
REMARK  2 active torsions:
REMARK  status: ('A' for Active; 'I' for Inactive)
REMARK    1  A    between atoms: C_7  and  N_10
REMARK    2  A    between atoms: C_19  and  C_20
REMARK                            x       y       z     vdW  Elec       q    Type
REMARK                         _______ _______ _______ _____ _____    ______ ____
ROOT
ATOM     10  N   UNL     1      -1.974  -1.386  24.704  0.00  0.00    -0.273 NA
ATOM     11  C   UNL     1      -1.801  -2.203  24.732  0.00  0.00    +0.074 C 
ATOM     12  C   UNL     1      -2.706  -2.569  24.579  0.00  0.00    +0.039 C 
ATOM     13  C   UNL     1      -3.374  -3.021  24.466  0.00  0.00    +0.011 C 
ATOM     14  C   UNL     1      -3.207  -2.340  24.495  0.00  0.00    +0.054 C 
ATOM     15  C   UNL     1      -2.327  -2.002  24.644  0.00  0.00    +0.078 C 
ATOM     16  C   UNL     1      -3.582  -1.503  24.433  0.00  0.00    +0.041 A 
ATOM     17  C   UNL     1      -4.310  -1.135  24.311  0.00  0.00    +0.013 A 
ATOM     18  C   UNL     1      -4.359  -0.312  24.304  0.00  0.00    +0.006 A 
ATOM     19  C   UNL     1      -3.680   0.143  24.419  0.00  0.00    +0.062 A 
ATOM     29  C   UNL     1      -2.953  -0.225  24.541  0.00  0.00    +0.261 A 
ATOM     30  O   UNL     1      -2.668   0.547  24.590  0.00  0.00    -0.267 OA
ATOM     31  N   UNL     1      -2.903  -1.048  24.548  0.00  0.00    -0.299 N 
ATOM     32  C   UNL     1      -3.088  -1.691  24.516  0.00  0.00    +0.110 C 
ENDROOT
BRANCH  10   7
ATOM      1  C   UNL     1      -1.492   2.276  25.513  0.00  0.00    +0.095 C 
ATOM      2  C   UNL     1      -1.462   1.873  24.795  0.00  0.00    +0.226 C 
ATOM      3  O   UNL     1      -1.304   2.286  24.097  0.00  0.00    -0.275 OA
ATOM      4  N   UNL     1      -1.590   1.059  24.771  0.00  0.00    -0.279 N 
ATOM      5  C   UNL     1      -1.560   0.656  24.053  0.00  0.00    +0.095 C 
ATOM      6  C   UNL     1      -1.688  -0.158  24.029  0.00  0.00    +0.038 C 
ATOM      7  C   UNL     1      -1.846  -0.571  24.727  0.00  0.00    +0.061 C 
ATOM      8  C   UNL     1      -1.876  -0.169  25.446  0.00  0.00    +0.038 C 
ATOM      9  C   UNL     1      -1.748   0.646  25.469  0.00  0.00    +0.095 C 
ENDBRANCH  10   7
BRANCH  19  20
ATOM     20  C   UNL     1      -3.730   0.966  24.412  0.00  0.00    +0.034 A 
ATOM     21  C   UNL     1      -3.620   1.453  23.755  0.00  0.00    +0.007 A 
ATOM     22  C   UNL     1      -3.720   2.235  23.996  0.00  0.00    +0.006 A 
ATOM     23  C   UNL     1      -3.894   2.232  24.803  0.00  0.00    +0.029 A 
ATOM     24  S   UNL     1      -3.900   1.448  25.060  0.00  0.00    -0.087 S 
ATOM     25  C   UNL     1      -4.024   2.944  25.199  0.00  0.00    +0.006 A 
ATOM     26  C   UNL     1      -3.980   3.659  24.789  0.00  0.00    +0.001 A 
ATOM     27  C   UNL     1      -3.807   3.661  23.983  0.00  0.00    +0.000 A 
ATOM     28  C   UNL     1      -3.677   2.950  23.586  0.00  0.00    +0.001 A 
ENDBRANCH  19  20
TORSDOF 2
ENDMDL
MODEL 4
REMARK VINA RESULT:     -16.1      1.394      2.010
REMARK  Name = 
REMARK  2 active torsions:
REMARK  status: ('A' for Active; 'I' for Inactive)
REMARK    1  A    between atoms: C_7  and  N_10
REMARK    2  A    between atoms: C_19  and  C_20
REMARK                            x       y       z     vdW  Elec       q    Type
REMARK                         _______ _______ _______ _____ _____    ______ ____
ROOT
ATOM     10  N   UNL     1      -0.861   3.020  25.098  0.00  0.00    -0.273 NA
ATOM     11  C   UNL     1      -0.499   3.767  25.197  0.00  0.00    +0.074 C 
ATOM     12  C   UNL     1      -1.304   4.340  25.209  0.00  0.00    +0.039 C 
ATOM     13  C   UNL     1      -1.856   4.939  25.239  0.00  0.00    +0.011 C 
ATOM     14  C   UNL     1      -1.851   4.241  25.167  0.00  0.00    +0.054 C 
ATOM     15  C   UNL     1      -1.064   3.700  25.157  0.00  0.00    +0.078 C 
ATOM     16  C   UNL     1      -2.416   3.524  25.059  0.00  0.00    +0.041 A 
ATOM     17  C   UNL     1      -3.219   3.345  24.994  0.00  0.00    +0.013 A 
ATOM     18  C   UNL     1      -3.460   2.562  24.899  0.00  0.00    +0.006 A 
ATOM     19  C   UNL     1      -2.899   1.958  24.869  0.00  0.00    +0.062 A 
ATOM     29  C   UNL     1      -2.096   2.136  24.935  0.00  0.00    +0.261 A 
ATOM     30  O   UNL     1      -1.997   1.322  24.856  0.00  0.00    -0.267 OA
ATOM     31  N   UNL     1      -1.855   2.920  25.030  0.00  0.00    -0.299 N 
ATOM     32  C   UNL     1      -1.886   3.585  25.097  0.00  0.00    +0.110 C 
ENDROOT
BRANCH  10   7
ATOM      1  C   UNL     1      -1.169  -0.736  25.409  0.00  0.00    +0.095 C 
ATOM      2  C   UNL     1      -1.121  -0.251  24.744  0.00  0.00    +0.226 C 
ATOM      3  O   UNL     1      -1.138  -0.584  23.989  0.00  0.00    -0.275 OA
ATOM      4  N   UNL     1      -1.056   0.566  24.832  0.00  0.00    -0.279 N 
ATOM      5  C   UNL     1      -1.008   1.051  24.167  0.00  0.00    +0.095 C 
ATOM      6  C   UNL     1      -0.943   1.868  24.255  0.00  0.00    +0.038 C 
ATOM      7  C   UNL     1      -0.926   2.202  25.010  0.00  0.00    +0.061 C 
ATOM      8  C   UNL     1      -0.974   1.718  25.676  0.00  0.00    +0.038 C 
ATOM      9  C   UNL     1      -1.039   0.900  25.587  0.00  0.00    +0.095 C 
ENDBRANCH  10   7
BRANCH  19  20
ATOM     20  C   UNL     1      -3.141   1.175  24.774  0.00  0.00    +0.034 A 
ATOM     21  C   UNL     1      -3.290   0.636  25.381  0.00  0.00    +0.007 A 
ATOM     22  C   UNL     1      -3.518  -0.078  25.039  0.00  0.00    +0.006 A 
ATOM     23  C   UNL     1      -3.509   0.018  24.219  0.00  0.00    +0.029 A 
ATOM     24  S   UNL     1      -3.276   0.793  24.056  0.00  0.00    -0.087 S 
ATOM     25  C   UNL     1      -3.715  -0.612  23.728  0.00  0.00    +0.006 A 
ATOM     26  C   UNL     1      -3.929  -1.338  24.055  0.00  0.00    +0.001 A 
ATOM     27  C   UNL     1      -3.937  -1.434  24.875  0.00  0.00    +0.000 A 
ATOM     28  C   UNL     1      -3.732  -0.805  25.366  0.00  0.00    +0.001 A 
ENDBRANCH  19  20
TORSDOF 2
ENDMDL
MODEL 5
REMARK VINA RESULT:     -15.8      1.460      2.814
REMARK  Name = 
REMARK  2 active torsions:
REMARK  status: ('A' for Active; 'I' for Inactive)
REMARK    1  A    between atoms: C_7  and  N_10
REMARK    2  A    between atoms: C_19  and  C_20
REMARK                            x       y       z     vdW  Elec       q    Type
REMARK                         _______ _______ _______ _____ _____    ______ ____
ROOT
ATOM     10  N   UNL     1      -2.633   4.313  25.107  0.00  0.00    -0.273 NA
ATOM     11  C   UNL     1      -2.276   5.062  25.201  0.00  0.00    +0.074 C 
ATOM     12  C   UNL     1      -1.326   4.806  25.109  0.00  0.00    +0.039 C 
ATOM     13  C   UNL     1      -0.514   4.761  25.056  0.00  0.00    +0.011 C 
ATOM     14  C   UNL     1      -1.062   4.323  25.021  0.00  0.00    +0.054 C 
ATOM     15  C   UNL     1      -1.975   4.587  25.112  0.00  0.00    +0.078 C 
ATOM     16  C   UNL     1      -1.268   3.436  24.898  0.00  0.00    +0.041 A 
ATOM     17  C   UNL     1      -0.907   2.707  24.767  0.00  0.00    +0.013 A 
ATOM     18  C   UNL     1      -1.367   2.027  24.689  0.00  0.00    +0.006 A 
ATOM     19  C   UNL     1      -2.189   2.076  24.743  0.00  0.00    +0.062 A 
ATOM     29  C   UNL     1      -2.551   2.806  24.874  0.00  0.00    +0.261 A 
ATOM     30  O   UNL     1      -3.248   2.367  24.847  0.00  0.00    -0.267 OA
ATOM     31  N   UNL     1      -2.090   3.486  24.951  0.00  0.00    -0.299 N 
ATOM     32  C   UNL     1      -1.552   3.882  24.981  0.00  0.00    +0.110 C 
ENDROOT
BRANCH  10   7
ATOM      1  C   UNL     1      -5.303   1.677  25.580  0.00  0.00    +0.095 C 
ATOM      2  C   UNL     1      -5.022   2.046  24.898  0.00  0.00    +0.226 C 
ATOM      3  O   UNL     1      -5.340   1.849  24.162  0.00  0.00    -0.275 OA
ATOM      4  N   UNL     1      -4.425   2.613  24.949  0.00  0.00    -0.279 N 
ATOM      5  C   UNL     1      -4.145   2.982  24.267  0.00  0.00    +0.095 C 
ATOM      6  C   UNL     1      -3.548   3.548  24.319  0.00  0.00    +0.038 C 
ATOM      7  C   UNL     1      -3.230   3.746  25.055  0.00  0.00    +0.061 C 
ATOM      8  C   UNL     1      -3.510   3.377  25.738  0.00  0.00    +0.038 C 
ATOM      9  C   UNL     1      -4.108   2.811  25.685  0.00  0.00    +0.095 C 
ENDBRANCH  10   7
BRANCH  19  20
ATOM     20  C   UNL     1      -2.648   1.396  24.666  0.00  0.00    +0.034 A 
ATOM     21  C   UNL     1      -2.896   0.905  25.281  0.00  0.00    +0.007 A 
ATOM     22  C   UNL     1      -3.342   0.292  24.957  0.00  0.00    +0.006 A 
ATOM     23  C   UNL     1      -3.369   0.403  24.139  0.00  0.00    +0.029 A 
ATOM     24  S   UNL     1      -2.941   1.085  23.960  0.00  0.00    -0.087 S 
ATOM     25  C   UNL     1      -3.781  -0.131  23.664  0.00  0.00    +0.006 A 
ATOM     26  C   UNL     1      -4.165  -0.776  24.006  0.00  0.00    +0.001 A 
ATOM     27  C   UNL     1      -4.138  -0.887  24.823  0.00  0.00    +0.000 A 
ATOM     28  C   UNL     1      -3.726  -0.353  25.298  0.00  0.00    +0.001 A 
ENDBRANCH  19  20
TORSDOF 2
ENDMDL
