MODEL 1
REMARK VINA RESULT:     -10.8      0.000      0.000
REMARK  Name = 
REMARK  5 active torsions:
REMARK  status: ('A' for Active; 'I' for Inactive)
REMARK    1  A    between atoms: C_4  and  C_18
REMARK    2  A    between atoms: C_5  and  N_6
REMARK    3  A    between atoms: N_6  and  C_7
REMARK    4  A    between atoms: C_7  and  C_8
REMARK    5  A    between atoms: C_12  and  C_14
REMARK                            x       y       z     vdW  Elec       q    Type
REMARK                         _______ _______ _______ _____ _____    ______ ____
ROOT
ATOM      1  O   UNL     1      -5.526   3.316  25.368  0.00  0.00    -0.220 OA
ATOM      2  C   UNL     1      -4.959   2.803  25.055  0.00  0.00    +0.184 C 
ATOM      3  C   UNL     1      -4.283   3.025  24.639  0.00  0.00    +0.041 C 
ATOM      4  C   UNL     1      -3.876   2.338  24.430  0.00  0.00    +0.045 C 
ATOM      5  C   UNL     1      -4.302   1.692  24.717  0.00  0.00    +0.110 C 
ATOM     16  C   UNL     1      -4.972   1.979  25.103  0.00  0.00    +0.198 C 
ATOM     17  O   UNL     1      -5.551   1.523  25.472  0.00  0.00    -0.219 OA
ENDROOT
BRANCH   4  18
ATOM     18  C   UNL     1      -3.167   2.303  24.008  0.00  0.00    -0.002 A 
ATOM     19  C   UNL     1      -3.177   2.137  23.200  0.00  0.00    -0.001 A 
ATOM     20  C   UNL     1      -2.469   2.103  22.778  0.00  0.00    +0.020 A 
ATOM     21  C   UNL     1      -1.752   2.233  23.164  0.00  0.00    +0.099 A 
ATOM     22  N   UNL     1      -1.742   2.399  23.972  0.00  0.00    -0.243 NA
ATOM     23  C   UNL     1      -2.451   2.434  24.394  0.00  0.00    +0.095 A 
ENDBRANCH   4  18
BRANCH   5   6
ATOM      6  N   UNL     1      -4.093   0.898  24.632  0.00  0.00    -0.212 NA
BRANCH   6   7
ATOM      7  C   UNL     1      -4.349   0.344  25.187  0.00  0.00    +0.115 C 
BRANCH   7   8
ATOM      8  C   UNL     1      -4.038  -0.421  25.179  0.00  0.00    -0.004 A 
ATOM      9  C   UNL     1      -3.530  -0.665  25.781  0.00  0.00    -0.003 A 
ATOM     10  C   UNL     1      -3.219  -1.429  25.773  0.00  0.00    +0.000 A 
ATOM     11  C   UNL     1      -3.415  -1.949  25.164  0.00  0.00    +0.010 A 
ATOM     12  C   UNL     1      -3.924  -1.704  24.561  0.00  0.00    +0.068 A 
ATOM     13  C   UNL     1      -4.234  -0.941  24.569  0.00  0.00    +0.007 A 
BRANCH  12  14
ATOM     14  C   UNL     1      -4.120  -2.224  23.952  0.00  0.00    +0.100 C 
ATOM     15  N   UNL     1      -4.318  -2.743  23.341  0.00  0.00    -0.191 NA
ENDBRANCH  12  14
ENDBRANCH   7   8
ENDBRANCH   6   7
ENDBRANCH   5   6
TORSDOF 5
ENDMDL
MODEL 2
REMARK VINA RESULT:     -10.3      1.381      2.349
REMARK  Name = 
REMARK  5 active torsions:
REMARK  status: ('A' for Active; 'I' for Inactive)
REMARK    1  A    between atoms: C_4  and  C_18
REMARK    2  A    between atoms: C_5  and  N_6
REMARK    3  A    between atoms: N_6  and  C_7
REMARK    4  A    between atoms: C_7  and  C_8
REMARK    5  A    between atoms: C_12  and  C_14
REMARK                            x       y       z     vdW  Elec       q    Type
REMARK                         _______ _______ _______ _____ _____    ______ ____
ROOT
ATOM      1  O   UNL     1      -2.979   3.094  22.896  0.00  0.00    -0.220 OA
ATOM      2  C   UNL     1      -3.385   2.654  23.465  0.00  0.00    +0.184 C 
ATOM      3  C   UNL     1      -4.043   2.906  23.893  0.00  0.00    +0.041 C 
ATOM      4  C   UNL     1      -4.269   2.293  24.397  0.00  0.00    +0.045 C 
ATOM      5  C   UNL     1      -3.750   1.663  24.280  0.00  0.00    +0.110 C 
ATOM     16  C   UNL     1      -3.203   1.886  23.703  0.00  0.00    +0.198 C 
ATOM     17  O   UNL     1      -2.584   1.421  23.417  0.00  0.00    -0.219 OA
ENDROOT
BRANCH   4  18
ATOM     18  C   UNL     1      -4.902   2.308  24.926  0.00  0.00    -0.002 A 
ATOM     19  C   UNL     1      -5.607   1.925  24.734  0.00  0.00    -0.001 A 
ATOM     20  C   UNL     1      -6.241   1.940  25.263  0.00  0.00    +0.020 A 
ATOM     21  C   UNL     1      -6.169   2.337  25.982  0.00  0.00    +0.099 A 
ATOM     22  N   UNL     1      -5.464   2.720  26.173  0.00  0.00    -0.243 NA
ATOM     23  C   UNL     1      -4.830   2.705  25.645  0.00  0.00    +0.095 A 
ENDBRANCH   4  18
BRANCH   5   6
ATOM      6  N   UNL     1      -3.773   0.936  24.671  0.00  0.00    -0.212 NA
BRANCH   6   7
ATOM      7  C   UNL     1      -3.274   0.324  24.433  0.00  0.00    +0.115 C 
BRANCH   7   8
ATOM      8  C   UNL     1      -3.354  -0.426  24.768  0.00  0.00    -0.004 A 
ATOM      9  C   UNL     1      -3.160  -0.547  25.560  0.00  0.00    -0.003 A 
ATOM     10  C   UNL     1      -3.240  -1.298  25.894  0.00  0.00    +0.000 A 
ATOM     11  C   UNL     1      -3.513  -1.926  25.436  0.00  0.00    +0.010 A 
ATOM     12  C   UNL     1      -3.707  -1.805  24.643  0.00  0.00    +0.068 A 
ATOM     13  C   UNL     1      -3.627  -1.055  24.309  0.00  0.00    +0.007 A 
BRANCH  12  14
ATOM     14  C   UNL     1      -3.981  -2.434  24.185  0.00  0.00    +0.100 C 
ATOM     15  N   UNL     1      -4.254  -3.064  23.727  0.00  0.00    -0.191 NA
ENDBRANCH  12  14
ENDBRANCH   7   8
ENDBRANCH   6   7
ENDBRANCH   5   6
TORSDOF 5
ENDMDL
MODEL 3
REMARK VINA RESULT:     -10.3      1.640      3.996
REMARK  Name = 
REMARK  5 active torsions:
REMARK  status: ('A' for Active; 'I' for Inactive)
REMARK    1  A    between atoms: C_4  and  C_18
REMARK    2  A    between atoms: C_5  and  N_6
REMARK    3  A    between atoms: N_6  and  C_7
REMARK    4  A    between atoms: C_7  and  C_8
REMARK    5  A    between atoms: C_12  and  C_14
REMARK                            x       y       z     vdW  Elec       q    Type
REMARK                         _______ _______ _______ _____ _____    ______ ____
ROOT
ATOM      1  O   UNL     1      -6.185   3.254  25.767  0.00  0.00    -0.220 OA
ATOM      2  C   UNL     1      -5.464   2.946  25.507  0.00  0.00    +0.184 C 
ATOM      3  C   UNL     1      -5.341   2.188  25.210  0.00  0.00    +0.041 C 
ATOM      4  C   UNL     1      -4.541   2.116  25.018  0.00  0.00    +0.045 C 
ATOM      5  C   UNL     1      -4.171   2.832  25.197  0.00  0.00    +0.110 C 
ATOM     16  C   UNL     1      -4.742   3.345  25.500  0.00  0.00    +0.198 C 
ATOM     17  O   UNL     1      -4.612   4.120  25.750  0.00  0.00    -0.219 OA
ENDROOT
BRANCH   4  18
ATOM     18  C   UNL     1      -4.176   1.447  24.702  0.00  0.00    -0.002 A 
ATOM     19  C   UNL     1      -4.066   0.778  25.172  0.00  0.00    -0.001 A 
ATOM     20  C   UNL     1      -3.701   0.108  24.856  0.00  0.00    +0.020 A 
ATOM     21  C   UNL     1      -3.445   0.109  24.073  0.00  0.00    +0.099 A 
ATOM     22  N   UNL     1      -3.554   0.779  23.603  0.00  0.00    -0.243 NA
ATOM     23  C   UNL     1      -3.920   1.448  23.918  0.00  0.00    +0.095 A 
ENDBRANCH   4  18
BRANCH   5   6
ATOM      6  N   UNL     1      -3.371   3.003  25.092  0.00  0.00    -0.212 NA
BRANCH   6   7
ATOM      7  C   UNL     1      -2.996   3.540  25.593  0.00  0.00    +0.115 C 
BRANCH   7   8
ATOM      8  C   UNL     1      -2.201   3.728  25.475  0.00  0.00    -0.004 A 
ATOM      9  C   UNL     1      -1.994   4.429  25.095  0.00  0.00    -0.003 A 
ATOM     10  C   UNL     1      -1.199   4.616  24.977  0.00  0.00    +0.000 A 
ATOM     11  C   UNL     1      -0.611   4.101  25.240  0.00  0.00    +0.010 A 
ATOM     12  C   UNL     1      -0.817   3.399  25.621  0.00  0.00    +0.068 A 
ATOM     13  C   UNL     1      -1.612   3.212  25.739  0.00  0.00    +0.007 A 
BRANCH  12  14
ATOM     14  C   UNL     1      -0.229   2.884  25.884  0.00  0.00    +0.100 C 
ATOM     15  N   UNL     1       0.359   2.368  26.147  0.00  0.00    -0.191 NA
ENDBRANCH  12  14
ENDBRANCH   7   8
ENDBRANCH   6   7
ENDBRANCH   5   6
TORSDOF 5
ENDMDL
MODEL 4
REMARK VINA RESULT:     -10.3      1.953      4.076
REMARK  Name = 
REMARK  5 active torsions:
REMARK  status: ('A' for Active; 'I' for Inactive)
REMARK    1  A    between atoms: C_4  and  C_18
REMARK    2  A    between atoms: C_5  and  N_6
REMARK    3  A    between atoms: N_6  and  C_7
REMARK    4  A    between atoms: C_7  and  C_8
REMARK    5  A    between atoms: C_12  and  C_14
REMARK                            x       y       z     vdW  Elec       q    Type
REMARK                         _______ _______ _______ _____ _____    ______ ____
ROOT
ATOM      1  O   UNL     1      -3.995  -3.108  24.221  0.00  0.00    -0.220 OA
ATOM      2  C   UNL     1      -3.622  -2.384  24.355  0.00  0.00    +0.184 C 
ATOM      3  C   UNL     1      -2.862  -2.279  24.656  0.00  0.00    +0.041 C 
ATOM      4  C   UNL     1      -2.714  -1.468  24.697  0.00  0.00    +0.045 C 
ATOM      5  C   UNL     1      -3.383  -1.072  24.422  0.00  0.00    +0.110 C 
ATOM     16  C   UNL     1      -3.945  -1.639  24.210  0.00  0.00    +0.198 C 
ATOM     17  O   UNL     1      -4.697  -1.485  23.907  0.00  0.00    -0.219 OA
ENDROOT
BRANCH   4  18
ATOM     18  C   UNL     1      -2.018  -1.115  24.967  0.00  0.00    -0.002 A 
ATOM     19  C   UNL     1      -1.934  -0.929  25.766  0.00  0.00    -0.001 A 
ATOM     20  C   UNL     1      -1.239  -0.576  26.036  0.00  0.00    +0.020 A 
ATOM     21  C   UNL     1      -0.629  -0.409  25.507  0.00  0.00    +0.099 A 
ATOM     22  N   UNL     1      -0.713  -0.595  24.707  0.00  0.00    -0.243 NA
ATOM     23  C   UNL     1      -1.409  -0.948  24.438  0.00  0.00    +0.095 A 
ENDBRANCH   4  18
BRANCH   5   6
ATOM      6  N   UNL     1      -3.475  -0.254  24.368  0.00  0.00    -0.212 NA
BRANCH   6   7
ATOM      7  C   UNL     1      -4.225   0.082  24.439  0.00  0.00    +0.115 C 
BRANCH   7   8
ATOM      8  C   UNL     1      -4.307   0.902  24.474  0.00  0.00    -0.004 A 
ATOM      9  C   UNL     1      -3.908   1.381  23.935  0.00  0.00    -0.003 A 
ATOM     10  C   UNL     1      -3.990   2.201  23.970  0.00  0.00    +0.000 A 
ATOM     11  C   UNL     1      -4.472   2.543  24.546  0.00  0.00    +0.010 A 
ATOM     12  C   UNL     1      -4.872   2.064  25.086  0.00  0.00    +0.068 A 
ATOM     13  C   UNL     1      -4.790   1.244  25.050  0.00  0.00    +0.007 A 
BRANCH  12  14
ATOM     14  C   UNL     1      -5.355   2.406  25.661  0.00  0.00    +0.100 C 
ATOM     15  N   UNL     1      -5.837   2.748  26.237  0.00  0.00    -0.191 NA
ENDBRANCH  12  14
ENDBRANCH   7   8
ENDBRANCH   6   7
ENDBRANCH   5   6
TORSDOF 5
ENDMDL
MODEL 5
REMARK VINA RESULT:     -10.2      1.456      3.778
REMARK  Name = 
REMARK  5 active torsions:
REMARK  status: ('A' for Active; 'I' for Inactive)
REMARK    1  A    between atoms: C_4  and  C_18
REMARK    2  A    between atoms: C_5  and  N_6
REMARK    3  A    between atoms: N_6  and  C_7
REMARK    4  A    between atoms: C_7  and  C_8
REMARK    5  A    between atoms: C_12  and  C_14
REMARK                            x       y       z     vdW  Elec       q    Type
REMARK                         _______ _______ _______ _____ _____    ______ ____
ROOT
ATOM      1  O   UNL     1      -5.772   2.159  24.999  0.00  0.00    -0.220 OA
ATOM      2  C   UNL     1      -5.115   1.664  24.925  0.00  0.00    +0.184 C 
ATOM      3  C   UNL     1      -5.117   0.843  24.999  0.00  0.00    +0.041 C 
ATOM      4  C   UNL     1      -4.344   0.575  24.884  0.00  0.00    +0.045 C 
ATOM      5  C   UNL     1      -3.866   1.231  24.738  0.00  0.00    +0.110 C 
ATOM     16  C   UNL     1      -4.343   1.905  24.763  0.00  0.00    +0.198 C 
ATOM     17  O   UNL     1      -4.090   2.681  24.647  0.00  0.00    -0.219 OA
ENDROOT
BRANCH   4  18
ATOM     18  C   UNL     1      -4.094  -0.211  24.910  0.00  0.00    -0.002 A 
ATOM     19  C   UNL     1      -4.104  -0.669  24.224  0.00  0.00    -0.001 A 
ATOM     20  C   UNL     1      -3.853  -1.455  24.250  0.00  0.00    +0.020 A 
ATOM     21  C   UNL     1      -3.595  -1.782  24.961  0.00  0.00    +0.099 A 
ATOM     22  N   UNL     1      -3.586  -1.324  25.648  0.00  0.00    -0.243 NA
ATOM     23  C   UNL     1      -3.836  -0.538  25.622  0.00  0.00    +0.095 A 
ENDBRANCH   4  18
BRANCH   5   6
ATOM      6  N   UNL     1      -3.054   1.217  24.593  0.00  0.00    -0.212 NA
BRANCH   6   7
ATOM      7  C   UNL     1      -2.606   1.903  24.687  0.00  0.00    +0.115 C 
BRANCH   7   8
ATOM      8  C   UNL     1      -1.783   1.867  24.640  0.00  0.00    -0.004 A 
ATOM      9  C   UNL     1      -1.420   1.576  23.960  0.00  0.00    -0.003 A 
ATOM     10  C   UNL     1      -0.597   1.541  23.914  0.00  0.00    +0.000 A 
ATOM     11  C   UNL     1      -0.137   1.796  24.548  0.00  0.00    +0.010 A 
ATOM     12  C   UNL     1      -0.500   2.088  25.230  0.00  0.00    +0.068 A 
ATOM     13  C   UNL     1      -1.322   2.123  25.276  0.00  0.00    +0.007 A 
BRANCH  12  14
ATOM     14  C   UNL     1      -0.040   2.344  25.865  0.00  0.00    +0.100 C 
ATOM     15  N   UNL     1       0.422   2.599  26.500  0.00  0.00    -0.191 NA
ENDBRANCH  12  14
ENDBRANCH   7   8
ENDBRANCH   6   7
ENDBRANCH   5   6
TORSDOF 5
ENDMDL
MODEL 6
REMARK VINA RESULT:      -9.9      1.993      2.591
REMARK  Name = 
REMARK  5 active torsions:
REMARK  status: ('A' for Active; 'I' for Inactive)
REMARK    1  A    between atoms: C_4  and  C_18
REMARK    2  A    between atoms: C_5  and  N_6
REMARK    3  A    between atoms: N_6  and  C_7
REMARK    4  A    between atoms: C_7  and  C_8
REMARK    5  A    between atoms: C_12  and  C_14
REMARK                            x       y       z     vdW  Elec       q    Type
REMARK                         _______ _______ _______ _____ _____    ______ ____
ROOT
ATOM      1  O   UNL     1       0.190   2.339  24.236  0.00  0.00    -0.220 OA
ATOM      2  C   UNL     1      -0.602   2.160  24.384  0.00  0.00    +0.184 C 
ATOM      3  C   UNL     1      -1.240   2.674  24.294  0.00  0.00    +0.041 C 
ATOM      4  C   UNL     1      -1.927   2.266  24.503  0.00  0.00    +0.045 C 
ATOM      5  C   UNL     1      -1.713   1.500  24.721  0.00  0.00    +0.110 C 
ATOM     16  C   UNL     1      -0.893   1.434  24.648  0.00  0.00    +0.198 C 
ATOM     17  O   UNL     1      -0.445   0.761  24.810  0.00  0.00    -0.219 OA
ENDROOT
BRANCH   4  18
ATOM     18  C   UNL     1      -2.694   2.572  24.494  0.00  0.00    -0.002 A 
ATOM     19  C   UNL     1      -3.132   2.564  23.795  0.00  0.00    -0.001 A 
ATOM     20  C   UNL     1      -3.899   2.869  23.787  0.00  0.00    +0.020 A 
ATOM     21  C   UNL     1      -4.226   3.181  24.476  0.00  0.00    +0.099 A 
ATOM     22  N   UNL     1      -3.788   3.189  25.175  0.00  0.00    -0.243 NA
ATOM     23  C   UNL     1      -3.021   2.884  25.184  0.00  0.00    +0.095 A 
ENDBRANCH   4  18
BRANCH   5   6
ATOM      6  N   UNL     1      -2.227   0.905  24.969  0.00  0.00    -0.212 NA
BRANCH   6   7
ATOM      7  C   UNL     1      -2.045   0.115  24.820  0.00  0.00    +0.115 C 
BRANCH   7   8
ATOM      8  C   UNL     1      -2.572  -0.480  25.046  0.00  0.00    -0.004 A 
ATOM      9  C   UNL     1      -2.679  -0.654  25.844  0.00  0.00    -0.003 A 
ATOM     10  C   UNL     1      -3.205  -1.248  26.070  0.00  0.00    +0.000 A 
ATOM     11  C   UNL     1      -3.625  -1.667  25.497  0.00  0.00    +0.010 A 
ATOM     12  C   UNL     1      -3.518  -1.493  24.697  0.00  0.00    +0.068 A 
ATOM     13  C   UNL     1      -2.991  -0.899  24.472  0.00  0.00    +0.007 A 
BRANCH  12  14
ATOM     14  C   UNL     1      -3.937  -1.912  24.124  0.00  0.00    +0.100 C 
ATOM     15  N   UNL     1      -4.357  -2.330  23.550  0.00  0.00    -0.191 NA
ENDBRANCH  12  14
ENDBRANCH   7   8
ENDBRANCH   6   7
ENDBRANCH   5   6
TORSDOF 5
ENDMDL
