MODEL 1
REMARK VINA RESULT:      -8.5      0.000      0.000
REMARK  Name = 
REMARK  8 active torsions:
REMARK  status: ('A' for Active; 'I' for Inactive)
REMARK    1  A    between atoms: O_2  and  C_3
REMARK    2  A    between atoms: C_3  and  C_4
REMARK    3  A    between atoms: N_6  and  C_7
REMARK    4  A    between atoms: C_7  and  C_8
REMARK    5  A    between atoms: C_11  and  N_12
REMARK    6  A    between atoms: N_12  and  C_13
REMARK    7  A    between atoms: C_13  and  C_14
REMARK    8  A    between atoms: C_18  and  C_20
REMARK                            x       y       z     vdW  Elec       q    Type
REMARK                         _______ _______ _______ _____ _____    ______ ____
ROOT
ATOM      8  C   UNL     1      -3.947   2.224  24.626  0.00  0.00    +0.169 C 
ATOM      9  O   UNL     1      -4.432   1.969  25.243  0.00  0.00    -0.350 OA
ATOM     10  C   UNL     1      -4.549   1.157  25.156  0.00  0.00    +0.162 C 
ATOM     11  C   UNL     1      -4.136   0.911  24.486  0.00  0.00    +0.135 C 
ATOM     22  C   UNL     1      -3.764   1.571  24.159  0.00  0.00    +0.199 C 
ATOM     23  O   UNL     1      -3.292   1.575  23.482  0.00  0.00    -0.219 OA
ENDROOT
BRANCH   8   7
ATOM      7  C   UNL     1      -3.690   2.999  24.500  0.00  0.00    +0.147 C 
BRANCH   7   6
ATOM      4  C   UNL     1      -2.865   4.101  24.882  0.00  0.00    +0.272 C 
ATOM      5  O   UNL     1      -3.304   4.599  24.393  0.00  0.00    -0.271 OA
ATOM      6  N   UNL     1      -3.059   3.300  24.936  0.00  0.00    -0.201 NA
BRANCH   4   3
ATOM      3  C   UNL     1      -2.234   4.403  25.318  0.00  0.00    +0.229 C 
BRANCH   3   2
ATOM      1  C   UNL     1      -0.945   4.982  25.106  0.00  0.00    +0.175 C 
ATOM      2  O   UNL     1      -1.762   5.002  25.002  0.00  0.00    -0.342 OA
ENDBRANCH   3   2
ENDBRANCH   4   3
ENDBRANCH   7   6
ENDBRANCH   8   7
BRANCH  11  12
ATOM     12  N   UNL     1      -4.101   0.140  24.195  0.00  0.00    -0.209 NA
BRANCH  12  13
ATOM     13  C   UNL     1      -4.188  -0.499  24.709  0.00  0.00    +0.115 C 
BRANCH  13  14
ATOM     14  C   UNL     1      -3.925  -1.249  24.484  0.00  0.00    -0.004 A 
ATOM     15  C   UNL     1      -4.431  -1.758  24.077  0.00  0.00    -0.003 A 
ATOM     16  C   UNL     1      -4.168  -2.507  23.852  0.00  0.00    +0.000 A 
ATOM     17  C   UNL     1      -3.400  -2.747  24.033  0.00  0.00    +0.010 A 
ATOM     18  C   UNL     1      -2.894  -2.237  24.440  0.00  0.00    +0.068 A 
ATOM     19  C   UNL     1      -3.157  -1.488  24.665  0.00  0.00    +0.007 A 
BRANCH  18  20
ATOM     20  C   UNL     1      -2.126  -2.476  24.621  0.00  0.00    +0.100 C 
ATOM     21  N   UNL     1      -1.357  -2.715  24.802  0.00  0.00    -0.191 NA
ENDBRANCH  18  20
ENDBRANCH  13  14
ENDBRANCH  12  13
ENDBRANCH  11  12
TORSDOF 8
ENDMDL
MODEL 2
REMARK VINA RESULT:      -8.3      2.998      4.832
REMARK  Name = 
REMARK  8 active torsions:
REMARK  status: ('A' for Active; 'I' for Inactive)
REMARK    1  A    between atoms: O_2  and  C_3
REMARK    2  A    between atoms: C_3  and  C_4
REMARK    3  A    between atoms: N_6  and  C_7
REMARK    4  A    between atoms: C_7  and  C_8
REMARK    5  A    between atoms: C_11  and  N_12
REMARK    6  A    between atoms: N_12  and  C_13
REMARK    7  A    between atoms: C_13  and  C_14
REMARK    8  A    between atoms: C_18  and  C_20
REMARK                            x       y       z     vdW  Elec       q    Type
REMARK                         _______ _______ _______ _____ _____    ______ ____
ROOT
ATOM      8  C   UNL     1      -1.162   0.752  23.931  0.00  0.00    +0.169 C 
ATOM      9  O   UNL     1      -1.367   1.345  23.394  0.00  0.00    -0.350 OA
ATOM     10  C   UNL     1      -2.115   1.626  23.598  0.00  0.00    +0.162 C 
ATOM     11  C   UNL     1      -2.373   1.207  24.260  0.00  0.00    +0.135 C 
ATOM     22  C   UNL     1      -1.784   0.667  24.465  0.00  0.00    +0.199 C 
ATOM     23  O   UNL     1      -1.812   0.135  25.095  0.00  0.00    -0.219 OA
ENDROOT
BRANCH   8   7
ATOM      7  C   UNL     1      -0.459   0.321  23.931  0.00  0.00    +0.147 C 
BRANCH   7   6
ATOM      4  C   UNL     1       0.763  -0.030  23.278  0.00  0.00    +0.272 C 
ATOM      5  O   UNL     1       0.811  -0.714  23.737  0.00  0.00    -0.271 OA
ATOM      6  N   UNL     1       0.127   0.487  23.376  0.00  0.00    -0.201 NA
BRANCH   4   3
ATOM      3  C   UNL     1       1.349   0.136  22.723  0.00  0.00    +0.229 C 
BRANCH   3   2
ATOM      1  C   UNL     1       2.740   0.160  22.396  0.00  0.00    +0.175 C 
ATOM      2  O   UNL     1       2.114  -0.155  22.830  0.00  0.00    -0.342 OA
ENDBRANCH   3   2
ENDBRANCH   4   3
ENDBRANCH   7   6
ENDBRANCH   8   7
BRANCH  11  12
ATOM     12  N   UNL     1      -3.094   1.309  24.648  0.00  0.00    -0.209 NA
BRANCH  12  13
ATOM     13  C   UNL     1      -3.713   1.703  24.271  0.00  0.00    +0.115 C 
BRANCH  13  14
ATOM     14  C   UNL     1      -4.423   1.835  24.671  0.00  0.00    -0.004 A 
ATOM     15  C   UNL     1      -4.931   1.204  24.828  0.00  0.00    -0.003 A 
ATOM     16  C   UNL     1      -5.640   1.336  25.228  0.00  0.00    +0.000 A 
ATOM     17  C   UNL     1      -5.841   2.099  25.471  0.00  0.00    +0.010 A 
ATOM     18  C   UNL     1      -5.333   2.729  25.313  0.00  0.00    +0.068 A 
ATOM     19  C   UNL     1      -4.624   2.597  24.913  0.00  0.00    +0.007 A 
BRANCH  18  20
ATOM     20  C   UNL     1      -5.534   3.492  25.556  0.00  0.00    +0.100 C 
ATOM     21  N   UNL     1      -5.735   4.255  25.797  0.00  0.00    -0.191 NA
ENDBRANCH  18  20
ENDBRANCH  13  14
ENDBRANCH  12  13
ENDBRANCH  11  12
TORSDOF 8
ENDMDL
MODEL 3
REMARK VINA RESULT:      -8.0      2.494      5.999
REMARK  Name = 
REMARK  8 active torsions:
REMARK  status: ('A' for Active; 'I' for Inactive)
REMARK    1  A    between atoms: O_2  and  C_3
REMARK    2  A    between atoms: C_3  and  C_4
REMARK    3  A    between atoms: N_6  and  C_7
REMARK    4  A    between atoms: C_7  and  C_8
REMARK    5  A    between atoms: C_11  and  N_12
REMARK    6  A    between atoms: N_12  and  C_13
REMARK    7  A    between atoms: C_13  and  C_14
REMARK    8  A    between atoms: C_18  and  C_20
REMARK                            x       y       z     vdW  Elec       q    Type
REMARK                         _______ _______ _______ _____ _____    ______ ____
ROOT
ATOM      8  C   UNL     1      -0.675  -0.032  24.585  0.00  0.00    +0.169 C 
ATOM      9  O   UNL     1      -0.455   0.232  23.835  0.00  0.00    -0.350 OA
ATOM     10  C   UNL     1      -0.401   1.055  23.860  0.00  0.00    +0.162 C 
ATOM     11  C   UNL     1      -0.588   1.299  24.625  0.00  0.00    +0.135 C 
ATOM     22  C   UNL     1      -0.757   0.627  25.073  0.00  0.00    +0.199 C 
ATOM     23  O   UNL     1      -0.970   0.618  25.870  0.00  0.00    -0.219 OA
ENDROOT
BRANCH   8   7
ATOM      7  C   UNL     1      -0.792  -0.818  24.807  0.00  0.00    +0.147 C 
BRANCH   7   6
ATOM      4  C   UNL     1      -1.528  -2.038  24.699  0.00  0.00    +0.272 C 
ATOM      5  O   UNL     1      -0.997  -2.404  25.214  0.00  0.00    -0.271 OA
ATOM      6  N   UNL     1      -1.425  -1.245  24.496  0.00  0.00    -0.201 NA
BRANCH   4   3
ATOM      3  C   UNL     1      -2.160  -2.465  24.387  0.00  0.00    +0.229 C 
BRANCH   3   2
ATOM      1  C   UNL     1      -3.532  -2.855  24.475  0.00  0.00    +0.175 C 
ATOM      2  O   UNL     1      -2.846  -2.573  24.834  0.00  0.00    -0.342 OA
ENDBRANCH   3   2
ENDBRANCH   4   3
ENDBRANCH   7   6
ENDBRANCH   8   7
BRANCH  11  12
ATOM     12  N   UNL     1      -0.602   2.079  24.896  0.00  0.00    -0.209 NA
BRANCH  12  13
ATOM     13  C   UNL     1      -0.862   2.683  24.397  0.00  0.00    +0.115 C 
BRANCH  13  14
ATOM     14  C   UNL     1      -1.079   3.414  24.713  0.00  0.00    -0.004 A 
ATOM     15  C   UNL     1      -0.594   4.071  24.604  0.00  0.00    -0.003 A 
ATOM     16  C   UNL     1      -0.811   4.801  24.920  0.00  0.00    +0.000 A 
ATOM     17  C   UNL     1      -1.515   4.874  25.345  0.00  0.00    +0.010 A 
ATOM     18  C   UNL     1      -2.001   4.216  25.453  0.00  0.00    +0.068 A 
ATOM     19  C   UNL     1      -1.783   3.486  25.137  0.00  0.00    +0.007 A 
BRANCH  18  20
ATOM     20  C   UNL     1      -2.705   4.288  25.878  0.00  0.00    +0.100 C 
ATOM     21  N   UNL     1      -3.408   4.361  26.303  0.00  0.00    -0.191 NA
ENDBRANCH  18  20
ENDBRANCH  13  14
ENDBRANCH  12  13
ENDBRANCH  11  12
TORSDOF 8
ENDMDL
MODEL 4
REMARK VINA RESULT:      -7.8      4.004      4.943
REMARK  Name = 
REMARK  8 active torsions:
REMARK  status: ('A' for Active; 'I' for Inactive)
REMARK    1  A    between atoms: O_2  and  C_3
REMARK    2  A    between atoms: C_3  and  C_4
REMARK    3  A    between atoms: N_6  and  C_7
REMARK    4  A    between atoms: C_7  and  C_8
REMARK    5  A    between atoms: C_11  and  N_12
REMARK    6  A    between atoms: N_12  and  C_13
REMARK    7  A    between atoms: C_13  and  C_14
REMARK    8  A    between atoms: C_18  and  C_20
REMARK                            x       y       z     vdW  Elec       q    Type
REMARK                         _______ _______ _______ _____ _____    ______ ____
ROOT
ATOM      8  C   UNL     1       0.537   0.305  23.502  0.00  0.00    +0.169 C 
ATOM      9  O   UNL     1       0.381   1.036  23.853  0.00  0.00    -0.350 OA
ATOM     10  C   UNL     1      -0.334   0.975  24.260  0.00  0.00    +0.162 C 
ATOM     11  C   UNL     1      -0.620   0.208  24.159  0.00  0.00    +0.135 C 
ATOM     22  C   UNL     1      -0.082  -0.206  23.691  0.00  0.00    +0.199 C 
ATOM     23  O   UNL     1      -0.151  -0.993  23.454  0.00  0.00    -0.219 OA
ENDROOT
BRANCH   8   7
ATOM      7  C   UNL     1       1.196   0.120  23.042  0.00  0.00    +0.147 C 
BRANCH   7   6
ATOM      4  C   UNL     1       2.554   0.372  22.676  0.00  0.00    +0.272 C 
ATOM      5  O   UNL     1       2.464  -0.107  22.010  0.00  0.00    -0.271 OA
ATOM      6  N   UNL     1       1.920   0.485  23.192  0.00  0.00    -0.201 NA
BRANCH   4   3
ATOM      3  C   UNL     1       3.278   0.737  22.826  0.00  0.00    +0.229 C 
BRANCH   3   2
ATOM      1  C   UNL     1       4.681   0.596  23.056  0.00  0.00    +0.175 C 
ATOM      2  O   UNL     1       3.982   0.320  22.718  0.00  0.00    -0.342 OA
ENDBRANCH   3   2
ENDBRANCH   4   3
ENDBRANCH   7   6
ENDBRANCH   8   7
BRANCH  11  12
ATOM     12  N   UNL     1      -1.323  -0.092  24.473  0.00  0.00    -0.209 NA
BRANCH  12  13
ATOM     13  C   UNL     1      -1.853   0.413  24.853  0.00  0.00    +0.115 C 
BRANCH  13  14
ATOM     14  C   UNL     1      -2.618   0.154  25.023  0.00  0.00    -0.004 A 
ATOM     15  C   UNL     1      -2.740  -0.603  25.327  0.00  0.00    -0.003 A 
ATOM     16  C   UNL     1      -3.504  -0.861  25.498  0.00  0.00    +0.000 A 
ATOM     17  C   UNL     1      -4.148  -0.362  25.364  0.00  0.00    +0.010 A 
ATOM     18  C   UNL     1      -4.026   0.395  25.060  0.00  0.00    +0.068 A 
ATOM     19  C   UNL     1      -3.261   0.654  24.889  0.00  0.00    +0.007 A 
BRANCH  18  20
ATOM     20  C   UNL     1      -4.669   0.894  24.926  0.00  0.00    +0.100 C 
ATOM     21  N   UNL     1      -5.313   1.393  24.791  0.00  0.00    -0.191 NA
ENDBRANCH  18  20
ENDBRANCH  13  14
ENDBRANCH  12  13
ENDBRANCH  11  12
TORSDOF 8
ENDMDL
MODEL 5
REMARK VINA RESULT:      -7.5      1.646      5.244
REMARK  Name = 
REMARK  8 active torsions:
REMARK  status: ('A' for Active; 'I' for Inactive)
REMARK    1  A    between atoms: O_2  and  C_3
REMARK    2  A    between atoms: C_3  and  C_4
REMARK    3  A    between atoms: N_6  and  C_7
REMARK    4  A    between atoms: C_7  and  C_8
REMARK    5  A    between atoms: C_11  and  N_12
REMARK    6  A    between atoms: N_12  and  C_13
REMARK    7  A    between atoms: C_13  and  C_14
REMARK    8  A    between atoms: C_18  and  C_20
REMARK                            x       y       z     vdW  Elec       q    Type
REMARK                         _______ _______ _______ _____ _____    ______ ____
ROOT
ATOM      8  C   UNL     1      -4.099   0.716  24.339  0.00  0.00    +0.169 C 
ATOM      9  O   UNL     1      -4.560   1.052  24.937  0.00  0.00    -0.350 OA
ATOM     10  C   UNL     1      -4.282   1.816  25.073  0.00  0.00    +0.162 C 
ATOM     11  C   UNL     1      -3.651   1.954  24.561  0.00  0.00    +0.135 C 
ATOM     22  C   UNL     1      -3.538   1.274  24.107  0.00  0.00    +0.199 C 
ATOM     23  O   UNL     1      -2.964   1.170  23.524  0.00  0.00    -0.219 OA
ENDROOT
BRANCH   8   7
ATOM      7  C   UNL     1      -4.186  -0.044  24.030  0.00  0.00    +0.147 C 
BRANCH   7   6
ATOM      4  C   UNL     1      -4.095  -1.461  24.184  0.00  0.00    +0.272 C 
ATOM      5  O   UNL     1      -4.373  -1.563  23.414  0.00  0.00    -0.271 OA
ATOM      6  N   UNL     1      -4.002  -0.701  24.491  0.00  0.00    -0.201 NA
BRANCH   4   3
ATOM      3  C   UNL     1      -3.912  -2.119  24.646  0.00  0.00    +0.229 C 
BRANCH   3   2
ATOM      1  C   UNL     1      -3.247  -3.380  24.746  0.00  0.00    +0.175 C 
ATOM      2  O   UNL     1      -3.625  -2.807  24.291  0.00  0.00    -0.342 OA
ENDBRANCH   3   2
ENDBRANCH   4   3
ENDBRANCH   7   6
ENDBRANCH   8   7
BRANCH  11  12
ATOM     12  N   UNL     1      -3.210   2.650  24.510  0.00  0.00    -0.209 NA
BRANCH  12  13
ATOM     13  C   UNL     1      -3.034   3.076  25.194  0.00  0.00    +0.115 C 
BRANCH  13  14
ATOM     14  C   UNL     1      -2.324   3.493  25.249  0.00  0.00    -0.004 A 
ATOM     15  C   UNL     1      -2.300   4.295  25.060  0.00  0.00    -0.003 A 
ATOM     16  C   UNL     1      -1.590   4.711  25.114  0.00  0.00    +0.000 A 
ATOM     17  C   UNL     1      -0.903   4.325  25.358  0.00  0.00    +0.010 A 
ATOM     18  C   UNL     1      -0.926   3.522  25.546  0.00  0.00    +0.068 A 
ATOM     19  C   UNL     1      -1.637   3.105  25.492  0.00  0.00    +0.007 A 
BRANCH  18  20
ATOM     20  C   UNL     1      -0.240   3.135  25.790  0.00  0.00    +0.100 C 
ATOM     21  N   UNL     1       0.448   2.748  26.033  0.00  0.00    -0.191 NA
ENDBRANCH  18  20
ENDBRANCH  13  14
ENDBRANCH  12  13
ENDBRANCH  11  12
TORSDOF 8
ENDMDL
MODEL 6
REMARK VINA RESULT:      -7.5      2.100      2.543
REMARK  Name = 
REMARK  8 active torsions:
REMARK  status: ('A' for Active; 'I' for Inactive)
REMARK    1  A    between atoms: O_2  and  C_3
REMARK    2  A    between atoms: C_3  and  C_4
REMARK    3  A    between atoms: N_6  and  C_7
REMARK    4  A    between atoms: C_7  and  C_8
REMARK    5  A    between atoms: C_11  and  N_12
REMARK    6  A    between atoms: N_12  and  C_13
REMARK    7  A    between atoms: C_13  and  C_14
REMARK    8  A    between atoms: C_18  and  C_20
REMARK                            x       y       z     vdW  Elec       q    Type
REMARK                         _______ _______ _______ _____ _____    ______ ____
ROOT
ATOM      8  C   UNL     1      -0.685   1.680  24.958  0.00  0.00    +0.169 C 
ATOM      9  O   UNL     1      -0.746   1.438  25.745  0.00  0.00    -0.350 OA
ATOM     10  C   UNL     1      -0.957   0.640  25.750  0.00  0.00    +0.162 C 
ATOM     11  C   UNL     1      -1.027   0.390  24.967  0.00  0.00    +0.135 C 
ATOM     22  C   UNL     1      -0.858   1.032  24.478  0.00  0.00    +0.199 C 
ATOM     23  O   UNL     1      -0.863   1.028  23.653  0.00  0.00    -0.219 OA
ENDROOT
BRANCH   8   7
ATOM      7  C   UNL     1      -0.485   2.437  24.698  0.00  0.00    +0.147 C 
BRANCH   7   6
ATOM      4  C   UNL     1      -0.640   3.854  24.793  0.00  0.00    +0.272 C 
ATOM      5  O   UNL     1      -0.230   3.947  24.083  0.00  0.00    -0.271 OA
ATOM      6  N   UNL     1      -0.767   3.099  25.100  0.00  0.00    -0.201 NA
BRANCH   4   3
ATOM      3  C   UNL     1      -0.923   4.516  25.194  0.00  0.00    +0.229 C 
BRANCH   3   2
ATOM      1  C   UNL     1      -1.702   5.712  25.120  0.00  0.00    +0.175 C 
ATOM      2  O   UNL     1      -1.181   5.177  24.772  0.00  0.00    -0.342 OA
ENDBRANCH   3   2
ENDBRANCH   4   3
ENDBRANCH   7   6
ENDBRANCH   8   7
BRANCH  11  12
ATOM     12  N   UNL     1      -1.230  -0.370  24.717  0.00  0.00    -0.209 NA
BRANCH  12  13
ATOM     13  C   UNL     1      -1.703  -0.848  25.195  0.00  0.00    +0.115 C 
BRANCH  13  14
ATOM     14  C   UNL     1      -2.053  -1.527  24.882  0.00  0.00    -0.004 A 
ATOM     15  C   UNL     1      -1.618  -2.225  24.821  0.00  0.00    -0.003 A 
ATOM     16  C   UNL     1      -1.968  -2.903  24.507  0.00  0.00    +0.000 A 
ATOM     17  C   UNL     1      -2.753  -2.883  24.254  0.00  0.00    +0.010 A 
ATOM     18  C   UNL     1      -3.188  -2.184  24.315  0.00  0.00    +0.068 A 
ATOM     19  C   UNL     1      -2.838  -1.506  24.629  0.00  0.00    +0.007 A 
BRANCH  18  20
ATOM     20  C   UNL     1      -3.973  -2.164  24.063  0.00  0.00    +0.100 C 
ATOM     21  N   UNL     1      -4.759  -2.143  23.811  0.00  0.00    -0.191 NA
ENDBRANCH  18  20
ENDBRANCH  13  14
ENDBRANCH  12  13
ENDBRANCH  11  12
TORSDOF 8
ENDMDL
MODEL 7
REMARK VINA RESULT:      -6.1     16.138     18.617
REMARK  Name = 
REMARK  8 active torsions:
REMARK  status: ('A' for Active; 'I' for Inactive)
REMARK    1  A    between atoms: O_2  and  C_3
REMARK    2  A    between atoms: C_3  and  C_4
REMARK    3  A    between atoms: N_6  and  C_7
REMARK    4  A    between atoms: C_7  and  C_8
REMARK    5  A    between atoms: C_11  and  N_12
REMARK    6  A    between atoms: N_12  and  C_13
REMARK    7  A    between atoms: C_13  and  C_14
REMARK    8  A    between atoms: C_18  and  C_20
REMARK                            x       y       z     vdW  Elec       q    Type
REMARK                         _______ _______ _______ _____ _____    ______ ____
ROOT
ATOM      8  C   UNL     1      13.091   7.786  17.530  0.00  0.00    +0.169 C 
ATOM      9  O   UNL     1      13.758   7.848  18.013  0.00  0.00    -0.350 OA
ATOM     10  C   UNL     1      13.554   7.571  18.764  0.00  0.00    +0.162 C 
ATOM     11  C   UNL     1      12.764   7.339  18.744  0.00  0.00    +0.135 C 
ATOM     22  C   UNL     1      12.478   7.472  17.982  0.00  0.00    +0.199 C 
ATOM     23  O   UNL     1      11.711   7.317  17.718  0.00  0.00    -0.219 OA
ENDROOT
BRANCH   8   7
ATOM      7  C   UNL     1      13.048   8.001  16.735  0.00  0.00    +0.147 C 
BRANCH   7   6
ATOM      4  C   UNL     1      13.599   8.702  15.618  0.00  0.00    +0.272 C 
ATOM      5  O   UNL     1      12.882   8.628  15.218  0.00  0.00    -0.271 OA
ATOM      6  N   UNL     1      13.682   8.388  16.377  0.00  0.00    -0.201 NA
BRANCH   4   3
ATOM      3  C   UNL     1      14.233   9.089  15.260  0.00  0.00    +0.229 C 
BRANCH   3   2
ATOM      1  C   UNL     1      15.245   9.073  14.252  0.00  0.00    +0.175 C 
ATOM      2  O   UNL     1      14.753   8.670  14.776  0.00  0.00    -0.342 OA
ENDBRANCH   3   2
ENDBRANCH   4   3
ENDBRANCH   7   6
ENDBRANCH   8   7
BRANCH  11  12
ATOM     12  N   UNL     1      12.334   7.029  19.377  0.00  0.00    -0.209 NA
BRANCH  12  13
ATOM     13  C   UNL     1      12.274   7.453  20.082  0.00  0.00    +0.115 C 
BRANCH  13  14
ATOM     14  C   UNL     1      11.789   7.176  20.690  0.00  0.00    -0.004 A 
ATOM     15  C   UNL     1      11.637   6.368  20.761  0.00  0.00    -0.003 A 
ATOM     16  C   UNL     1      11.154   6.091  21.368  0.00  0.00    +0.000 A 
ATOM     17  C   UNL     1      10.821   6.622  21.906  0.00  0.00    +0.010 A 
ATOM     18  C   UNL     1      10.972   7.430  21.834  0.00  0.00    +0.068 A 
ATOM     19  C   UNL     1      11.457   7.707  21.226  0.00  0.00    +0.007 A 
BRANCH  18  20
ATOM     20  C   UNL     1      10.640   7.961  22.371  0.00  0.00    +0.100 C 
ATOM     21  N   UNL     1      10.307   8.492  22.908  0.00  0.00    -0.191 NA
ENDBRANCH  18  20
ENDBRANCH  13  14
ENDBRANCH  12  13
ENDBRANCH  11  12
TORSDOF 8
ENDMDL
MODEL 8
REMARK VINA RESULT:      -6.1     17.846     19.533
REMARK  Name = 
REMARK  8 active torsions:
REMARK  status: ('A' for Active; 'I' for Inactive)
REMARK    1  A    between atoms: O_2  and  C_3
REMARK    2  A    between atoms: C_3  and  C_4
REMARK    3  A    between atoms: N_6  and  C_7
REMARK    4  A    between atoms: C_7  and  C_8
REMARK    5  A    between atoms: C_11  and  N_12
REMARK    6  A    between atoms: N_12  and  C_13
REMARK    7  A    between atoms: C_13  and  C_14
REMARK    8  A    between atoms: C_18  and  C_20
REMARK                            x       y       z     vdW  Elec       q    Type
REMARK                         _______ _______ _______ _____ _____    ______ ____
ROOT
ATOM      8  C   UNL     1      12.513   8.181  19.246  0.00  0.00    +0.169 C 
ATOM      9  O   UNL     1      12.805   8.813  19.689  0.00  0.00    -0.350 OA
ATOM     10  C   UNL     1      13.514   8.573  20.037  0.00  0.00    +0.162 C 
ATOM     11  C   UNL     1      13.659   7.794  19.809  0.00  0.00    +0.135 C 
ATOM     22  C   UNL     1      13.040   7.552  19.320  0.00  0.00    +0.199 C 
ATOM     23  O   UNL     1      12.963   6.810  18.967  0.00  0.00    -0.219 OA
ENDROOT
BRANCH   8   7
ATOM      7  C   UNL     1      11.815   8.181  18.806  0.00  0.00    +0.147 C 
BRANCH   7   6
ATOM      4  C   UNL     1      11.068   8.683  17.696  0.00  0.00    +0.272 C 
ATOM      5  O   UNL     1      10.366   8.455  18.065  0.00  0.00    -0.271 OA
ATOM      6  N   UNL     1      11.792   8.546  18.067  0.00  0.00    -0.201 NA
BRANCH   4   3
ATOM      3  C   UNL     1      11.045   9.049  16.957  0.00  0.00    +0.229 C 
BRANCH   3   2
ATOM      1  C   UNL     1      10.779   8.978  15.555  0.00  0.00    +0.175 C 
ATOM      2  O   UNL     1      10.892   8.603  16.280  0.00  0.00    -0.342 OA
ENDBRANCH   3   2
ENDBRANCH   4   3
ENDBRANCH   7   6
ENDBRANCH   8   7
BRANCH  11  12
ATOM     12  N   UNL     1      14.309   7.337  20.031  0.00  0.00    -0.209 NA
BRANCH  12  13
ATOM     13  C   UNL     1      15.000   7.703  20.293  0.00  0.00    +0.115 C 
BRANCH  13  14
ATOM     14  C   UNL     1      15.684   7.256  20.414  0.00  0.00    -0.004 A 
ATOM     15  C   UNL     1      16.020   7.211  21.165  0.00  0.00    -0.003 A 
ATOM     16  C   UNL     1      16.703   6.765  21.286  0.00  0.00    +0.000 A 
ATOM     17  C   UNL     1      17.050   6.363  20.654  0.00  0.00    +0.010 A 
ATOM     18  C   UNL     1      16.713   6.408  19.903  0.00  0.00    +0.068 A 
ATOM     19  C   UNL     1      16.030   6.855  19.782  0.00  0.00    +0.007 A 
BRANCH  18  20
ATOM     20  C   UNL     1      17.059   6.006  19.271  0.00  0.00    +0.100 C 
ATOM     21  N   UNL     1      17.405   5.604  18.638  0.00  0.00    -0.191 NA
ENDBRANCH  18  20
ENDBRANCH  13  14
ENDBRANCH  12  13
ENDBRANCH  11  12
TORSDOF 8
ENDMDL
MODEL 9
REMARK VINA RESULT:      -5.6     16.342     19.314
REMARK  Name = 
REMARK  8 active torsions:
REMARK  status: ('A' for Active; 'I' for Inactive)
REMARK    1  A    between atoms: O_2  and  C_3
REMARK    2  A    between atoms: C_3  and  C_4
REMARK    3  A    between atoms: N_6  and  C_7
REMARK    4  A    between atoms: C_7  and  C_8
REMARK    5  A    between atoms: C_11  and  N_12
REMARK    6  A    between atoms: N_12  and  C_13
REMARK    7  A    between atoms: C_13  and  C_14
REMARK    8  A    between atoms: C_18  and  C_20
REMARK                            x       y       z     vdW  Elec       q    Type
REMARK                         _______ _______ _______ _____ _____    ______ ____
ROOT
ATOM      8  C   UNL     1      15.246   7.771  20.798  0.00  0.00    +0.169 C 
ATOM      9  O   UNL     1      14.876   8.135  20.156  0.00  0.00    -0.350 OA
ATOM     10  C   UNL     1      14.133   8.395  20.406  0.00  0.00    +0.162 C 
ATOM     11  C   UNL     1      14.046   8.192  21.200  0.00  0.00    +0.135 C 
ATOM     22  C   UNL     1      14.733   7.806  21.442  0.00  0.00    +0.199 C 
ATOM     23  O   UNL     1      14.881   7.507  22.197  0.00  0.00    -0.219 OA
ENDROOT
BRANCH   8   7
ATOM      7  C   UNL     1      15.998   7.431  20.793  0.00  0.00    +0.147 C 
BRANCH   7   6
ATOM      4  C   UNL     1      17.031   6.735  20.093  0.00  0.00    +0.272 C 
ATOM      5  O   UNL     1      17.405   6.569  20.810  0.00  0.00    -0.271 OA
ATOM      6  N   UNL     1      16.328   7.166  20.086  0.00  0.00    -0.201 NA
BRANCH   4   3
ATOM      3  C   UNL     1      17.360   6.470  19.386  0.00  0.00    +0.229 C 
BRANCH   3   2
ATOM      1  C   UNL     1      17.405   5.505  18.333  0.00  0.00    +0.175 C 
ATOM      2  O   UNL     1      17.152   5.730  19.084  0.00  0.00    -0.342 OA
ENDBRANCH   3   2
ENDBRANCH   4   3
ENDBRANCH   7   6
ENDBRANCH   8   7
BRANCH  11  12
ATOM     12  N   UNL     1      13.385   8.347  21.670  0.00  0.00    -0.209 NA
BRANCH  12  13
ATOM     13  C   UNL     1      12.657   8.508  21.316  0.00  0.00    +0.115 C 
BRANCH  13  14
ATOM     14  C   UNL     1      11.963   8.460  21.762  0.00  0.00    -0.004 A 
ATOM     15  C   UNL     1      11.744   9.085  22.253  0.00  0.00    -0.003 A 
ATOM     16  C   UNL     1      11.052   9.037  22.698  0.00  0.00    +0.000 A 
ATOM     17  C   UNL     1      10.577   8.364  22.651  0.00  0.00    +0.010 A 
ATOM     18  C   UNL     1      10.796   7.739  22.159  0.00  0.00    +0.068 A 
ATOM     19  C   UNL     1      11.489   7.787  21.714  0.00  0.00    +0.007 A 
BRANCH  18  20
ATOM     20  C   UNL     1      10.322   7.065  22.112  0.00  0.00    +0.100 C 
ATOM     21  N   UNL     1       9.848   6.391  22.065  0.00  0.00    -0.191 NA
ENDBRANCH  18  20
ENDBRANCH  13  14
ENDBRANCH  12  13
ENDBRANCH  11  12
TORSDOF 8
ENDMDL
MODEL 10
REMARK VINA RESULT:      -5.5     18.016     19.427
REMARK  Name = 
REMARK  8 active torsions:
REMARK  status: ('A' for Active; 'I' for Inactive)
REMARK    1  A    between atoms: O_2  and  C_3
REMARK    2  A    between atoms: C_3  and  C_4
REMARK    3  A    between atoms: N_6  and  C_7
REMARK    4  A    between atoms: C_7  and  C_8
REMARK    5  A    between atoms: C_11  and  N_12
REMARK    6  A    between atoms: N_12  and  C_13
REMARK    7  A    between atoms: C_13  and  C_14
REMARK    8  A    between atoms: C_18  and  C_20
REMARK                            x       y       z     vdW  Elec       q    Type
REMARK                         _______ _______ _______ _____ _____    ______ ____
ROOT
ATOM      8  C   UNL     1      13.699   7.226  20.045  0.00  0.00    +0.169 C 
ATOM      9  O   UNL     1      13.150   7.694  20.447  0.00  0.00    -0.350 OA
ATOM     10  C   UNL     1      12.562   7.911  19.912  0.00  0.00    +0.162 C 
ATOM     11  C   UNL     1      12.746   7.579  19.180  0.00  0.00    +0.135 C 
ATOM     22  C   UNL     1      13.449   7.155  19.263  0.00  0.00    +0.199 C 
ATOM     23  O   UNL     1      13.835   6.734  18.667  0.00  0.00    -0.219 OA
ENDROOT
BRANCH   8   7
ATOM      7  C   UNL     1      14.378   6.889  20.371  0.00  0.00    +0.147 C 
BRANCH   7   6
ATOM      4  C   UNL     1      15.610   7.036  21.081  0.00  0.00    +0.272 C 
ATOM      5  O   UNL     1      15.821   6.266  20.874  0.00  0.00    -0.271 OA
ATOM      6  N   UNL     1      14.888   7.347  20.829  0.00  0.00    -0.201 NA
BRANCH   4   3
ATOM      3  C   UNL     1      16.119   7.494  21.539  0.00  0.00    +0.229 C 
BRANCH   3   2
ATOM      1  C   UNL     1      17.405   8.117  21.554  0.00  0.00    +0.175 C 
ATOM      2  O   UNL     1      16.934   7.455  21.415  0.00  0.00    -0.342 OA
ENDBRANCH   3   2
ENDBRANCH   4   3
ENDBRANCH   7   6
ENDBRANCH   8   7
BRANCH  11  12
ATOM     12  N   UNL     1      12.305   7.656  18.487  0.00  0.00    -0.209 NA
BRANCH  12  13
ATOM     13  C   UNL     1      11.851   8.334  18.362  0.00  0.00    +0.115 C 
BRANCH  13  14
ATOM     14  C   UNL     1      11.621   8.540  17.596  0.00  0.00    -0.004 A 
ATOM     15  C   UNL     1      10.822   8.630  17.415  0.00  0.00    -0.003 A 
ATOM     16  C   UNL     1      10.592   8.835  16.650  0.00  0.00    +0.000 A 
ATOM     17  C   UNL     1      11.163   8.952  16.065  0.00  0.00    +0.010 A 
ATOM     18  C   UNL     1      11.963   8.862  16.246  0.00  0.00    +0.068 A 
ATOM     19  C   UNL     1      12.192   8.656  17.012  0.00  0.00    +0.007 A 
BRANCH  18  20
ATOM     20  C   UNL     1      12.534   8.978  15.662  0.00  0.00    +0.100 C 
ATOM     21  N   UNL     1      13.106   9.094  15.079  0.00  0.00    -0.191 NA
ENDBRANCH  18  20
ENDBRANCH  13  14
ENDBRANCH  12  13
ENDBRANCH  11  12
TORSDOF 8
ENDMDL
