MODEL 1
REMARK VINA RESULT:     -11.3      0.000      0.000
REMARK  Name = 
REMARK  10 active torsions:
REMARK  status: ('A' for Active; 'I' for Inactive)
REMARK    1  A    between atoms: O_2  and  C_3
REMARK    2  A    between atoms: C_6  and  C_7
REMARK    3  A    between atoms: C_7  and  N_8
REMARK    4  A    between atoms: N_8  and  C_9
REMARK    5  A    between atoms: C_14  and  C_15
REMARK    6  A    between atoms: C_15  and  C_16
REMARK    7  A    between atoms: C_16  and  C_17
REMARK    8  A    between atoms: N_19  and  C_20
REMARK    9  A    between atoms: C_20  and  C_21
REMARK   10  A    between atoms: C_24  and  O_25
REMARK                            x       y       z     vdW  Elec       q    Type
REMARK                         _______ _______ _______ _____ _____    ______ ____
ROOT
ATOM      9  C   UNL     1      -4.850   1.433  25.023  0.00  0.00    +0.091 C 
ATOM     10  C   UNL     1      -5.496   1.810  25.371  0.00  0.00    +0.044 C 
ATOM     11  C   UNL     1      -5.310   2.609  25.456  0.00  0.00    +0.138 C 
ATOM     12  N   UNL     1      -4.549   2.726  25.160  0.00  0.00    -0.265 NA
ATOM     13  C   UNL     1      -4.265   1.999  24.892  0.00  0.00    +0.090 C 
ATOM     14  C   UNL     1      -4.214   3.480  25.172  0.00  0.00    +0.080 C 
ATOM     29  C   UNL     1      -4.639   4.116  25.480  0.00  0.00    +0.131 C 
ATOM     30  N   UNL     1      -5.399   3.998  25.776  0.00  0.00    -0.203 NA
ATOM     31  C   UNL     1      -5.736   3.245  25.764  0.00  0.00    +0.256 C 
ATOM     32  O   UNL     1      -6.496   3.127  26.060  0.00  0.00    -0.272 OA
ENDROOT
BRANCH   9   8
ATOM      8  N   UNL     1      -4.799   0.631  24.838  0.00  0.00    -0.213 NA
BRANCH   8   7
ATOM      7  C   UNL     1      -4.078   0.307  24.599  0.00  0.00    +0.115 C 
BRANCH   7   6
ATOM      3  C   UNL     1      -3.760  -2.148  24.618  0.00  0.00    +0.139 A 
ATOM      4  C   UNL     1      -3.568  -1.702  25.285  0.00  0.00    +0.037 A 
ATOM      5  C   UNL     1      -3.675  -0.884  25.278  0.00  0.00    +0.000 A 
ATOM      6  C   UNL     1      -3.972  -0.511  24.606  0.00  0.00    -0.005 A 
ATOM     33  C   UNL     1      -4.164  -0.957  23.938  0.00  0.00    +0.000 A 
ATOM     34  C   UNL     1      -4.058  -1.775  23.944  0.00  0.00    +0.037 A 
BRANCH   3   2
ATOM      1  C   UNL     1      -2.906  -3.286  24.487  0.00  0.00    +0.252 C 
ATOM      2  O   UNL     1      -3.654  -2.966  24.623  0.00  0.00    -0.471 OA
ENDBRANCH   3   2
ENDBRANCH   7   6
ENDBRANCH   8   7
ENDBRANCH   9   8
BRANCH  14  15
ATOM     15  C   UNL     1      -3.453   3.596  24.876  0.00  0.00    +0.027 C 
BRANCH  15  16
ATOM     16  C   UNL     1      -2.869   3.926  25.358  0.00  0.00    +0.088 C 
BRANCH  16  17
ATOM     17  C   UNL     1      -2.071   3.788  25.193  0.00  0.00    +0.242 C 
ATOM     18  O   UNL     1      -1.578   4.416  24.990  0.00  0.00    -0.273 OA
ATOM     19  N   UNL     1      -1.770   3.021  25.232  0.00  0.00    -0.201 NA
BRANCH  19  20
ATOM     20  C   UNL     1      -0.973   2.884  25.068  0.00  0.00    +0.141 C 
BRANCH  20  21
ATOM     21  C   UNL     1      -0.708   2.114  24.929  0.00  0.00    -0.000 A 
ATOM     22  C   UNL     1      -0.718   1.559  25.538  0.00  0.00    +0.001 A 
ATOM     23  C   UNL     1      -0.453   0.789  25.399  0.00  0.00    +0.037 A 
ATOM     24  C   UNL     1      -0.178   0.577  24.651  0.00  0.00    +0.139 A 
ATOM     27  C   UNL     1      -0.169   1.133  24.042  0.00  0.00    +0.037 A 
ATOM     28  C   UNL     1      -0.434   1.902  24.180  0.00  0.00    +0.001 A 
BRANCH  24  25
ATOM     25  O   UNL     1       0.086  -0.192  24.512  0.00  0.00    -0.471 OA
ATOM     26  C   UNL     1      -0.245  -0.640  23.903  0.00  0.00    +0.252 C 
ENDBRANCH  24  25
ENDBRANCH  20  21
ENDBRANCH  19  20
ENDBRANCH  16  17
ENDBRANCH  15  16
ENDBRANCH  14  15
TORSDOF 10
ENDMDL
MODEL 2
REMARK VINA RESULT:     -11.3      1.262      4.490
REMARK  Name = 
REMARK  10 active torsions:
REMARK  status: ('A' for Active; 'I' for Inactive)
REMARK    1  A    between atoms: O_2  and  C_3
REMARK    2  A    between atoms: C_6  and  C_7
REMARK    3  A    between atoms: C_7  and  N_8
REMARK    4  A    between atoms: N_8  and  C_9
REMARK    5  A    between atoms: C_14  and  C_15
REMARK    6  A    between atoms: C_15  and  C_16
REMARK    7  A    between atoms: C_16  and  C_17
REMARK    8  A    between atoms: N_19  and  C_20
REMARK    9  A    between atoms: C_20  and  C_21
REMARK   10  A    between atoms: C_24  and  O_25
REMARK                            x       y       z     vdW  Elec       q    Type
REMARK                         _______ _______ _______ _____ _____    ______ ____
ROOT
ATOM      9  C   UNL     1      -3.811  -0.546  25.033  0.00  0.00    +0.091 C 
ATOM     10  C   UNL     1      -3.987  -1.330  24.841  0.00  0.00    +0.044 C 
ATOM     11  C   UNL     1      -3.275  -1.725  24.708  0.00  0.00    +0.138 C 
ATOM     12  N   UNL     1      -2.659  -1.187  24.819  0.00  0.00    -0.265 NA
ATOM     13  C   UNL     1      -2.991  -0.458  25.019  0.00  0.00    +0.090 C 
ATOM     14  C   UNL     1      -1.877  -1.430  24.722  0.00  0.00    +0.080 C 
ATOM     29  C   UNL     1      -1.710  -2.211  24.515  0.00  0.00    +0.131 C 
ATOM     30  N   UNL     1      -2.325  -2.749  24.405  0.00  0.00    -0.203 NA
ATOM     31  C   UNL     1      -3.108  -2.506  24.502  0.00  0.00    +0.256 C 
ATOM     32  O   UNL     1      -3.723  -3.044  24.392  0.00  0.00    -0.272 OA
ENDROOT
BRANCH   9   8
ATOM      8  N   UNL     1      -4.359   0.044  25.208  0.00  0.00    -0.213 NA
BRANCH   8   7
ATOM      7  C   UNL     1      -4.470   0.673  24.685  0.00  0.00    +0.115 C 
BRANCH   7   6
ATOM      3  C   UNL     1      -5.462   2.792  25.493  0.00  0.00    +0.139 A 
ATOM      4  C   UNL     1      -5.827   2.073  25.667  0.00  0.00    +0.037 A 
ATOM      5  C   UNL     1      -5.496   1.367  25.398  0.00  0.00    +0.000 A 
ATOM      6  C   UNL     1      -4.801   1.379  24.955  0.00  0.00    -0.005 A 
ATOM     33  C   UNL     1      -4.436   2.098  24.780  0.00  0.00    +0.000 A 
ATOM     34  C   UNL     1      -4.765   2.805  25.049  0.00  0.00    +0.037 A 
BRANCH   3   2
ATOM      1  C   UNL     1      -5.426   4.218  25.586  0.00  0.00    +0.252 C 
ATOM      2  O   UNL     1      -5.791   3.499  25.762  0.00  0.00    -0.471 OA
ENDBRANCH   3   2
ENDBRANCH   7   6
ENDBRANCH   8   7
ENDBRANCH   9   8
BRANCH  14  15
ATOM     15  C   UNL     1      -1.262  -0.891  24.832  0.00  0.00    +0.027 C 
BRANCH  15  16
ATOM     16  C   UNL     1      -0.778  -0.682  24.197  0.00  0.00    +0.088 C 
BRANCH  16  17
ATOM     17  C   UNL     1      -0.266  -0.038  24.262  0.00  0.00    +0.242 C 
ATOM     18  O   UNL     1       0.544  -0.143  24.159  0.00  0.00    -0.273 OA
ATOM     19  N   UNL     1      -0.567   0.712  24.431  0.00  0.00    -0.201 NA
BRANCH  19  20
ATOM     20  C   UNL     1      -0.056   1.355  24.496  0.00  0.00    +0.141 C 
BRANCH  20  21
ATOM     21  C   UNL     1      -0.349   2.094  24.718  0.00  0.00    -0.000 A 
ATOM     22  C   UNL     1      -0.260   2.356  25.496  0.00  0.00    +0.001 A 
ATOM     23  C   UNL     1      -0.554   3.095  25.718  0.00  0.00    +0.037 A 
ATOM     24  C   UNL     1      -0.936   3.571  25.163  0.00  0.00    +0.139 A 
ATOM     27  C   UNL     1      -1.024   3.308  24.386  0.00  0.00    +0.037 A 
ATOM     28  C   UNL     1      -0.731   2.570  24.163  0.00  0.00    +0.001 A 
BRANCH  24  25
ATOM     25  O   UNL     1      -1.229   4.309  25.385  0.00  0.00    -0.471 OA
ATOM     26  C   UNL     1      -0.991   4.987  24.980  0.00  0.00    +0.252 C 
ENDBRANCH  24  25
ENDBRANCH  20  21
ENDBRANCH  19  20
ENDBRANCH  16  17
ENDBRANCH  15  16
ENDBRANCH  14  15
TORSDOF 10
ENDMDL
MODEL 3
REMARK VINA RESULT:     -11.0      1.165      4.169
REMARK  Name = 
REMARK  10 active torsions:
REMARK  status: ('A' for Active; 'I' for Inactive)
REMARK    1  A    between atoms: O_2  and  C_3
REMARK    2  A    between atoms: C_6  and  C_7
REMARK    3  A    between atoms: C_7  and  N_8
REMARK    4  A    between atoms: N_8  and  C_9
REMARK    5  A    between atoms: C_14  and  C_15
REMARK    6  A    between atoms: C_15  and  C_16
REMARK    7  A    between atoms: C_16  and  C_17
REMARK    8  A    between atoms: N_19  and  C_20
REMARK    9  A    between atoms: C_20  and  C_21
REMARK   10  A    between atoms: C_24  and  O_25
REMARK                            x       y       z     vdW  Elec       q    Type
REMARK                         _______ _______ _______ _____ _____    ______ ____
ROOT
ATOM      9  C   UNL     1      -1.285   2.748  24.392  0.00  0.00    +0.091 C 
ATOM     10  C   UNL     1      -1.249   3.470  24.792  0.00  0.00    +0.044 C 
ATOM     11  C   UNL     1      -2.017   3.680  25.008  0.00  0.00    +0.138 C 
ATOM     12  N   UNL     1      -2.528   3.087  24.742  0.00  0.00    -0.265 NA
ATOM     13  C   UNL     1      -2.074   2.512  24.362  0.00  0.00    +0.090 C 
ATOM     14  C   UNL     1      -3.338   3.149  24.881  0.00  0.00    +0.080 C 
ATOM     29  C   UNL     1      -3.639   3.802  25.285  0.00  0.00    +0.131 C 
ATOM     30  N   UNL     1      -3.130   4.394  25.551  0.00  0.00    -0.203 NA
ATOM     31  C   UNL     1      -2.318   4.333  25.412  0.00  0.00    +0.256 C 
ATOM     32  O   UNL     1      -1.809   4.924  25.678  0.00  0.00    -0.272 OA
ENDROOT
BRANCH   9   8
ATOM      8  N   UNL     1      -0.643   2.336  24.079  0.00  0.00    -0.213 NA
BRANCH   8   7
ATOM      7  C   UNL     1      -0.436   1.599  24.385  0.00  0.00    +0.115 C 
BRANCH   7   6
ATOM      3  C   UNL     1       1.178   0.166  23.173  0.00  0.00    +0.139 A 
ATOM      4  C   UNL     1       0.404  -0.094  23.293  0.00  0.00    +0.037 A 
ATOM      5  C   UNL     1      -0.134   0.383  23.697  0.00  0.00    +0.000 A 
ATOM      6  C   UNL     1       0.101   1.121  23.981  0.00  0.00    -0.005 A 
ATOM     33  C   UNL     1       0.875   1.381  23.861  0.00  0.00    +0.000 A 
ATOM     34  C   UNL     1       1.414   0.905  23.457  0.00  0.00    +0.037 A 
BRANCH   3   2
ATOM      1  C   UNL     1       2.345   0.032  22.360  0.00  0.00    +0.252 C 
ATOM      2  O   UNL     1       1.716  -0.311  22.769  0.00  0.00    -0.471 OA
ENDBRANCH   3   2
ENDBRANCH   7   6
ENDBRANCH   8   7
ENDBRANCH   9   8
BRANCH  14  15
ATOM     15  C   UNL     1      -3.848   2.557  24.615  0.00  0.00    +0.027 C 
BRANCH  15  16
ATOM     16  C   UNL     1      -4.389   2.214  25.137  0.00  0.00    +0.088 C 
BRANCH  16  17
ATOM     17  C   UNL     1      -4.749   1.497  24.944  0.00  0.00    +0.242 C 
ATOM     18  O   UNL     1      -5.528   1.487  24.674  0.00  0.00    -0.273 OA
ATOM     19  N   UNL     1      -4.330   0.791  25.022  0.00  0.00    -0.201 NA
BRANCH  19  20
ATOM     20  C   UNL     1      -4.691   0.075  24.829  0.00  0.00    +0.141 C 
BRANCH  20  21
ATOM     21  C   UNL     1      -4.242  -0.617  24.797  0.00  0.00    -0.000 A 
ATOM     22  C   UNL     1      -3.766  -0.829  25.436  0.00  0.00    +0.001 A 
ATOM     23  C   UNL     1      -3.317  -1.522  25.404  0.00  0.00    +0.037 A 
ATOM     24  C   UNL     1      -3.344  -2.000  24.733  0.00  0.00    +0.139 A 
ATOM     27  C   UNL     1      -3.821  -1.787  24.094  0.00  0.00    +0.037 A 
ATOM     28  C   UNL     1      -4.269  -1.096  24.126  0.00  0.00    +0.001 A 
BRANCH  24  25
ATOM     25  O   UNL     1      -2.896  -2.691  24.701  0.00  0.00    -0.471 OA
ATOM     26  C   UNL     1      -2.108  -2.662  24.459  0.00  0.00    +0.252 C 
ENDBRANCH  24  25
ENDBRANCH  20  21
ENDBRANCH  19  20
ENDBRANCH  16  17
ENDBRANCH  15  16
ENDBRANCH  14  15
TORSDOF 10
ENDMDL
MODEL 4
REMARK VINA RESULT:     -10.8      1.482      5.812
REMARK  Name = 
REMARK  10 active torsions:
REMARK  status: ('A' for Active; 'I' for Inactive)
REMARK    1  A    between atoms: O_2  and  C_3
REMARK    2  A    between atoms: C_6  and  C_7
REMARK    3  A    between atoms: C_7  and  N_8
REMARK    4  A    between atoms: N_8  and  C_9
REMARK    5  A    between atoms: C_14  and  C_15
REMARK    6  A    between atoms: C_15  and  C_16
REMARK    7  A    between atoms: C_16  and  C_17
REMARK    8  A    between atoms: N_19  and  C_20
REMARK    9  A    between atoms: C_20  and  C_21
REMARK   10  A    between atoms: C_24  and  O_25
REMARK                            x       y       z     vdW  Elec       q    Type
REMARK                         _______ _______ _______ _____ _____    ______ ____
ROOT
ATOM      9  C   UNL     1      -0.842   0.412  24.774  0.00  0.00    +0.091 C 
ATOM     10  C   UNL     1      -0.401  -0.241  25.020  0.00  0.00    +0.044 C 
ATOM     11  C   UNL     1      -0.880  -0.910  24.959  0.00  0.00    +0.138 C 
ATOM     12  N   UNL     1      -1.618  -0.670  24.675  0.00  0.00    -0.265 NA
ATOM     13  C   UNL     1      -1.593   0.147  24.561  0.00  0.00    +0.090 C 
ATOM     14  C   UNL     1      -2.215  -1.227  24.557  0.00  0.00    +0.080 C 
ATOM     29  C   UNL     1      -2.076  -2.023  24.724  0.00  0.00    +0.131 C 
ATOM     30  N   UNL     1      -1.340  -2.262  25.007  0.00  0.00    -0.203 NA
ATOM     31  C   UNL     1      -0.741  -1.706  25.125  0.00  0.00    +0.256 C 
ATOM     32  O   UNL     1      -0.005  -1.945  25.409  0.00  0.00    -0.272 OA
ENDROOT
BRANCH   9   8
ATOM      8  N   UNL     1      -0.577   1.192  24.746  0.00  0.00    -0.213 NA
BRANCH   8   7
ATOM      7  C   UNL     1      -0.655   1.679  25.408  0.00  0.00    +0.115 C 
BRANCH   7   6
ATOM      3  C   UNL     1      -0.856   4.130  25.123  0.00  0.00    +0.139 A 
ATOM      4  C   UNL     1      -0.336   3.701  24.647  0.00  0.00    +0.037 A 
ATOM      5  C   UNL     1      -0.270   2.884  24.742  0.00  0.00    +0.000 A 
ATOM      6  C   UNL     1      -0.722   2.496  25.312  0.00  0.00    -0.005 A 
ATOM     33  C   UNL     1      -1.242   2.925  25.788  0.00  0.00    +0.000 A 
ATOM     34  C   UNL     1      -1.310   3.742  25.694  0.00  0.00    +0.037 A 
BRANCH   3   2
ATOM      1  C   UNL     1      -1.660   5.311  25.102  0.00  0.00    +0.252 C 
ATOM      2  O   UNL     1      -0.924   4.946  25.029  0.00  0.00    -0.471 OA
ENDBRANCH   3   2
ENDBRANCH   7   6
ENDBRANCH   8   7
ENDBRANCH   9   8
BRANCH  14  15
ATOM     15  C   UNL     1      -2.951  -0.987  24.274  0.00  0.00    +0.027 C 
BRANCH  15  16
ATOM     16  C   UNL     1      -3.619  -1.049  24.755  0.00  0.00    +0.088 C 
BRANCH  16  17
ATOM     17  C   UNL     1      -4.303  -0.627  24.568  0.00  0.00    +0.242 C 
ATOM     18  O   UNL     1      -4.848  -0.942  24.036  0.00  0.00    -0.273 OA
ATOM     19  N   UNL     1      -4.441   0.109  24.914  0.00  0.00    -0.201 NA
BRANCH  19  20
ATOM     20  C   UNL     1      -5.125   0.529  24.726  0.00  0.00    +0.141 C 
BRANCH  20  21
ATOM     21  C   UNL     1      -5.224   1.300  25.005  0.00  0.00    -0.000 A 
ATOM     22  C   UNL     1      -4.762   1.911  24.699  0.00  0.00    +0.001 A 
ATOM     23  C   UNL     1      -4.861   2.682  24.977  0.00  0.00    +0.037 A 
ATOM     24  C   UNL     1      -5.422   2.841  25.561  0.00  0.00    +0.139 A 
ATOM     27  C   UNL     1      -5.884   2.229  25.866  0.00  0.00    +0.037 A 
ATOM     28  C   UNL     1      -5.785   1.460  25.589  0.00  0.00    +0.001 A 
BRANCH  24  25
ATOM     25  O   UNL     1      -5.520   3.611  25.839  0.00  0.00    -0.471 OA
ATOM     26  C   UNL     1      -5.069   4.226  25.522  0.00  0.00    +0.252 C 
ENDBRANCH  24  25
ENDBRANCH  20  21
ENDBRANCH  19  20
ENDBRANCH  16  17
ENDBRANCH  15  16
ENDBRANCH  14  15
TORSDOF 10
ENDMDL
MODEL 5
REMARK VINA RESULT:     -10.7      1.174      4.079
REMARK  Name = 
REMARK  10 active torsions:
REMARK  status: ('A' for Active; 'I' for Inactive)
REMARK    1  A    between atoms: O_2  and  C_3
REMARK    2  A    between atoms: C_6  and  C_7
REMARK    3  A    between atoms: C_7  and  N_8
REMARK    4  A    between atoms: N_8  and  C_9
REMARK    5  A    between atoms: C_14  and  C_15
REMARK    6  A    between atoms: C_15  and  C_16
REMARK    7  A    between atoms: C_16  and  C_17
REMARK    8  A    between atoms: N_19  and  C_20
REMARK    9  A    between atoms: C_20  and  C_21
REMARK   10  A    between atoms: C_24  and  O_25
REMARK                            x       y       z     vdW  Elec       q    Type
REMARK                         _______ _______ _______ _____ _____    ______ ____
ROOT
ATOM      9  C   UNL     1      -1.133   0.450  24.839  0.00  0.00    +0.091 C 
ATOM     10  C   UNL     1      -0.401   0.479  24.458  0.00  0.00    +0.044 C 
ATOM     11  C   UNL     1      -0.115   1.251  24.513  0.00  0.00    +0.138 C 
ATOM     12  N   UNL     1      -0.671   1.700  24.927  0.00  0.00    -0.265 NA
ATOM     13  C   UNL     1      -1.300   1.204  25.128  0.00  0.00    +0.090 C 
ATOM     14  C   UNL     1      -0.532   2.501  25.067  0.00  0.00    +0.080 C 
ATOM     29  C   UNL     1       0.161   2.854  24.793  0.00  0.00    +0.131 C 
ATOM     30  N   UNL     1       0.716   2.406  24.379  0.00  0.00    -0.203 NA
ATOM     31  C   UNL     1       0.578   1.604  24.239  0.00  0.00    +0.256 C 
ATOM     32  O   UNL     1       1.133   1.156  23.825  0.00  0.00    -0.272 OA
ENDROOT
BRANCH   9   8
ATOM      8  N   UNL     1      -1.612  -0.216  24.916  0.00  0.00    -0.213 NA
BRANCH   8   7
ATOM      7  C   UNL     1      -2.425  -0.130  25.029  0.00  0.00    +0.115 C 
BRANCH   7   6
ATOM      3  C   UNL     1      -3.971  -1.926  24.314  0.00  0.00    +0.139 A 
ATOM      4  C   UNL     1      -3.456  -2.052  24.946  0.00  0.00    +0.037 A 
ATOM      5  C   UNL     1      -2.941  -1.453  25.184  0.00  0.00    +0.000 A 
ATOM      6  C   UNL     1      -2.940  -0.729  24.791  0.00  0.00    -0.005 A 
ATOM     33  C   UNL     1      -3.455  -0.602  24.159  0.00  0.00    +0.000 A 
ATOM     34  C   UNL     1      -3.971  -1.200  23.920  0.00  0.00    +0.037 A 
BRANCH   3   2
ATOM      1  C   UNL     1      -4.190  -3.206  23.718  0.00  0.00    +0.252 C 
ATOM      2  O   UNL     1      -4.486  -2.524  24.076  0.00  0.00    -0.471 OA
ENDBRANCH   3   2
ENDBRANCH   7   6
ENDBRANCH   8   7
ENDBRANCH   9   8
BRANCH  14  15
ATOM     15  C   UNL     1      -1.088   2.948  25.481  0.00  0.00    +0.027 C 
BRANCH  15  16
ATOM     16  C   UNL     1      -1.348   3.669  25.174  0.00  0.00    +0.088 C 
BRANCH  16  17
ATOM     17  C   UNL     1      -2.081   3.975  25.401  0.00  0.00    +0.242 C 
ATOM     18  O   UNL     1      -2.117   4.635  25.892  0.00  0.00    -0.273 OA
ATOM     19  N   UNL     1      -2.776   3.618  25.137  0.00  0.00    -0.201 NA
BRANCH  19  20
ATOM     20  C   UNL     1      -3.507   3.923  25.365  0.00  0.00    +0.141 C 
BRANCH  20  21
ATOM     21  C   UNL     1      -4.190   3.466  25.278  0.00  0.00    -0.000 A 
ATOM     22  C   UNL     1      -4.342   3.086  24.562  0.00  0.00    +0.001 A 
ATOM     23  C   UNL     1      -5.025   2.630  24.475  0.00  0.00    +0.037 A 
ATOM     24  C   UNL     1      -5.553   2.554  25.104  0.00  0.00    +0.139 A 
ATOM     27  C   UNL     1      -5.399   2.935  25.820  0.00  0.00    +0.037 A 
ATOM     28  C   UNL     1      -4.718   3.391  25.907  0.00  0.00    +0.001 A 
BRANCH  24  25
ATOM     25  O   UNL     1      -6.234   2.098  25.017  0.00  0.00    -0.471 OA
ATOM     26  C   UNL     1      -6.262   1.333  25.325  0.00  0.00    +0.252 C 
ENDBRANCH  24  25
ENDBRANCH  20  21
ENDBRANCH  19  20
ENDBRANCH  16  17
ENDBRANCH  15  16
ENDBRANCH  14  15
TORSDOF 10
ENDMDL
MODEL 6
REMARK VINA RESULT:      -9.9      1.256      3.798
REMARK  Name = 
REMARK  10 active torsions:
REMARK  status: ('A' for Active; 'I' for Inactive)
REMARK    1  A    between atoms: O_2  and  C_3
REMARK    2  A    between atoms: C_6  and  C_7
REMARK    3  A    between atoms: C_7  and  N_8
REMARK    4  A    between atoms: N_8  and  C_9
REMARK    5  A    between atoms: C_14  and  C_15
REMARK    6  A    between atoms: C_15  and  C_16
REMARK    7  A    between atoms: C_16  and  C_17
REMARK    8  A    between atoms: N_19  and  C_20
REMARK    9  A    between atoms: C_20  and  C_21
REMARK   10  A    between atoms: C_24  and  O_25
REMARK                            x       y       z     vdW  Elec       q    Type
REMARK                         _______ _______ _______ _____ _____    ______ ____
ROOT
ATOM      9  C   UNL     1      -3.375   3.314  24.983  0.00  0.00    +0.091 C 
ATOM     10  C   UNL     1      -3.991   3.764  25.299  0.00  0.00    +0.044 C 
ATOM     11  C   UNL     1      -4.670   3.297  25.308  0.00  0.00    +0.138 C 
ATOM     12  N   UNL     1      -4.475   2.557  24.998  0.00  0.00    -0.265 NA
ATOM     13  C   UNL     1      -3.674   2.568  24.797  0.00  0.00    +0.090 C 
ATOM     14  C   UNL     1      -5.051   1.970  24.938  0.00  0.00    +0.080 C 
ATOM     29  C   UNL     1      -5.823   2.122  25.189  0.00  0.00    +0.131 C 
ATOM     30  N   UNL     1      -6.017   2.861  25.498  0.00  0.00    -0.203 NA
ATOM     31  C   UNL     1      -5.442   3.449  25.558  0.00  0.00    +0.256 C 
ATOM     32  O   UNL     1      -5.636   4.187  25.868  0.00  0.00    -0.272 OA
ENDROOT
BRANCH   9   8
ATOM      8  N   UNL     1      -2.598   3.566  24.873  0.00  0.00    -0.213 NA
BRANCH   8   7
ATOM      7  C   UNL     1      -2.035   3.440  25.464  0.00  0.00    +0.115 C 
BRANCH   7   6
ATOM      3  C   UNL     1       0.136   2.394  24.900  0.00  0.00    +0.139 A 
ATOM      4  C   UNL     1      -0.184   2.299  25.654  0.00  0.00    +0.037 A 
ATOM      5  C   UNL     1      -0.908   2.648  25.842  0.00  0.00    +0.000 A 
ATOM      6  C   UNL     1      -1.311   3.091  25.276  0.00  0.00    -0.005 A 
ATOM     33  C   UNL     1      -0.992   3.187  24.522  0.00  0.00    +0.000 A 
ATOM     34  C   UNL     1      -0.268   2.839  24.333  0.00  0.00    +0.037 A 
BRANCH   3   2
ATOM      1  C   UNL     1       0.931   1.585  24.031  0.00  0.00    +0.252 C 
ATOM      2  O   UNL     1       0.860   2.046  24.711  0.00  0.00    -0.471 OA
ENDBRANCH   3   2
ENDBRANCH   7   6
ENDBRANCH   8   7
ENDBRANCH   9   8
BRANCH  14  15
ATOM     15  C   UNL     1      -4.856   1.231  24.629  0.00  0.00    +0.027 C 
BRANCH  15  16
ATOM     16  C   UNL     1      -4.916   0.557  25.101  0.00  0.00    +0.088 C 
BRANCH  16  17
ATOM     17  C   UNL     1      -4.557  -0.148  24.863  0.00  0.00    +0.242 C 
ATOM     18  O   UNL     1      -4.916  -0.620  24.291  0.00  0.00    -0.273 OA
ATOM     19  N   UNL     1      -3.840  -0.378  25.198  0.00  0.00    -0.201 NA
BRANCH  19  20
ATOM     20  C   UNL     1      -3.482  -1.082  24.960  0.00  0.00    +0.141 C 
BRANCH  20  21
ATOM     21  C   UNL     1      -2.667  -1.181  25.049  0.00  0.00    -0.000 A 
ATOM     22  C   UNL     1      -2.287  -0.883  25.718  0.00  0.00    +0.001 A 
ATOM     23  C   UNL     1      -1.472  -0.981  25.806  0.00  0.00    +0.037 A 
ATOM     24  C   UNL     1      -1.038  -1.377  25.227  0.00  0.00    +0.139 A 
ATOM     27  C   UNL     1      -1.420  -1.675  24.558  0.00  0.00    +0.037 A 
ATOM     28  C   UNL     1      -2.233  -1.577  24.469  0.00  0.00    +0.001 A 
BRANCH  24  25
ATOM     25  O   UNL     1      -0.225  -1.475  25.316  0.00  0.00    -0.471 OA
ATOM     26  C   UNL     1       0.097  -2.234  25.368  0.00  0.00    +0.252 C 
ENDBRANCH  24  25
ENDBRANCH  20  21
ENDBRANCH  19  20
ENDBRANCH  16  17
ENDBRANCH  15  16
ENDBRANCH  14  15
TORSDOF 10
ENDMDL
MODEL 7
REMARK VINA RESULT:      -9.8      1.610      4.840
REMARK  Name = 
REMARK  10 active torsions:
REMARK  status: ('A' for Active; 'I' for Inactive)
REMARK    1  A    between atoms: O_2  and  C_3
REMARK    2  A    between atoms: C_6  and  C_7
REMARK    3  A    between atoms: C_7  and  N_8
REMARK    4  A    between atoms: N_8  and  C_9
REMARK    5  A    between atoms: C_14  and  C_15
REMARK    6  A    between atoms: C_15  and  C_16
REMARK    7  A    between atoms: C_16  and  C_17
REMARK    8  A    between atoms: N_19  and  C_20
REMARK    9  A    between atoms: C_20  and  C_21
REMARK   10  A    between atoms: C_24  and  O_25
REMARK                            x       y       z     vdW  Elec       q    Type
REMARK                         _______ _______ _______ _____ _____    ______ ____
ROOT
ATOM      9  C   UNL     1      -1.545  -0.708  24.431  0.00  0.00    +0.091 C 
ATOM     10  C   UNL     1      -1.799  -1.471  24.615  0.00  0.00    +0.044 C 
ATOM     11  C   UNL     1      -2.621  -1.454  24.691  0.00  0.00    +0.138 C 
ATOM     12  N   UNL     1      -2.873  -0.680  24.554  0.00  0.00    -0.265 NA
ATOM     13  C   UNL     1      -2.208  -0.219  24.393  0.00  0.00    +0.090 C 
ATOM     14  C   UNL     1      -3.676  -0.496  24.593  0.00  0.00    +0.080 C 
ATOM     29  C   UNL     1      -4.227  -1.084  24.770  0.00  0.00    +0.131 C 
ATOM     30  N   UNL     1      -3.974  -1.857  24.906  0.00  0.00    -0.203 NA
ATOM     31  C   UNL     1      -3.171  -2.043  24.867  0.00  0.00    +0.256 C 
ATOM     32  O   UNL     1      -2.919  -2.815  25.004  0.00  0.00    -0.272 OA
ENDROOT
BRANCH   9   8
ATOM      8  N   UNL     1      -0.763  -0.475  24.306  0.00  0.00    -0.213 NA
BRANCH   8   7
ATOM      7  C   UNL     1      -0.590   0.110  23.752  0.00  0.00    +0.115 C 
BRANCH   7   6
ATOM      3  C   UNL     1       1.767   0.661  23.232  0.00  0.00    +0.139 A 
ATOM      4  C   UNL     1       1.431  -0.032  22.936  0.00  0.00    +0.037 A 
ATOM      5  C   UNL     1       0.645  -0.215  23.109  0.00  0.00    +0.000 A 
ATOM      6  C   UNL     1       0.196   0.293  23.578  0.00  0.00    -0.005 A 
ATOM     33  C   UNL     1       0.532   0.986  23.874  0.00  0.00    +0.000 A 
ATOM     34  C   UNL     1       1.318   1.171  23.701  0.00  0.00    +0.037 A 
BRANCH   3   2
ATOM      1  C   UNL     1       2.986   0.366  22.547  0.00  0.00    +0.252 C 
ATOM      2  O   UNL     1       2.552   0.846  23.059  0.00  0.00    -0.471 OA
ENDBRANCH   3   2
ENDBRANCH   7   6
ENDBRANCH   8   7
ENDBRANCH   9   8
BRANCH  14  15
ATOM     15  C   UNL     1      -3.928   0.278  24.456  0.00  0.00    +0.027 C 
BRANCH  15  16
ATOM     16  C   UNL     1      -4.448   0.642  24.985  0.00  0.00    +0.088 C 
BRANCH  16  17
ATOM     17  C   UNL     1      -4.601   1.450  24.921  0.00  0.00    +0.242 C 
ATOM     18  O   UNL     1      -5.338   1.711  24.660  0.00  0.00    -0.273 OA
ATOM     19  N   UNL     1      -4.017   1.997  25.119  0.00  0.00    -0.201 NA
BRANCH  19  20
ATOM     20  C   UNL     1      -4.170   2.805  25.055  0.00  0.00    +0.141 C 
BRANCH  20  21
ATOM     21  C   UNL     1      -3.562   3.351  25.170  0.00  0.00    -0.000 A 
ATOM     22  C   UNL     1      -3.468   3.714  25.905  0.00  0.00    +0.001 A 
ATOM     23  C   UNL     1      -2.859   4.260  26.020  0.00  0.00    +0.037 A 
ATOM     24  C   UNL     1      -2.345   4.442  25.401  0.00  0.00    +0.139 A 
ATOM     27  C   UNL     1      -2.440   4.078  24.667  0.00  0.00    +0.037 A 
ATOM     28  C   UNL     1      -3.048   3.533  24.551  0.00  0.00    +0.001 A 
BRANCH  24  25
ATOM     25  O   UNL     1      -1.738   4.987  25.517  0.00  0.00    -0.471 OA
ATOM     26  C   UNL     1      -1.053   4.946  25.058  0.00  0.00    +0.252 C 
ENDBRANCH  24  25
ENDBRANCH  20  21
ENDBRANCH  19  20
ENDBRANCH  16  17
ENDBRANCH  15  16
ENDBRANCH  14  15
TORSDOF 10
ENDMDL
MODEL 8
REMARK VINA RESULT:      -9.7      1.172      4.037
REMARK  Name = 
REMARK  10 active torsions:
REMARK  status: ('A' for Active; 'I' for Inactive)
REMARK    1  A    between atoms: O_2  and  C_3
REMARK    2  A    between atoms: C_6  and  C_7
REMARK    3  A    between atoms: C_7  and  N_8
REMARK    4  A    between atoms: N_8  and  C_9
REMARK    5  A    between atoms: C_14  and  C_15
REMARK    6  A    between atoms: C_15  and  C_16
REMARK    7  A    between atoms: C_16  and  C_17
REMARK    8  A    between atoms: N_19  and  C_20
REMARK    9  A    between atoms: C_20  and  C_21
REMARK   10  A    between atoms: C_24  and  O_25
REMARK                            x       y       z     vdW  Elec       q    Type
REMARK                         _______ _______ _______ _____ _____    ______ ____
ROOT
ATOM      9  C   UNL     1      -2.779   3.681  24.927  0.00  0.00    +0.091 C 
ATOM     10  C   UNL     1      -2.324   4.359  25.050  0.00  0.00    +0.044 C 
ATOM     11  C   UNL     1      -1.540   4.175  24.873  0.00  0.00    +0.138 C 
ATOM     12  N   UNL     1      -1.510   3.383  24.640  0.00  0.00    -0.265 NA
ATOM     13  C   UNL     1      -2.276   3.079  24.674  0.00  0.00    +0.090 C 
ATOM     14  C   UNL     1      -0.789   3.043  24.428  0.00  0.00    +0.080 C 
ATOM     29  C   UNL     1      -0.098   3.493  24.448  0.00  0.00    +0.131 C 
ATOM     30  N   UNL     1      -0.128   4.284  24.680  0.00  0.00    -0.203 NA
ATOM     31  C   UNL     1      -0.849   4.625  24.893  0.00  0.00    +0.256 C 
ATOM     32  O   UNL     1      -0.879   5.416  25.125  0.00  0.00    -0.272 OA
ENDROOT
BRANCH   9   8
ATOM      8  N   UNL     1      -3.594   3.618  25.038  0.00  0.00    -0.213 NA
BRANCH   8   7
ATOM      7  C   UNL     1      -4.025   3.051  24.622  0.00  0.00    +0.115 C 
BRANCH   7   6
ATOM      3  C   UNL     1      -5.980   1.962  25.679  0.00  0.00    +0.139 A 
ATOM      4  C   UNL     1      -5.857   2.771  25.777  0.00  0.00    +0.037 A 
ATOM      5  C   UNL     1      -5.205   3.134  25.424  0.00  0.00    +0.000 A 
ATOM      6  C   UNL     1      -4.677   2.689  24.974  0.00  0.00    -0.005 A 
ATOM     33  C   UNL     1      -4.801   1.879  24.876  0.00  0.00    +0.000 A 
ATOM     34  C   UNL     1      -5.452   1.515  25.228  0.00  0.00    +0.037 A 
BRANCH   3   2
ATOM      1  C   UNL     1      -6.671   1.526  26.852  0.00  0.00    +0.252 C 
ATOM      2  O   UNL     1      -6.631   1.598  26.031  0.00  0.00    -0.471 OA
ENDBRANCH   3   2
ENDBRANCH   7   6
ENDBRANCH   8   7
ENDBRANCH   9   8
BRANCH  14  15
ATOM     15  C   UNL     1      -0.760   2.252  24.196  0.00  0.00    +0.027 C 
BRANCH  15  16
ATOM     16  C   UNL     1      -0.271   1.722  24.599  0.00  0.00    +0.088 C 
BRANCH  16  17
ATOM     17  C   UNL     1      -0.242   0.930  24.367  0.00  0.00    +0.242 C 
ATOM     18  O   UNL     1       0.292   0.690  23.787  0.00  0.00    -0.273 OA
ATOM     19  N   UNL     1      -0.748   0.380  24.716  0.00  0.00    -0.201 NA
BRANCH  19  20
ATOM     20  C   UNL     1      -0.718  -0.411  24.484  0.00  0.00    +0.141 C 
BRANCH  20  21
ATOM     21  C   UNL     1      -1.347  -0.916  24.660  0.00  0.00    -0.000 A 
ATOM     22  C   UNL     1      -1.343  -1.692  24.380  0.00  0.00    +0.001 A 
ATOM     23  C   UNL     1      -1.972  -2.197  24.555  0.00  0.00    +0.037 A 
ATOM     24  C   UNL     1      -2.605  -1.925  25.010  0.00  0.00    +0.139 A 
ATOM     27  C   UNL     1      -2.608  -1.149  25.289  0.00  0.00    +0.037 A 
ATOM     28  C   UNL     1      -1.980  -0.644  25.114  0.00  0.00    +0.001 A 
BRANCH  24  25
ATOM     25  O   UNL     1      -3.233  -2.430  25.185  0.00  0.00    -0.471 OA
ATOM     26  C   UNL     1      -3.708  -2.723  24.578  0.00  0.00    +0.252 C 
ENDBRANCH  24  25
ENDBRANCH  20  21
ENDBRANCH  19  20
ENDBRANCH  16  17
ENDBRANCH  15  16
ENDBRANCH  14  15
TORSDOF 10
ENDMDL
