MODEL 1
REMARK VINA RESULT:     -11.4      0.000      0.000
REMARK  Name = 
REMARK  3 active torsions:
REMARK  status: ('A' for Active; 'I' for Inactive)
REMARK    1  A    between atoms: C_2  and  N_4
REMARK    2  A    between atoms: C_9  and  C_10
REMARK    3  A    between atoms: C_12  and  C_15
REMARK                            x       y       z     vdW  Elec       q    Type
REMARK                         _______ _______ _______ _____ _____    ______ ____
ROOT
ATOM     10  C   UNL     1      -4.161   1.485  24.613  0.00  0.00    +0.251 A 
ATOM     11  N   UNL     1      -4.170   0.756  25.000  0.00  0.00    -0.190 NA
ATOM     12  C   UNL     1      -3.867   0.190  24.483  0.00  0.00    +0.203 A 
ATOM     13  N   UNL     1      -3.671   0.568  23.777  0.00  0.00    -0.056 NA
ATOM     14  O   UNL     1      -3.852   1.368  23.857  0.00  0.00    -0.336 OA
ENDROOT
BRANCH  12  15
ATOM     15  C   UNL     1      -3.776  -0.615  24.644  0.00  0.00    +0.039 A 
ATOM     16  C   UNL     1      -3.401  -0.856  25.338  0.00  0.00    +0.005 A 
ATOM     17  C   UNL     1      -3.311  -1.661  25.499  0.00  0.00    +0.030 A 
ATOM     18  C   UNL     1      -3.595  -2.223  24.966  0.00  0.00    +0.140 A 
ATOM     19  F   UNL     1      -3.504  -3.027  25.127  0.00  0.00    -0.204 F 
ATOM     20  C   UNL     1      -3.970  -1.981  24.272  0.00  0.00    +0.030 A 
ATOM     21  C   UNL     1      -4.060  -1.177  24.111  0.00  0.00    +0.005 A 
ENDBRANCH  12  15
BRANCH  10   9
ATOM      4  N   UNL     1      -3.949   2.872  25.050  0.00  0.00    -0.265 NA
ATOM      5  C   UNL     1      -4.426   3.462  25.373  0.00  0.00    +0.106 C 
ATOM      6  C   UNL     1      -5.190   3.158  25.449  0.00  0.00    +0.170 C 
ATOM      7  O   UNL     1      -5.844   3.561  25.748  0.00  0.00    -0.222 OA
ATOM      8  C   UNL     1      -5.183   2.381  25.174  0.00  0.00    +0.060 C 
ATOM      9  C   UNL     1      -4.416   2.204  24.927  0.00  0.00    +0.140 C 
BRANCH   4   2
ATOM      1  C   UNL     1      -2.584   2.770  25.463  0.00  0.00    +0.017 C 
ATOM      2  C   UNL     1      -3.144   2.938  24.880  0.00  0.00    +0.058 C 
ATOM      3  C   UNL     1      -2.899   3.174  24.129  0.00  0.00    +0.017 C 
ENDBRANCH   4   2
ENDBRANCH  10   9
TORSDOF 3
ENDMDL
MODEL 2
REMARK VINA RESULT:     -11.2      1.351      1.884
REMARK  Name = 
REMARK  3 active torsions:
REMARK  status: ('A' for Active; 'I' for Inactive)
REMARK    1  A    between atoms: C_2  and  N_4
REMARK    2  A    between atoms: C_9  and  C_10
REMARK    3  A    between atoms: C_12  and  C_15
REMARK                            x       y       z     vdW  Elec       q    Type
REMARK                         _______ _______ _______ _____ _____    ______ ____
ROOT
ATOM     10  C   UNL     1      -3.214   1.206  24.830  0.00  0.00    +0.251 A 
ATOM     11  N   UNL     1      -3.008   0.425  24.660  0.00  0.00    -0.190 NA
ATOM     12  C   UNL     1      -3.680  -0.043  24.757  0.00  0.00    +0.203 A 
ATOM     13  N   UNL     1      -4.301   0.448  24.987  0.00  0.00    -0.056 NA
ATOM     14  O   UNL     1      -4.014   1.219  25.033  0.00  0.00    -0.336 OA
ENDROOT
BRANCH  12  15
ATOM     15  C   UNL     1      -3.723  -0.859  24.644  0.00  0.00    +0.039 A 
ATOM     16  C   UNL     1      -3.340  -1.369  25.167  0.00  0.00    +0.005 A 
ATOM     17  C   UNL     1      -3.383  -2.185  25.054  0.00  0.00    +0.030 A 
ATOM     18  C   UNL     1      -3.809  -2.491  24.417  0.00  0.00    +0.140 A 
ATOM     19  F   UNL     1      -3.852  -3.308  24.304  0.00  0.00    -0.204 F 
ATOM     20  C   UNL     1      -4.192  -1.982  23.893  0.00  0.00    +0.030 A 
ATOM     21  C   UNL     1      -4.149  -1.165  24.007  0.00  0.00    +0.005 A 
ENDBRANCH  12  15
BRANCH  10   9
ATOM      4  N   UNL     1      -2.653   2.401  24.186  0.00  0.00    -0.265 NA
ATOM      5  C   UNL     1      -2.081   2.960  24.388  0.00  0.00    +0.106 C 
ATOM      6  C   UNL     1      -1.785   2.762  25.133  0.00  0.00    +0.170 C 
ATOM      7  O   UNL     1      -1.202   3.173  25.547  0.00  0.00    -0.222 OA
ATOM      8  C   UNL     1      -2.173   2.081  25.389  0.00  0.00    +0.060 C 
ATOM      9  C   UNL     1      -2.710   1.858  24.803  0.00  0.00    +0.140 C 
BRANCH   4   2
ATOM      1  C   UNL     1      -3.831   2.752  23.456  0.00  0.00    +0.017 C 
ATOM      2  C   UNL     1      -3.091   2.387  23.487  0.00  0.00    +0.058 C 
ATOM      3  C   UNL     1      -2.790   2.011  22.818  0.00  0.00    +0.017 C 
ENDBRANCH   4   2
ENDBRANCH  10   9
TORSDOF 3
ENDMDL
MODEL 3
REMARK VINA RESULT:     -10.9      2.044      4.266
REMARK  Name = 
REMARK  3 active torsions:
REMARK  status: ('A' for Active; 'I' for Inactive)
REMARK    1  A    between atoms: C_2  and  N_4
REMARK    2  A    between atoms: C_9  and  C_10
REMARK    3  A    between atoms: C_12  and  C_15
REMARK                            x       y       z     vdW  Elec       q    Type
REMARK                         _______ _______ _______ _____ _____    ______ ____
ROOT
ATOM     10  C   UNL     1      -3.873  -0.177  24.300  0.00  0.00    +0.251 A 
ATOM     11  N   UNL     1      -4.391   0.293  24.738  0.00  0.00    -0.190 NA
ATOM     12  C   UNL     1      -4.243   1.082  24.547  0.00  0.00    +0.203 A 
ATOM     13  N   UNL     1      -3.634   1.099  23.992  0.00  0.00    -0.056 NA
ATOM     14  O   UNL     1      -3.406   0.322  23.839  0.00  0.00    -0.336 OA
ENDROOT
BRANCH  12  15
ATOM     15  C   UNL     1      -4.635   1.738  24.858  0.00  0.00    +0.039 A 
ATOM     16  C   UNL     1      -4.221   2.437  25.001  0.00  0.00    +0.005 A 
ATOM     17  C   UNL     1      -4.613   3.093  25.311  0.00  0.00    +0.030 A 
ATOM     18  C   UNL     1      -5.420   3.050  25.479  0.00  0.00    +0.140 A 
ATOM     19  F   UNL     1      -5.812   3.706  25.789  0.00  0.00    -0.204 F 
ATOM     20  C   UNL     1      -5.834   2.351  25.336  0.00  0.00    +0.030 A 
ATOM     21  C   UNL     1      -5.442   1.695  25.025  0.00  0.00    +0.005 A 
ENDBRANCH  12  15
BRANCH  10   9
ATOM      4  N   UNL     1      -3.340  -1.448  24.807  0.00  0.00    -0.265 NA
ATOM      5  C   UNL     1      -3.477  -2.246  24.645  0.00  0.00    +0.106 C 
ATOM      6  C   UNL     1      -4.055  -2.290  24.058  0.00  0.00    +0.170 C 
ATOM      7  O   UNL     1      -4.360  -2.982  23.729  0.00  0.00    -0.222 OA
ATOM      8  C   UNL     1      -4.274  -1.520  23.857  0.00  0.00    +0.060 C 
ATOM      9  C   UNL     1      -3.831  -1.000  24.320  0.00  0.00    +0.140 C 
BRANCH   4   2
ATOM      1  C   UNL     1      -2.035  -0.958  25.126  0.00  0.00    +0.017 C 
ATOM      2  C   UNL     1      -2.803  -1.152  25.359  0.00  0.00    +0.058 C 
ATOM      3  C   UNL     1      -3.034  -1.048  26.144  0.00  0.00    +0.017 C 
ENDBRANCH   4   2
ENDBRANCH  10   9
TORSDOF 3
ENDMDL
