MODEL 1
REMARK VINA RESULT:      -9.8      0.000      0.000
REMARK  Name = 
REMARK  5 active torsions:
REMARK  status: ('A' for Active; 'I' for Inactive)
REMARK    1  A    between atoms: C_2  and  N_4
REMARK    2  A    between atoms: N_7  and  C_8
REMARK    3  A    between atoms: C_8  and  C_9
REMARK    4  A    between atoms: C_16  and  C_17
REMARK    5  A    between atoms: C_19  and  C_24
REMARK                            x       y       z     vdW  Elec       q    Type
REMARK                         _______ _______ _______ _____ _____    ______ ____
ROOT
ATOM      9  C   UNL     1       0.271   0.332  23.707  0.00  0.00    +0.079 C 
ATOM     10  C   UNL     1      -0.083   0.294  24.399  0.00  0.00    +0.018 C 
ATOM     11  C   UNL     1      -0.864   0.455  24.539  0.00  0.00    +0.010 C 
ATOM     12  C   UNL     1      -1.076   0.353  25.404  0.00  0.00    +0.018 C 
ATOM     13  C   UNL     1      -0.681   0.351  24.884  0.00  0.00    +0.072 C 
ATOM     14  N   UNL     1      -0.524   0.494  23.858  0.00  0.00    -0.272 NA
ATOM     15  C   UNL     1      -1.209   0.752  23.312  0.00  0.00    +0.078 C 
ATOM     16  C   UNL     1      -1.517   0.703  24.008  0.00  0.00    +0.056 C 
ENDROOT
BRANCH  16  17
ATOM     17  C   UNL     1      -2.302   0.853  24.218  0.00  0.00    +0.063 A 
ATOM     18  C   UNL     1      -2.543   1.624  24.387  0.00  0.00    +0.034 A 
ATOM     19  C   UNL     1      -3.327   1.772  24.596  0.00  0.00    +0.084 A 
ATOM     20  N   UNL     1      -3.869   1.152  24.637  0.00  0.00    -0.231 NA
ATOM     21  C   UNL     1      -3.627   0.382  24.469  0.00  0.00    +0.139 A 
ATOM     22  C   UNL     1      -4.168  -0.240  24.510  0.00  0.00    +0.074 C 
ATOM     23  N   UNL     1      -2.842   0.232  24.259  0.00  0.00    -0.235 NA
BRANCH  19  24
ATOM     24  C   UNL     1      -3.570   2.543  24.765  0.00  0.00    +0.024 A 
ATOM     25  C   UNL     1      -3.860   3.025  24.161  0.00  0.00    +0.036 A 
ATOM     26 BR   UNL     1      -3.908   2.737  23.390  0.00  0.00    -0.049 Br
ATOM     27  C   UNL     1      -4.103   3.795  24.329  0.00  0.00    +0.007 A 
ATOM     28  C   UNL     1      -4.055   4.083  25.101  0.00  0.00    +0.001 A 
ATOM     29  C   UNL     1      -3.765   3.602  25.704  0.00  0.00    +0.000 A 
ATOM     30  C   UNL     1      -3.522   2.831  25.536  0.00  0.00    +0.002 A 
ENDBRANCH  19  24
ENDBRANCH  16  17
BRANCH   9   8
ATOM      8  C   UNL     1       0.926   0.263  23.211  0.00  0.00    +0.133 C 
BRANCH   8   7
ATOM      4  N   UNL     1       3.023   0.872  23.179  0.00  0.00    -0.189 NA
ATOM      5  C   UNL     1       2.324   0.473  22.995  0.00  0.00    +0.339 C 
ATOM      6  O   UNL     1       2.323  -0.112  22.414  0.00  0.00    -0.249 OA
ATOM      7  N   UNL     1       1.626   0.661  23.394  0.00  0.00    -0.186 NA
BRANCH   4   2
ATOM      1  C   UNL     1       3.819   0.908  21.993  0.00  0.00    +0.023 C 
ATOM      2  C   UNL     1       3.721   0.684  22.780  0.00  0.00    +0.097 C 
ATOM      3  C   UNL     1       4.321   0.272  23.170  0.00  0.00    +0.023 C 
ENDBRANCH   4   2
ENDBRANCH   8   7
ENDBRANCH   9   8
TORSDOF 5
ENDMDL
MODEL 2
REMARK VINA RESULT:      -9.6      1.545      2.076
REMARK  Name = 
REMARK  5 active torsions:
REMARK  status: ('A' for Active; 'I' for Inactive)
REMARK    1  A    between atoms: C_2  and  N_4
REMARK    2  A    between atoms: N_7  and  C_8
REMARK    3  A    between atoms: C_8  and  C_9
REMARK    4  A    between atoms: C_16  and  C_17
REMARK    5  A    between atoms: C_19  and  C_24
REMARK                            x       y       z     vdW  Elec       q    Type
REMARK                         _______ _______ _______ _____ _____    ______ ____
ROOT
ATOM      9  C   UNL     1       0.533   1.469  24.175  0.00  0.00    +0.079 C 
ATOM     10  C   UNL     1       0.263   1.662  24.879  0.00  0.00    +0.018 C 
ATOM     11  C   UNL     1      -0.365   2.152  25.025  0.00  0.00    +0.010 C 
ATOM     12  C   UNL     1      -0.517   2.247  25.903  0.00  0.00    +0.018 C 
ATOM     13  C   UNL     1      -0.210   2.020  25.374  0.00  0.00    +0.072 C 
ATOM     14  N   UNL     1      -0.106   1.967  24.332  0.00  0.00    -0.272 NA
ATOM     15  C   UNL     1      -0.671   2.426  23.782  0.00  0.00    +0.078 C 
ATOM     16  C   UNL     1      -0.905   2.591  24.490  0.00  0.00    +0.056 C 
ENDROOT
BRANCH  16  17
ATOM     17  C   UNL     1      -1.534   3.079  24.707  0.00  0.00    +0.063 A 
ATOM     18  C   UNL     1      -2.304   2.781  24.716  0.00  0.00    +0.034 A 
ATOM     19  C   UNL     1      -2.932   3.269  24.933  0.00  0.00    +0.084 A 
ATOM     20  N   UNL     1      -2.792   4.055  25.140  0.00  0.00    -0.231 NA
ATOM     21  C   UNL     1      -2.023   4.353  25.131  0.00  0.00    +0.139 A 
ATOM     22  C   UNL     1      -1.882   5.139  25.339  0.00  0.00    +0.074 C 
ATOM     23  N   UNL     1      -1.394   3.864  24.914  0.00  0.00    -0.235 NA
BRANCH  19  24
ATOM     24  C   UNL     1      -3.702   2.972  24.942  0.00  0.00    +0.024 A 
ATOM     25  C   UNL     1      -4.143   2.949  24.245  0.00  0.00    +0.036 A 
ATOM     26 BR   UNL     1      -3.815   3.224  23.540  0.00  0.00    -0.049 Br
ATOM     27  C   UNL     1      -4.912   2.652  24.254  0.00  0.00    +0.007 A 
ATOM     28  C   UNL     1      -5.240   2.378  24.960  0.00  0.00    +0.001 A 
ATOM     29  C   UNL     1      -4.799   2.400  25.655  0.00  0.00    +0.000 A 
ATOM     30  C   UNL     1      -4.029   2.697  25.647  0.00  0.00    +0.002 A 
ENDBRANCH  19  24
ENDBRANCH  16  17
BRANCH   9   8
ATOM      8  C   UNL     1       1.051   1.075  23.669  0.00  0.00    +0.133 C 
BRANCH   8   7
ATOM      4  N   UNL     1       3.168   1.107  23.132  0.00  0.00    -0.189 NA
ATOM      5  C   UNL     1       2.380   0.866  23.183  0.00  0.00    +0.339 C 
ATOM      6  O   UNL     1       2.132   0.179  22.800  0.00  0.00    -0.249 OA
ATOM      7  N   UNL     1       1.840   1.315  23.617  0.00  0.00    -0.186 NA
BRANCH   4   2
ATOM      1  C   UNL     1       4.358   0.319  23.073  0.00  0.00    +0.023 C 
ATOM      2  C   UNL     1       3.708   0.658  22.697  0.00  0.00    +0.097 C 
ATOM      3  C   UNL     1       3.596   0.550  21.887  0.00  0.00    +0.023 C 
ENDBRANCH   4   2
ENDBRANCH   8   7
ENDBRANCH   9   8
TORSDOF 5
ENDMDL
MODEL 3
REMARK VINA RESULT:      -9.6      2.299      3.014
REMARK  Name = 
REMARK  5 active torsions:
REMARK  status: ('A' for Active; 'I' for Inactive)
REMARK    1  A    between atoms: C_2  and  N_4
REMARK    2  A    between atoms: N_7  and  C_8
REMARK    3  A    between atoms: C_8  and  C_9
REMARK    4  A    between atoms: C_16  and  C_17
REMARK    5  A    between atoms: C_19  and  C_24
REMARK                            x       y       z     vdW  Elec       q    Type
REMARK                         _______ _______ _______ _____ _____    ______ ____
ROOT
ATOM      9  C   UNL     1       0.875   0.205  23.264  0.00  0.00    +0.079 C 
ATOM     10  C   UNL     1       0.268   0.624  23.513  0.00  0.00    +0.018 C 
ATOM     11  C   UNL     1      -0.342   0.347  23.967  0.00  0.00    +0.010 C 
ATOM     12  C   UNL     1      -0.942   0.989  24.148  0.00  0.00    +0.018 C 
ATOM     13  C   UNL     1      -0.397   0.740  23.887  0.00  0.00    +0.072 C 
ATOM     14  N   UNL     1       0.249  -0.070  23.727  0.00  0.00    -0.272 NA
ATOM     15  C   UNL     1       0.065  -0.892  24.079  0.00  0.00    +0.078 C 
ATOM     16  C   UNL     1      -0.513  -0.446  24.303  0.00  0.00    +0.056 C 
ENDROOT
BRANCH  16  17
ATOM     17  C   UNL     1      -1.162  -0.664  24.763  0.00  0.00    +0.063 A 
ATOM     18  C   UNL     1      -1.846  -0.952  24.402  0.00  0.00    +0.034 A 
ATOM     19  C   UNL     1      -2.494  -1.169  24.863  0.00  0.00    +0.084 A 
ATOM     20  N   UNL     1      -2.460  -1.099  25.684  0.00  0.00    -0.231 NA
ATOM     21  C   UNL     1      -1.776  -0.811  26.045  0.00  0.00    +0.139 A 
ATOM     22  C   UNL     1      -1.741  -0.741  26.866  0.00  0.00    +0.074 C 
ATOM     23  N   UNL     1      -1.127  -0.593  25.584  0.00  0.00    -0.235 NA
BRANCH  19  24
ATOM     24  C   UNL     1      -3.178  -1.458  24.502  0.00  0.00    +0.024 A 
ATOM     25  C   UNL     1      -3.279  -2.271  24.402  0.00  0.00    +0.036 A 
ATOM     26 BR   UNL     1      -2.698  -2.794  24.661  0.00  0.00    -0.049 Br
ATOM     27  C   UNL     1      -3.963  -2.559  24.042  0.00  0.00    +0.007 A 
ATOM     28  C   UNL     1      -4.546  -2.035  23.782  0.00  0.00    +0.001 A 
ATOM     29  C   UNL     1      -4.444  -1.224  23.883  0.00  0.00    +0.000 A 
ATOM     30  C   UNL     1      -3.760  -0.934  24.243  0.00  0.00    +0.002 A 
ENDBRANCH  19  24
ENDBRANCH  16  17
BRANCH   9   8
ATOM      8  C   UNL     1       1.585   0.109  22.857  0.00  0.00    +0.133 C 
BRANCH   8   7
ATOM      4  N   UNL     1       3.615   0.899  23.014  0.00  0.00    -0.189 NA
ATOM      5  C   UNL     1       2.989   0.377  22.879  0.00  0.00    +0.339 C 
ATOM      6  O   UNL     1       3.142  -0.395  22.633  0.00  0.00    -0.249 OA
ATOM      7  N   UNL     1       2.211   0.630  22.991  0.00  0.00    -0.186 NA
BRANCH   4   2
ATOM      1  C   UNL     1       4.681   0.527  22.139  0.00  0.00    +0.023 C 
ATOM      2  C   UNL     1       4.393   0.646  22.902  0.00  0.00    +0.097 C 
ATOM      3  C   UNL     1       4.881   0.514  23.553  0.00  0.00    +0.023 C 
ENDBRANCH   4   2
ENDBRANCH   8   7
ENDBRANCH   9   8
TORSDOF 5
ENDMDL
MODEL 4
REMARK VINA RESULT:      -9.1      2.774      4.598
REMARK  Name = 
REMARK  5 active torsions:
REMARK  status: ('A' for Active; 'I' for Inactive)
REMARK    1  A    between atoms: C_2  and  N_4
REMARK    2  A    between atoms: N_7  and  C_8
REMARK    3  A    between atoms: C_8  and  C_9
REMARK    4  A    between atoms: C_16  and  C_17
REMARK    5  A    between atoms: C_19  and  C_24
REMARK                            x       y       z     vdW  Elec       q    Type
REMARK                         _______ _______ _______ _____ _____    ______ ____
ROOT
ATOM      9  C   UNL     1      -0.181   1.793  24.523  0.00  0.00    +0.079 C 
ATOM     10  C   UNL     1      -0.078   1.194  24.037  0.00  0.00    +0.018 C 
ATOM     11  C   UNL     1      -0.302   0.429  24.176  0.00  0.00    +0.010 C 
ATOM     12  C   UNL     1      -0.093  -0.111  23.492  0.00  0.00    +0.018 C 
ATOM     13  C   UNL     1      -0.126   0.456  23.813  0.00  0.00    +0.072 C 
ATOM     14  N   UNL     1      -0.407   1.010  24.658  0.00  0.00    -0.272 NA
ATOM     15  C   UNL     1      -0.823   0.608  25.364  0.00  0.00    +0.078 C 
ATOM     16  C   UNL     1      -0.702   0.048  24.859  0.00  0.00    +0.056 C 
ENDROOT
BRANCH  16  17
ATOM     17  C   UNL     1      -0.905  -0.748  24.939  0.00  0.00    +0.063 A 
ATOM     18  C   UNL     1      -1.665  -1.001  24.742  0.00  0.00    +0.034 A 
ATOM     19  C   UNL     1      -1.867  -1.796  24.822  0.00  0.00    +0.084 A 
ATOM     20  N   UNL     1      -1.310  -2.339  25.097  0.00  0.00    -0.231 NA
ATOM     21  C   UNL     1      -0.550  -2.085  25.293  0.00  0.00    +0.139 A 
ATOM     22  C   UNL     1       0.007  -2.627  25.569  0.00  0.00    +0.074 C 
ATOM     23  N   UNL     1      -0.348  -1.289  25.214  0.00  0.00    -0.235 NA
BRANCH  19  24
ATOM     24  C   UNL     1      -2.628  -2.051  24.626  0.00  0.00    +0.024 A 
ATOM     25  C   UNL     1      -3.258  -1.894  25.135  0.00  0.00    +0.036 A 
ATOM     26 BR   UNL     1      -3.129  -1.484  25.839  0.00  0.00    -0.049 Br
ATOM     27  C   UNL     1      -4.018  -2.148  24.939  0.00  0.00    +0.007 A 
ATOM     28  C   UNL     1      -4.148  -2.558  24.235  0.00  0.00    +0.001 A 
ATOM     29  C   UNL     1      -3.518  -2.714  23.727  0.00  0.00    +0.000 A 
ATOM     30  C   UNL     1      -2.757  -2.460  23.922  0.00  0.00    +0.002 A 
ENDBRANCH  19  24
ENDBRANCH  16  17
BRANCH   9   8
ATOM      8  C   UNL     1      -0.117   2.587  24.736  0.00  0.00    +0.133 C 
BRANCH   8   7
ATOM      4  N   UNL     1      -1.372   4.366  24.581  0.00  0.00    -0.189 NA
ATOM      5  C   UNL     1      -0.835   3.815  24.878  0.00  0.00    +0.339 C 
ATOM      6  O   UNL     1      -0.479   3.939  25.612  0.00  0.00    -0.249 OA
ATOM      7  N   UNL     1      -0.654   3.139  24.440  0.00  0.00    -0.186 NA
BRANCH   4   2
ATOM      1  C   UNL     1      -1.131   5.739  24.894  0.00  0.00    +0.023 C 
ATOM      2  C   UNL     1      -1.553   5.042  25.019  0.00  0.00    +0.097 C 
ATOM      3  C   UNL     1      -2.157   5.020  25.581  0.00  0.00    +0.023 C 
ENDBRANCH   4   2
ENDBRANCH   8   7
ENDBRANCH   9   8
TORSDOF 5
ENDMDL
MODEL 5
REMARK VINA RESULT:      -9.0      3.082      3.858
REMARK  Name = 
REMARK  5 active torsions:
REMARK  status: ('A' for Active; 'I' for Inactive)
REMARK    1  A    between atoms: C_2  and  N_4
REMARK    2  A    between atoms: N_7  and  C_8
REMARK    3  A    between atoms: C_8  and  C_9
REMARK    4  A    between atoms: C_16  and  C_17
REMARK    5  A    between atoms: C_19  and  C_24
REMARK                            x       y       z     vdW  Elec       q    Type
REMARK                         _______ _______ _______ _____ _____    ______ ____
ROOT
ATOM      9  C   UNL     1      -0.161   2.674  26.307  0.00  0.00    +0.079 C 
ATOM     10  C   UNL     1      -0.638   3.200  25.987  0.00  0.00    +0.018 C 
ATOM     11  C   UNL     1      -1.250   3.036  25.484  0.00  0.00    +0.010 C 
ATOM     12  C   UNL     1      -1.679   3.780  25.226  0.00  0.00    +0.018 C 
ATOM     13  C   UNL     1      -1.226   3.435  25.547  0.00  0.00    +0.072 C 
ATOM     14  N   UNL     1      -0.788   2.515  25.794  0.00  0.00    -0.272 NA
ATOM     15  C   UNL     1      -1.113   1.735  25.451  0.00  0.00    +0.078 C 
ATOM     16  C   UNL     1      -1.558   2.281  25.158  0.00  0.00    +0.056 C 
ENDROOT
BRANCH  16  17
ATOM     17  C   UNL     1      -2.196   2.183  24.643  0.00  0.00    +0.063 A 
ATOM     18  C   UNL     1      -2.963   2.129  24.942  0.00  0.00    +0.034 A 
ATOM     19  C   UNL     1      -3.599   2.031  24.427  0.00  0.00    +0.084 A 
ATOM     20  N   UNL     1      -3.470   1.987  23.614  0.00  0.00    -0.231 NA
ATOM     21  C   UNL     1      -2.703   2.041  23.315  0.00  0.00    +0.139 A 
ATOM     22  C   UNL     1      -2.572   1.997  22.502  0.00  0.00    +0.074 C 
ATOM     23  N   UNL     1      -2.065   2.139  23.830  0.00  0.00    -0.235 NA
BRANCH  19  24
ATOM     24  C   UNL     1      -4.367   1.977  24.726  0.00  0.00    +0.024 A 
ATOM     25  C   UNL     1      -4.694   1.237  24.889  0.00  0.00    +0.036 A 
ATOM     26 BR   UNL     1      -4.254   0.552  24.755  0.00  0.00    -0.049 Br
ATOM     27  C   UNL     1      -5.461   1.182  25.187  0.00  0.00    +0.007 A 
ATOM     28  C   UNL     1      -5.901   1.867  25.322  0.00  0.00    +0.001 A 
ATOM     29  C   UNL     1      -5.574   2.606  25.158  0.00  0.00    +0.000 A 
ATOM     30  C   UNL     1      -4.807   2.661  24.860  0.00  0.00    +0.002 A 
ENDBRANCH  19  24
ENDBRANCH  16  17
BRANCH   9   8
ATOM      8  C   UNL     1       0.473   2.450  26.785  0.00  0.00    +0.133 C 
BRANCH   8   7
ATOM      4  N   UNL     1       1.050   2.580  28.886  0.00  0.00    -0.189 NA
ATOM      5  C   UNL     1       1.104   2.501  28.067  0.00  0.00    +0.339 C 
ATOM      6  O   UNL     1       1.839   2.394  27.710  0.00  0.00    -0.249 OA
ATOM      7  N   UNL     1       0.420   2.530  27.604  0.00  0.00    -0.186 NA
BRANCH   4   2
ATOM      1  C   UNL     1       1.786   2.017  29.974  0.00  0.00    +0.023 C 
ATOM      2  C   UNL     1       1.734   2.552  29.349  0.00  0.00    +0.097 C 
ATOM      3  C   UNL     1       2.364   3.058  29.184  0.00  0.00    +0.023 C 
ENDBRANCH   4   2
ENDBRANCH   8   7
ENDBRANCH   9   8
TORSDOF 5
ENDMDL
MODEL 6
REMARK VINA RESULT:      -8.8      2.594      4.391
REMARK  Name = 
REMARK  5 active torsions:
REMARK  status: ('A' for Active; 'I' for Inactive)
REMARK    1  A    between atoms: C_2  and  N_4
REMARK    2  A    between atoms: N_7  and  C_8
REMARK    3  A    between atoms: C_8  and  C_9
REMARK    4  A    between atoms: C_16  and  C_17
REMARK    5  A    between atoms: C_19  and  C_24
REMARK                            x       y       z     vdW  Elec       q    Type
REMARK                         _______ _______ _______ _____ _____    ______ ____
ROOT
ATOM      9  C   UNL     1      -1.016  -0.460  24.374  0.00  0.00    +0.079 C 
ATOM     10  C   UNL     1      -0.520   0.095  24.148  0.00  0.00    +0.018 C 
ATOM     11  C   UNL     1      -0.383   0.792  24.535  0.00  0.00    +0.010 C 
ATOM     12  C   UNL     1       0.226   1.296  24.112  0.00  0.00    +0.018 C 
ATOM     13  C   UNL     1      -0.154   0.772  24.203  0.00  0.00    +0.072 C 
ATOM     14  N   UNL     1      -0.872   0.253  24.763  0.00  0.00    -0.272 NA
ATOM     15  C   UNL     1      -1.214   0.610  25.530  0.00  0.00    +0.078 C 
ATOM     16  C   UNL     1      -0.717   1.130  25.274  0.00  0.00    +0.056 C 
ENDROOT
BRANCH  16  17
ATOM     17  C   UNL     1      -0.532   1.856  25.619  0.00  0.00    +0.063 A 
ATOM     18  C   UNL     1      -0.883   2.548  25.336  0.00  0.00    +0.034 A 
ATOM     19  C   UNL     1      -0.698   3.274  25.680  0.00  0.00    +0.084 A 
ATOM     20  N   UNL     1      -0.163   3.309  26.308  0.00  0.00    -0.231 NA
ATOM     21  C   UNL     1       0.187   2.618  26.590  0.00  0.00    +0.139 A 
ATOM     22  C   UNL     1       0.722   2.652  27.217  0.00  0.00    +0.074 C 
ATOM     23  N   UNL     1       0.002   1.891  26.245  0.00  0.00    -0.235 NA
BRANCH  19  24
ATOM     24  C   UNL     1      -1.049   3.966  25.398  0.00  0.00    +0.024 A 
ATOM     25  C   UNL     1      -1.823   4.153  25.615  0.00  0.00    +0.036 A 
ATOM     26 BR   UNL     1      -2.246   3.650  26.112  0.00  0.00    -0.049 Br
ATOM     27  C   UNL     1      -2.173   4.845  25.333  0.00  0.00    +0.007 A 
ATOM     28  C   UNL     1      -1.749   5.349  24.835  0.00  0.00    +0.001 A 
ATOM     29  C   UNL     1      -0.977   5.161  24.619  0.00  0.00    +0.000 A 
ATOM     30  C   UNL     1      -0.625   4.469  24.901  0.00  0.00    +0.002 A 
ENDBRANCH  19  24
ENDBRANCH  16  17
BRANCH   9   8
ATOM      8  C   UNL     1      -1.392  -1.189  24.290  0.00  0.00    +0.133 C 
BRANCH   8   7
ATOM      4  N   UNL     1      -3.416  -2.008  24.297  0.00  0.00    -0.189 NA
ATOM      5  C   UNL     1      -2.592  -1.967  24.292  0.00  0.00    +0.339 C 
ATOM      6  O   UNL     1      -2.144  -2.659  24.285  0.00  0.00    -0.249 OA
ATOM      7  N   UNL     1      -2.216  -1.231  24.295  0.00  0.00    -0.186 NA
BRANCH   4   2
ATOM      1  C   UNL     1      -3.624  -3.294  24.885  0.00  0.00    +0.023 C 
ATOM      2  C   UNL     1      -3.792  -2.743  24.294  0.00  0.00    +0.097 C 
ATOM      3  C   UNL     1      -4.335  -2.926  23.701  0.00  0.00    +0.023 C 
ENDBRANCH   4   2
ENDBRANCH   8   7
ENDBRANCH   9   8
TORSDOF 5
ENDMDL
