REMARK  Name = 
REMARK  8 active torsions:
REMARK  status: ('A' for Active; 'I' for Inactive)
REMARK    1  A    between atoms: N_2  and  C_4
REMARK    2  A    between atoms: C_7  and  C_10
REMARK    3  A    between atoms: C_15  and  C_16
REMARK    4  A    between atoms: C_16  and  C_17
REMARK    5  A    between atoms: C_20  and  C_21
REMARK    6  A    between atoms: C_21  and  C_22
REMARK    7  A    between atoms: C_22  and  N_23
REMARK    8  A    between atoms: N_26  and  C_29
REMARK                            x       y       z     vdW  Elec       q    Type
REMARK                         _______ _______ _______ _____ _____    ______ ____
ROOT
ATOM     10  C   UNL     1       2.858  -9.900   0.000  0.00  0.00    +0.249 C 
ATOM     11  O   UNL     1       2.143 -10.312   0.000  0.00  0.00    -0.270 OA
ATOM     12  N   UNL     1       3.572 -10.312   0.000  0.00  0.00    -0.276 N 
ATOM     13  C   UNL     1       4.287  -9.900   0.000  0.00  0.00    +0.094 C 
ATOM     14  C   UNL     1       5.001 -10.312   0.000  0.00  0.00    +0.022 C 
ATOM     15  C   UNL     1       5.001 -11.137   0.000  0.00  0.00    +0.015 C 
ATOM     20  C   UNL     1       4.287 -11.550   0.000  0.00  0.00    +0.022 C 
ATOM     36  C   UNL     1       3.572 -11.137   0.000  0.00  0.00    +0.094 C 
ENDROOT
BRANCH  10   7
ATOM      4  C   UNL     1       2.858  -7.425   0.000  0.00  0.00    +0.048 A 
ATOM      5  C   UNL     1       3.572  -7.838   0.000  0.00  0.00    +0.015 A 
ATOM      6  C   UNL     1       3.572  -8.662   0.000  0.00  0.00    +0.006 A 
ATOM      7  C   UNL     1       2.858  -9.075   0.000  0.00  0.00    +0.054 A 
ATOM      8  C   UNL     1       2.143  -8.662   0.000  0.00  0.00    +0.006 A 
ATOM      9  C   UNL     1       2.143  -7.838   0.000  0.00  0.00    +0.015 A 
BRANCH   4   2
ATOM      1  C   UNL     1       2.143  -6.188   0.000  0.00  0.00    +0.112 C 
ATOM      2  N   UNL     1       2.858  -6.600   0.000  0.00  0.00    -0.304 N 
ATOM      3  C   UNL     1       3.572  -6.188   0.000  0.00  0.00    +0.112 C 
ENDBRANCH   4   2
ENDBRANCH  10   7
BRANCH  15  16
ATOM     16  C   UNL     1       5.716 -11.550   0.000  0.00  0.00    +0.114 C 
BRANCH  16  17
ATOM     17  C   UNL     1       6.430 -11.137   0.000  0.00  0.00    +0.365 C 
ATOM     18  O   UNL     1       6.430 -10.312   0.000  0.00  0.00    -0.246 OA
ATOM     19  O   UNL     1       7.145 -11.550   0.000  0.00  0.00    -0.246 OA
ENDBRANCH  16  17
ENDBRANCH  15  16
BRANCH  20  21
ATOM     21  C   UNL     1       4.287 -12.375   0.000  0.00  0.00    +0.019 C 
BRANCH  21  22
ATOM     22  C   UNL     1       5.001 -12.787   0.000  0.00  0.00    +0.072 C 
BRANCH  22  23
ATOM     23  N   UNL     1       5.001 -13.613   0.000  0.00  0.00    -0.270 NA
ATOM     24  C   UNL     1       5.716 -14.025   0.000  0.00  0.00    +0.094 C 
ATOM     25  C   UNL     1       5.716 -14.850   0.000  0.00  0.00    +0.108 C 
ATOM     26  N   UNL     1       5.001 -15.262   0.000  0.00  0.00    -0.305 N 
ATOM     27  C   UNL     1       4.287 -14.850   0.000  0.00  0.00    +0.108 C 
ATOM     28  C   UNL     1       4.287 -14.025   0.000  0.00  0.00    +0.094 C 
BRANCH  26  29
ATOM     29  C   UNL     1       5.001 -16.087   0.000  0.00  0.00    +0.048 A 
ATOM     30  C   UNL     1       5.716 -16.500   0.000  0.00  0.00    +0.017 A 
ATOM     31  C   UNL     1       5.716 -17.325   0.000  0.00  0.00    +0.031 A 
ATOM     32  C   UNL     1       5.001 -17.738   0.000  0.00  0.00    +0.140 A 
ATOM     33  F   UNL     1       5.001 -18.562   0.000  0.00  0.00    -0.204 F 
ATOM     34  C   UNL     1       4.287 -17.325   0.000  0.00  0.00    +0.031 A 
ATOM     35  C   UNL     1       4.287 -16.500   0.000  0.00  0.00    +0.017 A 
ENDBRANCH  26  29
ENDBRANCH  22  23
ENDBRANCH  21  22
ENDBRANCH  20  21
TORSDOF 8
