MODEL 1
REMARK VINA RESULT:     -11.0      0.000      0.000
REMARK  Name = 
REMARK  7 active torsions:
REMARK  status: ('A' for Active; 'I' for Inactive)
REMARK    1  A    between atoms: O_2  and  C_3
REMARK    2  A    between atoms: C_6  and  C_9
REMARK    3  A    between atoms: C_14  and  C_15
REMARK    4  A    between atoms: C_15  and  C_16
REMARK    5  A    between atoms: C_19  and  C_20
REMARK    6  A    between atoms: C_20  and  C_21
REMARK    7  A    between atoms: C_21  and  N_22
REMARK                            x       y       z     vdW  Elec       q    Type
REMARK                         _______ _______ _______ _____ _____    ______ ____
ROOT
ATOM      9  C   UNL     1      -1.736   1.878  24.833  0.00  0.00    +0.249 C 
ATOM     10  O   UNL     1      -1.175   1.279  24.745  0.00  0.00    -0.270 OA
ATOM     11  N   UNL     1      -2.539   1.691  24.851  0.00  0.00    -0.276 N 
ATOM     12  C   UNL     1      -3.101   2.290  24.939  0.00  0.00    +0.094 C 
ATOM     13  C   UNL     1      -3.904   2.102  24.957  0.00  0.00    +0.022 C 
ATOM     14  C   UNL     1      -4.146   1.317  24.887  0.00  0.00    +0.015 C 
ATOM     19  C   UNL     1      -3.585   0.719  24.800  0.00  0.00    +0.022 C 
ATOM     28  C   UNL     1      -2.781   0.906  24.782  0.00  0.00    +0.094 C 
ENDROOT
BRANCH   9   6
ATOM      3  C   UNL     1      -1.010   4.235  25.042  0.00  0.00    +0.139 A 
ATOM      4  C   UNL     1      -1.194   3.799  25.717  0.00  0.00    +0.037 A 
ATOM      5  C   UNL     1      -1.436   3.013  25.647  0.00  0.00    +0.008 A 
ATOM      6  C   UNL     1      -1.494   2.664  24.903  0.00  0.00    +0.054 A 
ATOM      7  C   UNL     1      -1.309   3.100  24.227  0.00  0.00    +0.008 A 
ATOM      8  C   UNL     1      -1.067   3.886  24.296  0.00  0.00    +0.037 A 
BRANCH   3   2
ATOM      1  C   UNL     1      -1.310   5.632  24.997  0.00  0.00    +0.252 C 
ATOM      2  O   UNL     1      -0.767   5.021  25.112  0.00  0.00    -0.471 OA
ENDBRANCH   3   2
ENDBRANCH   9   6
BRANCH  14  15
ATOM     15  C   UNL     1      -4.949   1.130  24.905  0.00  0.00    +0.114 C 
BRANCH  15  16
ATOM     16  C   UNL     1      -5.503   1.708  25.106  0.00  0.00    +0.365 C 
ATOM     17  O   UNL     1      -5.825   2.191  24.521  0.00  0.00    -0.246 OA
ATOM     18  O   UNL     1      -5.733   1.803  25.893  0.00  0.00    -0.246 OA
ENDBRANCH  15  16
ENDBRANCH  14  15
BRANCH  19  20
ATOM     20  C   UNL     1      -3.827  -0.067  24.730  0.00  0.00    +0.019 C 
BRANCH  20  21
ATOM     21  C   UNL     1      -3.334  -0.620  24.370  0.00  0.00    +0.072 C 
BRANCH  21  22
ATOM     22  N   UNL     1      -3.539  -1.419  24.371  0.00  0.00    -0.273 NA
ATOM     23  C   UNL     1      -3.217  -1.927  24.936  0.00  0.00    +0.072 C 
ATOM     24  C   UNL     1      -3.423  -2.726  24.937  0.00  0.00    +0.017 C 
ATOM     25  C   UNL     1      -3.950  -3.017  24.373  0.00  0.00    +0.003 C 
ATOM     26  C   UNL     1      -4.272  -2.509  23.809  0.00  0.00    +0.017 C 
ATOM     27  C   UNL     1      -4.066  -1.710  23.807  0.00  0.00    +0.072 C 
ENDBRANCH  21  22
ENDBRANCH  20  21
ENDBRANCH  19  20
TORSDOF 7
ENDMDL
MODEL 2
REMARK VINA RESULT:     -10.9      1.276      5.027
REMARK  Name = 
REMARK  7 active torsions:
REMARK  status: ('A' for Active; 'I' for Inactive)
REMARK    1  A    between atoms: O_2  and  C_3
REMARK    2  A    between atoms: C_6  and  C_9
REMARK    3  A    between atoms: C_14  and  C_15
REMARK    4  A    between atoms: C_15  and  C_16
REMARK    5  A    between atoms: C_19  and  C_20
REMARK    6  A    between atoms: C_20  and  C_21
REMARK    7  A    between atoms: C_21  and  N_22
REMARK                            x       y       z     vdW  Elec       q    Type
REMARK                         _______ _______ _______ _____ _____    ______ ____
ROOT
ATOM      9  C   UNL     1      -2.829   0.297  24.553  0.00  0.00    +0.249 C 
ATOM     10  O   UNL     1      -2.018   0.387  24.427  0.00  0.00    -0.270 OA
ATOM     11  N   UNL     1      -3.292   0.954  24.739  0.00  0.00    -0.276 N 
ATOM     12  C   UNL     1      -4.103   0.864  24.865  0.00  0.00    +0.094 C 
ATOM     13  C   UNL     1      -4.566   1.521  25.052  0.00  0.00    +0.022 C 
ATOM     14  C   UNL     1      -4.219   2.266  25.112  0.00  0.00    +0.015 C 
ATOM     19  C   UNL     1      -3.409   2.356  24.986  0.00  0.00    +0.022 C 
ATOM     28  C   UNL     1      -2.945   1.699  24.800  0.00  0.00    +0.094 C 
ENDROOT
BRANCH   9   6
ATOM      3  C   UNL     1      -3.870  -1.941  24.371  0.00  0.00    +0.139 A 
ATOM      4  C   UNL     1      -3.905  -1.418  23.735  0.00  0.00    +0.037 A 
ATOM      5  C   UNL     1      -3.557  -0.671  23.796  0.00  0.00    +0.008 A 
ATOM      6  C   UNL     1      -3.176  -0.449  24.492  0.00  0.00    +0.054 A 
ATOM      7  C   UNL     1      -3.140  -0.973  25.129  0.00  0.00    +0.008 A 
ATOM      8  C   UNL     1      -3.488  -1.720  25.068  0.00  0.00    +0.037 A 
BRANCH   3   2
ATOM      1  C   UNL     1      -3.742  -3.363  24.294  0.00  0.00    +0.252 C 
ATOM      2  O   UNL     1      -4.216  -2.687  24.311  0.00  0.00    -0.471 OA
ENDBRANCH   3   2
ENDBRANCH   9   6
BRANCH  14  15
ATOM     15  C   UNL     1      -4.683   2.923  25.299  0.00  0.00    +0.114 C 
BRANCH  15  16
ATOM     16  C   UNL     1      -5.456   2.819  25.566  0.00  0.00    +0.365 C 
ATOM     17  O   UNL     1      -6.066   2.696  25.026  0.00  0.00    -0.246 OA
ATOM     18  O   UNL     1      -5.619   2.838  26.376  0.00  0.00    -0.246 OA
ENDBRANCH  15  16
ENDBRANCH  14  15
BRANCH  19  20
ATOM     20  C   UNL     1      -3.062   3.102  25.047  0.00  0.00    +0.019 C 
BRANCH  20  21
ATOM     21  C   UNL     1      -2.301   3.179  25.355  0.00  0.00    +0.072 C 
BRANCH  21  22
ATOM     22  N   UNL     1      -1.870   3.869  25.221  0.00  0.00    -0.273 NA
ATOM     23  C   UNL     1      -1.107   3.825  24.907  0.00  0.00    +0.072 C 
ATOM     24  C   UNL     1      -0.676   4.515  24.773  0.00  0.00    +0.017 C 
ATOM     25  C   UNL     1      -1.007   5.250  24.952  0.00  0.00    +0.003 C 
ATOM     26  C   UNL     1      -1.769   5.294  25.264  0.00  0.00    +0.017 C 
ATOM     27  C   UNL     1      -2.200   4.604  25.399  0.00  0.00    +0.072 C 
ENDBRANCH  21  22
ENDBRANCH  20  21
ENDBRANCH  19  20
TORSDOF 7
ENDMDL
MODEL 3
REMARK VINA RESULT:      -9.6      1.592      5.616
REMARK  Name = 
REMARK  7 active torsions:
REMARK  status: ('A' for Active; 'I' for Inactive)
REMARK    1  A    between atoms: O_2  and  C_3
REMARK    2  A    between atoms: C_6  and  C_9
REMARK    3  A    between atoms: C_14  and  C_15
REMARK    4  A    between atoms: C_15  and  C_16
REMARK    5  A    between atoms: C_19  and  C_20
REMARK    6  A    between atoms: C_20  and  C_21
REMARK    7  A    between atoms: C_21  and  N_22
REMARK                            x       y       z     vdW  Elec       q    Type
REMARK                         _______ _______ _______ _____ _____    ______ ____
ROOT
ATOM      9  C   UNL     1      -3.319   0.335  24.777  0.00  0.00    +0.249 C 
ATOM     10  O   UNL     1      -3.885   0.878  25.035  0.00  0.00    -0.270 OA
ATOM     11  N   UNL     1      -2.559   0.593  24.585  0.00  0.00    -0.276 N 
ATOM     12  C   UNL     1      -1.993   0.050  24.327  0.00  0.00    +0.094 C 
ATOM     13  C   UNL     1      -1.233   0.308  24.135  0.00  0.00    +0.022 C 
ATOM     14  C   UNL     1      -1.039   1.106  24.201  0.00  0.00    +0.015 C 
ATOM     19  C   UNL     1      -1.605   1.649  24.458  0.00  0.00    +0.022 C 
ATOM     28  C   UNL     1      -2.366   1.391  24.651  0.00  0.00    +0.094 C 
ENDROOT
BRANCH   9   6
ATOM      3  C   UNL     1      -3.901  -2.063  24.580  0.00  0.00    +0.139 A 
ATOM      4  C   UNL     1      -3.541  -1.781  25.266  0.00  0.00    +0.037 A 
ATOM      5  C   UNL     1      -3.347  -0.981  25.332  0.00  0.00    +0.008 A 
ATOM      6  C   UNL     1      -3.513  -0.464  24.711  0.00  0.00    +0.054 A 
ATOM      7  C   UNL     1      -3.873  -0.746  24.024  0.00  0.00    +0.008 A 
ATOM      8  C   UNL     1      -4.067  -1.546  23.958  0.00  0.00    +0.037 A 
BRANCH   3   2
ATOM      1  C   UNL     1      -3.500  -3.423  24.402  0.00  0.00    +0.252 C 
ATOM      2  O   UNL     1      -4.095  -2.862  24.514  0.00  0.00    -0.471 OA
ENDBRANCH   3   2
ENDBRANCH   9   6
BRANCH  14  15
ATOM     15  C   UNL     1      -0.279   1.364  24.009  0.00  0.00    +0.114 C 
BRANCH  15  16
ATOM     16  C   UNL     1       0.280   0.825  23.731  0.00  0.00    +0.365 C 
ATOM     17  O   UNL     1       0.783   0.442  24.259  0.00  0.00    -0.246 OA
ATOM     18  O   UNL     1       0.336   0.669  22.921  0.00  0.00    -0.246 OA
ENDBRANCH  15  16
ENDBRANCH  14  15
BRANCH  19  20
ATOM     20  C   UNL     1      -1.411   2.448  24.524  0.00  0.00    +0.019 C 
BRANCH  20  21
ATOM     21  C   UNL     1      -1.688   2.888  25.164  0.00  0.00    +0.072 C 
BRANCH  21  22
ATOM     22  N   UNL     1      -1.620   3.710  25.159  0.00  0.00    -0.273 NA
ATOM     23  C   UNL     1      -0.896   4.064  24.982  0.00  0.00    +0.072 C 
ATOM     24  C   UNL     1      -0.828   4.886  24.977  0.00  0.00    +0.017 C 
ATOM     25  C   UNL     1      -1.485   5.354  25.149  0.00  0.00    +0.003 C 
ATOM     26  C   UNL     1      -2.209   5.001  25.326  0.00  0.00    +0.017 C 
ATOM     27  C   UNL     1      -2.276   4.179  25.331  0.00  0.00    +0.072 C 
ENDBRANCH  21  22
ENDBRANCH  20  21
ENDBRANCH  19  20
TORSDOF 7
ENDMDL
MODEL 4
REMARK VINA RESULT:      -9.6      1.261      2.606
REMARK  Name = 
REMARK  7 active torsions:
REMARK  status: ('A' for Active; 'I' for Inactive)
REMARK    1  A    between atoms: O_2  and  C_3
REMARK    2  A    between atoms: C_6  and  C_9
REMARK    3  A    between atoms: C_14  and  C_15
REMARK    4  A    between atoms: C_15  and  C_16
REMARK    5  A    between atoms: C_19  and  C_20
REMARK    6  A    between atoms: C_20  and  C_21
REMARK    7  A    between atoms: C_21  and  N_22
REMARK                            x       y       z     vdW  Elec       q    Type
REMARK                         _______ _______ _______ _____ _____    ______ ____
ROOT
ATOM      9  C   UNL     1      -2.747   2.260  25.106  0.00  0.00    +0.249 C 
ATOM     10  O   UNL     1      -3.527   2.088  25.313  0.00  0.00    -0.270 OA
ATOM     11  N   UNL     1      -2.245   1.656  24.854  0.00  0.00    -0.276 N 
ATOM     12  C   UNL     1      -1.464   1.828  24.647  0.00  0.00    +0.094 C 
ATOM     13  C   UNL     1      -0.963   1.224  24.395  0.00  0.00    +0.022 C 
ATOM     14  C   UNL     1      -1.240   0.449  24.348  0.00  0.00    +0.015 C 
ATOM     19  C   UNL     1      -2.020   0.277  24.554  0.00  0.00    +0.022 C 
ATOM     28  C   UNL     1      -2.523   0.881  24.807  0.00  0.00    +0.094 C 
ENDROOT
BRANCH   9   6
ATOM      3  C   UNL     1      -1.913   4.586  25.246  0.00  0.00    +0.139 A 
ATOM      4  C   UNL     1      -1.761   4.057  25.860  0.00  0.00    +0.037 A 
ATOM      5  C   UNL     1      -2.040   3.280  25.813  0.00  0.00    +0.008 A 
ATOM      6  C   UNL     1      -2.469   3.035  25.153  0.00  0.00    +0.054 A 
ATOM      7  C   UNL     1      -2.620   3.565  24.539  0.00  0.00    +0.008 A 
ATOM      8  C   UNL     1      -2.342   4.341  24.585  0.00  0.00    +0.037 A 
BRANCH   3   2
ATOM      1  C   UNL     1      -0.947   5.578  24.890  0.00  0.00    +0.252 C 
ATOM      2  O   UNL     1      -1.635   5.361  25.293  0.00  0.00    -0.471 OA
ENDBRANCH   3   2
ENDBRANCH   9   6
BRANCH  14  15
ATOM     15  C   UNL     1      -0.738  -0.155  24.095  0.00  0.00    +0.114 C 
BRANCH  15  16
ATOM     16  C   UNL     1      -0.008   0.030  23.759  0.00  0.00    +0.365 C 
ATOM     17  O   UNL     1       0.657   0.116  24.238  0.00  0.00    -0.246 OA
ATOM     18  O   UNL     1       0.056   0.130  22.942  0.00  0.00    -0.246 OA
ENDBRANCH  15  16
ENDBRANCH  14  15
BRANCH  19  20
ATOM     20  C   UNL     1      -2.298  -0.498  24.508  0.00  0.00    +0.019 C 
BRANCH  20  21
ATOM     21  C   UNL     1      -3.085  -0.665  24.688  0.00  0.00    +0.072 C 
BRANCH  21  22
ATOM     22  N   UNL     1      -3.391  -1.418  24.542  0.00  0.00    -0.273 NA
ATOM     23  C   UNL     1      -3.148  -2.058  25.003  0.00  0.00    +0.072 C 
ATOM     24  C   UNL     1      -3.454  -2.811  24.857  0.00  0.00    +0.017 C 
ATOM     25  C   UNL     1      -4.002  -2.922  24.251  0.00  0.00    +0.003 C 
ATOM     26  C   UNL     1      -4.244  -2.283  23.790  0.00  0.00    +0.017 C 
ATOM     27  C   UNL     1      -3.939  -1.531  23.936  0.00  0.00    +0.072 C 
ENDBRANCH  21  22
ENDBRANCH  20  21
ENDBRANCH  19  20
TORSDOF 7
ENDMDL
MODEL 5
REMARK VINA RESULT:      -8.5      2.294      3.968
REMARK  Name = 
REMARK  7 active torsions:
REMARK  status: ('A' for Active; 'I' for Inactive)
REMARK    1  A    between atoms: O_2  and  C_3
REMARK    2  A    between atoms: C_6  and  C_9
REMARK    3  A    between atoms: C_14  and  C_15
REMARK    4  A    between atoms: C_15  and  C_16
REMARK    5  A    between atoms: C_19  and  C_20
REMARK    6  A    between atoms: C_20  and  C_21
REMARK    7  A    between atoms: C_21  and  N_22
REMARK                            x       y       z     vdW  Elec       q    Type
REMARK                         _______ _______ _______ _____ _____    ______ ____
ROOT
ATOM      9  C   UNL     1      -1.325   1.103  23.821  0.00  0.00    +0.249 C 
ATOM     10  O   UNL     1      -1.474   1.888  23.611  0.00  0.00    -0.270 OA
ATOM     11  N   UNL     1      -1.909   0.662  24.201  0.00  0.00    -0.276 N 
ATOM     12  C   UNL     1      -1.761  -0.123  24.411  0.00  0.00    +0.094 C 
ATOM     13  C   UNL     1      -2.344  -0.565  24.792  0.00  0.00    +0.022 C 
ATOM     14  C   UNL     1      -3.074  -0.223  24.963  0.00  0.00    +0.015 C 
ATOM     19  C   UNL     1      -3.223   0.561  24.754  0.00  0.00    +0.022 C 
ATOM     28  C   UNL     1      -2.639   1.003  24.372  0.00  0.00    +0.094 C 
ENDROOT
BRANCH   9   6
ATOM      3  C   UNL     1       0.868   0.078  23.307  0.00  0.00    +0.139 A 
ATOM      4  C   UNL     1       0.206  -0.116  22.855  0.00  0.00    +0.037 A 
ATOM      5  C   UNL     1      -0.526   0.226  23.026  0.00  0.00    +0.008 A 
ATOM      6  C   UNL     1      -0.594   0.761  23.649  0.00  0.00    +0.054 A 
ATOM      7  C   UNL     1       0.067   0.956  24.102  0.00  0.00    +0.008 A 
ATOM      8  C   UNL     1       0.799   0.613  23.931  0.00  0.00    +0.037 A 
BRANCH   3   2
ATOM      1  C   UNL     1       2.106   0.096  22.592  0.00  0.00    +0.252 C 
ATOM      2  O   UNL     1       1.599  -0.264  23.136  0.00  0.00    -0.471 OA
ENDBRANCH   3   2
ENDBRANCH   9   6
BRANCH  14  15
ATOM     15  C   UNL     1      -3.658  -0.666  25.344  0.00  0.00    +0.114 C 
BRANCH  15  16
ATOM     16  C   UNL     1      -3.481  -1.418  25.633  0.00  0.00    +0.365 C 
ATOM     17  O   UNL     1      -3.192  -1.508  26.400  0.00  0.00    -0.246 OA
ATOM     18  O   UNL     1      -3.595  -2.081  25.154  0.00  0.00    -0.246 OA
ENDBRANCH  15  16
ENDBRANCH  14  15
BRANCH  19  20
ATOM     20  C   UNL     1      -3.954   0.902  24.925  0.00  0.00    +0.019 C 
BRANCH  20  21
ATOM     21  C   UNL     1      -4.127   1.662  24.655  0.00  0.00    +0.072 C 
BRANCH  21  22
ATOM     22  N   UNL     1      -4.758   2.081  24.980  0.00  0.00    -0.273 NA
ATOM     23  C   UNL     1      -5.525   1.781  24.926  0.00  0.00    +0.072 C 
ATOM     24  C   UNL     1      -6.157   2.201  25.252  0.00  0.00    +0.017 C 
ATOM     25  C   UNL     1      -6.020   2.921  25.632  0.00  0.00    +0.003 C 
ATOM     26  C   UNL     1      -5.254   3.221  25.686  0.00  0.00    +0.017 C 
ATOM     27  C   UNL     1      -4.623   2.801  25.361  0.00  0.00    +0.072 C 
ENDBRANCH  21  22
ENDBRANCH  20  21
ENDBRANCH  19  20
TORSDOF 7
ENDMDL
MODEL 6
REMARK VINA RESULT:      -8.2      2.549      4.201
REMARK  Name = 
REMARK  7 active torsions:
REMARK  status: ('A' for Active; 'I' for Inactive)
REMARK    1  A    between atoms: O_2  and  C_3
REMARK    2  A    between atoms: C_6  and  C_9
REMARK    3  A    between atoms: C_14  and  C_15
REMARK    4  A    between atoms: C_15  and  C_16
REMARK    5  A    between atoms: C_19  and  C_20
REMARK    6  A    between atoms: C_20  and  C_21
REMARK    7  A    between atoms: C_21  and  N_22
REMARK                            x       y       z     vdW  Elec       q    Type
REMARK                         _______ _______ _______ _____ _____    ______ ____
ROOT
ATOM      9  C   UNL     1      -2.210   2.349  24.043  0.00  0.00    +0.249 C 
ATOM     10  O   UNL     1      -1.802   2.801  23.485  0.00  0.00    -0.270 OA
ATOM     11  N   UNL     1      -1.897   1.629  24.298  0.00  0.00    -0.276 N 
ATOM     12  C   UNL     1      -2.305   1.178  24.856  0.00  0.00    +0.094 C 
ATOM     13  C   UNL     1      -1.993   0.458  25.111  0.00  0.00    +0.022 C 
ATOM     14  C   UNL     1      -1.275   0.190  24.810  0.00  0.00    +0.015 C 
ATOM     19  C   UNL     1      -0.866   0.641  24.252  0.00  0.00    +0.022 C 
ATOM     28  C   UNL     1      -1.179   1.361  23.997  0.00  0.00    +0.094 C 
ENDROOT
BRANCH   9   6
ATOM      3  C   UNL     1      -4.368   3.154  24.947  0.00  0.00    +0.139 A 
ATOM      4  C   UNL     1      -3.663   3.357  25.322  0.00  0.00    +0.037 A 
ATOM      5  C   UNL     1      -2.942   3.088  25.020  0.00  0.00    +0.008 A 
ATOM      6  C   UNL     1      -2.929   2.617  24.344  0.00  0.00    +0.054 A 
ATOM      7  C   UNL     1      -3.635   2.413  23.968  0.00  0.00    +0.008 A 
ATOM      8  C   UNL     1      -4.355   2.682  24.270  0.00  0.00    +0.037 A 
BRANCH   3   2
ATOM      1  C   UNL     1      -5.533   2.937  25.748  0.00  0.00    +0.252 C 
ATOM      2  O   UNL     1      -5.088   3.422  25.249  0.00  0.00    -0.471 OA
ENDBRANCH   3   2
ENDBRANCH   9   6
BRANCH  14  15
ATOM     15  C   UNL     1      -0.962  -0.530  25.065  0.00  0.00    +0.114 C 
BRANCH  15  16
ATOM     16  C   UNL     1      -1.401  -1.014  25.569  0.00  0.00    +0.365 C 
ATOM     17  O   UNL     1      -1.885  -1.603  25.257  0.00  0.00    -0.246 OA
ATOM     18  O   UNL     1      -1.356  -0.906  26.387  0.00  0.00    -0.246 OA
ENDBRANCH  15  16
ENDBRANCH  14  15
BRANCH  19  20
ATOM     20  C   UNL     1      -0.147   0.373  23.951  0.00  0.00    +0.019 C 
BRANCH  20  21
ATOM     21  C   UNL     1       0.318   0.873  23.489  0.00  0.00    +0.072 C 
BRANCH  21  22
ATOM     22  N   UNL     1       1.036   0.604  23.185  0.00  0.00    -0.273 NA
ATOM     23  C   UNL     1       1.744   0.959  23.420  0.00  0.00    +0.072 C 
ATOM     24  C   UNL     1       2.462   0.689  23.116  0.00  0.00    +0.017 C 
ATOM     25  C   UNL     1       2.472   0.065  22.576  0.00  0.00    +0.003 C 
ATOM     26  C   UNL     1       1.766  -0.290  22.341  0.00  0.00    +0.017 C 
ATOM     27  C   UNL     1       1.048  -0.020  22.646  0.00  0.00    +0.072 C 
ENDBRANCH  21  22
ENDBRANCH  20  21
ENDBRANCH  19  20
TORSDOF 7
ENDMDL
MODEL 7
REMARK VINA RESULT:      -8.1      2.316      4.476
REMARK  Name = 
REMARK  7 active torsions:
REMARK  status: ('A' for Active; 'I' for Inactive)
REMARK    1  A    between atoms: O_2  and  C_3
REMARK    2  A    between atoms: C_6  and  C_9
REMARK    3  A    between atoms: C_14  and  C_15
REMARK    4  A    between atoms: C_15  and  C_16
REMARK    5  A    between atoms: C_19  and  C_20
REMARK    6  A    between atoms: C_20  and  C_21
REMARK    7  A    between atoms: C_21  and  N_22
REMARK                            x       y       z     vdW  Elec       q    Type
REMARK                         _______ _______ _______ _____ _____    ______ ____
ROOT
ATOM      9  C   UNL     1      -2.907   1.201  23.928  0.00  0.00    +0.249 C 
ATOM     10  O   UNL     1      -2.877   0.748  23.238  0.00  0.00    -0.270 OA
ATOM     11  N   UNL     1      -2.208   1.433  24.298  0.00  0.00    -0.276 N 
ATOM     12  C   UNL     1      -2.237   1.886  24.988  0.00  0.00    +0.094 C 
ATOM     13  C   UNL     1      -1.538   2.118  25.359  0.00  0.00    +0.022 C 
ATOM     14  C   UNL     1      -0.810   1.898  25.041  0.00  0.00    +0.015 C 
ATOM     19  C   UNL     1      -0.780   1.446  24.352  0.00  0.00    +0.022 C 
ATOM     28  C   UNL     1      -1.480   1.213  23.980  0.00  0.00    +0.094 C 
ENDROOT
BRANCH   9   6
ATOM      3  C   UNL     1      -5.093   1.860  24.883  0.00  0.00    +0.139 A 
ATOM      4  C   UNL     1      -4.687   2.378  24.388  0.00  0.00    +0.037 A 
ATOM      5  C   UNL     1      -3.957   2.158  24.069  0.00  0.00    +0.008 A 
ATOM      6  C   UNL     1      -3.636   1.420  24.246  0.00  0.00    +0.054 A 
ATOM      7  C   UNL     1      -4.042   0.901  24.743  0.00  0.00    +0.008 A 
ATOM      8  C   UNL     1      -4.772   1.121  25.061  0.00  0.00    +0.037 A 
BRANCH   3   2
ATOM      1  C   UNL     1      -5.853   2.609  25.834  0.00  0.00    +0.252 C 
ATOM      2  O   UNL     1      -5.822   2.080  25.202  0.00  0.00    -0.471 OA
ENDBRANCH   3   2
ENDBRANCH   9   6
BRANCH  14  15
ATOM     15  C   UNL     1      -0.110   2.131  25.412  0.00  0.00    +0.114 C 
BRANCH  15  16
ATOM     16  C   UNL     1      -0.132   2.685  26.022  0.00  0.00    +0.365 C 
ATOM     17  O   UNL     1      -0.107   2.436  26.807  0.00  0.00    -0.246 OA
ATOM     18  O   UNL     1      -0.179   3.491  25.846  0.00  0.00    -0.246 OA
ENDBRANCH  15  16
ENDBRANCH  14  15
BRANCH  19  20
ATOM     20  C   UNL     1      -0.051   1.226  24.033  0.00  0.00    +0.019 C 
BRANCH  20  21
ATOM     21  C   UNL     1       0.032   0.495  23.661  0.00  0.00    +0.072 C 
BRANCH  21  22
ATOM     22  N   UNL     1       0.724   0.321  23.246  0.00  0.00    -0.273 NA
ATOM     23  C   UNL     1       1.431   0.696  23.446  0.00  0.00    +0.072 C 
ATOM     24  C   UNL     1       2.123   0.521  23.031  0.00  0.00    +0.017 C 
ATOM     25  C   UNL     1       2.106  -0.029  22.416  0.00  0.00    +0.003 C 
ATOM     26  C   UNL     1       1.400  -0.404  22.217  0.00  0.00    +0.017 C 
ATOM     27  C   UNL     1       0.708  -0.229  22.631  0.00  0.00    +0.072 C 
ENDBRANCH  21  22
ENDBRANCH  20  21
ENDBRANCH  19  20
TORSDOF 7
ENDMDL
