REMARK  Name = 
REMARK  8 active torsions:
REMARK  status: ('A' for Active; 'I' for Inactive)
REMARK    1  A    between atoms: C_2  and  C_4
REMARK    2  A    between atoms: C_6  and  C_7
REMARK    3  A    between atoms: C_7  and  C_8
REMARK    4  A    between atoms: C_11  and  C_13
REMARK    5  A    between atoms: C_23  and  C_24
REMARK    6  A    between atoms: C_24  and  N_25
REMARK    7  A    between atoms: N_25  and  C_26
REMARK    8  A    between atoms: C_26  and  C_27
REMARK                            x       y       z     vdW  Elec       q    Type
REMARK                         _______ _______ _______ _____ _____    ______ ____
ROOT
ATOM      4  C   UNL     1       2.858  -2.475   0.000  0.00  0.00    +0.006 C 
ATOM      5  C   UNL     1       3.572  -2.888   0.000  0.00  0.00    +0.005 C 
ATOM      6  C   UNL     1       3.572  -3.712   0.000  0.00  0.00    +0.027 C 
ATOM     20  C   UNL     1       2.858  -4.125   0.000  0.00  0.00    -0.048 C 
ATOM     21  C   UNL     1       2.858  -4.950   0.000  0.00  0.00    +0.026 C 
ATOM     22  C   UNL     1       2.143  -3.712   0.000  0.00  0.00    -0.033 C 
ATOM     23  C   UNL     1       2.143  -2.888   0.000  0.00  0.00    +0.039 C 
ENDROOT
BRANCH   4   2
ATOM      1  C   UNL     1       2.143  -1.238   0.000  0.00  0.00    +0.000 C 
ATOM      2  C   UNL     1       2.858  -1.650   0.000  0.00  0.00    +0.000 C 
ATOM      3  C   UNL     1       3.572  -1.238   0.000  0.00  0.00    +0.000 C 
ENDBRANCH   4   2
BRANCH   6   7
ATOM      7  C   UNL     1       4.287  -4.125   0.000  0.00  0.00    +0.091 C 
BRANCH   7   8
ATOM      8  C   UNL     1       4.287  -4.950   0.000  0.00  0.00    +0.227 A 
ATOM      9  N   UNL     1       4.954  -5.435   0.000  0.00  0.00    -0.111 NA
ATOM     10  N   UNL     1       4.699  -6.220   0.000  0.00  0.00    -0.107 NA
ATOM     11  C   UNL     1       3.874  -6.220   0.000  0.00  0.00    +0.250 A 
ATOM     12  O   UNL     1       3.619  -5.435   0.000  0.00  0.00    -0.420 OA
BRANCH  11  13
ATOM     13  C   UNL     1       3.389  -6.887   0.000  0.00  0.00    +0.055 A 
ATOM     14  C   UNL     1       3.725  -7.641   0.000  0.00  0.00    +0.004 A 
ATOM     15  C   UNL     1       3.240  -8.308   0.000  0.00  0.00    -0.004 A 
ATOM     16  C   UNL     1       2.420  -8.222   0.000  0.00  0.00    -0.022 A 
ATOM     17  C   UNL     1       1.935  -8.889   0.000  0.00  0.00    +0.031 C 
ATOM     18  C   UNL     1       2.084  -7.468   0.000  0.00  0.00    -0.004 A 
ATOM     19  C   UNL     1       2.569  -6.801   0.000  0.00  0.00    +0.004 A 
ENDBRANCH  11  13
ENDBRANCH   7   8
ENDBRANCH   6   7
BRANCH  23  24
ATOM     24  C   UNL     1       1.429  -2.475   0.000  0.00  0.00    +0.093 C 
BRANCH  24  25
ATOM     25  N   UNL     1       1.429  -1.650   0.000  0.00  0.00    -0.211 NA
BRANCH  25  26
ATOM     26  C   UNL     1       0.715  -1.238   0.000  0.00  0.00    +0.134 C 
BRANCH  26  27
ATOM     27  C   UNL     1       0.715  -0.412   0.000  0.00  0.00    +0.077 A 
ATOM     28  N   UNL     1       0.000   0.000   0.000  0.00  0.00    -0.247 NA
ATOM     29  C   UNL     1       0.000   0.825   0.000  0.00  0.00    +0.098 A 
ATOM     30  C   UNL     1       0.715   1.238   0.000  0.00  0.00    +0.021 A 
ATOM     31  C   UNL     1       1.429   0.825   0.000  0.00  0.00    +0.003 A 
ATOM     32  C   UNL     1       1.429   0.000   0.000  0.00  0.00    +0.016 A 
ENDBRANCH  26  27
ENDBRANCH  25  26
ENDBRANCH  24  25
ENDBRANCH  23  24
TORSDOF 8
