MODEL 1
REMARK VINA RESULT:      -9.6      0.000      0.000
REMARK  Name = 
REMARK  8 active torsions:
REMARK  status: ('A' for Active; 'I' for Inactive)
REMARK    1  A    between atoms: O_2  and  C_3
REMARK    2  A    between atoms: C_6  and  C_7
REMARK    3  A    between atoms: C_7  and  N_8
REMARK    4  A    between atoms: N_8  and  C_9
REMARK    5  A    between atoms: C_12  and  C_13
REMARK    6  A    between atoms: C_13  and  N_14
REMARK    7  A    between atoms: N_14  and  S_15
REMARK    8  A    between atoms: S_15  and  C_18
REMARK                            x       y       z     vdW  Elec       q    Type
REMARK                         _______ _______ _______ _____ _____    ______ ____
ROOT
ATOM      9  C   UNL     1      -4.331   1.031  24.637  0.00  0.00    +0.135 C 
ATOM     10  C   UNL     1      -4.773   1.372  25.245  0.00  0.00    +0.162 C 
ATOM     11  O   UNL     1      -4.526   2.154  25.332  0.00  0.00    -0.350 OA
ATOM     12  C   UNL     1      -3.931   2.297  24.779  0.00  0.00    +0.166 C 
ATOM     24  C   UNL     1      -3.810   1.603  24.349  0.00  0.00    +0.199 C 
ATOM     25  O   UNL     1      -3.266   1.499  23.739  0.00  0.00    -0.219 OA
ENDROOT
BRANCH   9   8
ATOM      8  N   UNL     1      -4.398   0.255  24.365  0.00  0.00    -0.209 NA
BRANCH   8   7
ATOM      7  C   UNL     1      -4.476  -0.365  24.902  0.00  0.00    +0.115 C 
BRANCH   7   6
ATOM      3  C   UNL     1      -3.529  -2.589  24.373  0.00  0.00    +0.139 A 
ATOM      4  C   UNL     1      -3.303  -2.198  25.065  0.00  0.00    +0.037 A 
ATOM      5  C   UNL     1      -3.619  -1.457  25.241  0.00  0.00    +0.000 A 
ATOM      6  C   UNL     1      -4.161  -1.106  24.726  0.00  0.00    -0.005 A 
ATOM     26  C   UNL     1      -4.385  -1.497  24.036  0.00  0.00    +0.000 A 
ATOM     27  C   UNL     1      -4.069  -2.238  23.859  0.00  0.00    +0.037 A 
BRANCH   3   2
ATOM      1  C   UNL     1      -2.401  -3.414  24.073  0.00  0.00    +0.252 C 
ATOM      2  O   UNL     1      -3.212  -3.331  24.197  0.00  0.00    -0.471 OA
ENDBRANCH   3   2
ENDBRANCH   7   6
ENDBRANCH   8   7
ENDBRANCH   9   8
BRANCH  12  13
ATOM     13  C   UNL     1      -3.527   3.009  24.673  0.00  0.00    +0.148 C 
BRANCH  13  14
ATOM     14  N   UNL     1      -3.192   3.393  25.323  0.00  0.00    -0.075 NA
BRANCH  14  15
ATOM     15  S   UNL     1      -2.548   3.897  25.216  0.00  0.00    +0.077 S 
ATOM     16  O   UNL     1      -2.956   4.291  24.617  0.00  0.00    -0.152 OA
ATOM     17  O   UNL     1      -2.140   3.502  25.815  0.00  0.00    -0.152 OA
BRANCH  15  18
ATOM     18  C   UNL     1      -1.904   4.401  25.108  0.00  0.00    +0.124 A 
ATOM     19  C   UNL     1      -2.009   5.218  25.150  0.00  0.00    +0.020 A 
ATOM     20  C   UNL     1      -1.365   5.723  25.043  0.00  0.00    +0.001 A 
ATOM     21  C   UNL     1      -0.616   5.410  24.894  0.00  0.00    +0.000 A 
ATOM     22  C   UNL     1      -0.511   4.593  24.852  0.00  0.00    +0.001 A 
ATOM     23  C   UNL     1      -1.156   4.088  24.960  0.00  0.00    +0.020 A 
ENDBRANCH  15  18
ENDBRANCH  14  15
ENDBRANCH  13  14
ENDBRANCH  12  13
TORSDOF 8
ENDMDL
MODEL 2
REMARK VINA RESULT:      -8.9      4.427      5.791
REMARK  Name = 
REMARK  8 active torsions:
REMARK  status: ('A' for Active; 'I' for Inactive)
REMARK    1  A    between atoms: O_2  and  C_3
REMARK    2  A    between atoms: C_6  and  C_7
REMARK    3  A    between atoms: C_7  and  N_8
REMARK    4  A    between atoms: N_8  and  C_9
REMARK    5  A    between atoms: C_12  and  C_13
REMARK    6  A    between atoms: C_13  and  N_14
REMARK    7  A    between atoms: N_14  and  S_15
REMARK    8  A    between atoms: S_15  and  C_18
REMARK                            x       y       z     vdW  Elec       q    Type
REMARK                         _______ _______ _______ _____ _____    ______ ____
ROOT
ATOM      9  C   UNL     1       0.611   0.537  23.552  0.00  0.00    +0.135 C 
ATOM     10  C   UNL     1       0.206  -0.149  23.340  0.00  0.00    +0.162 C 
ATOM     11  O   UNL     1      -0.590  -0.043  23.527  0.00  0.00    -0.350 OA
ATOM     12  C   UNL     1      -0.677   0.709  23.855  0.00  0.00    +0.166 C 
ATOM     24  C   UNL     1       0.065   1.068  23.871  0.00  0.00    +0.199 C 
ATOM     25  O   UNL     1       0.233   1.824  24.155  0.00  0.00    -0.219 OA
ENDROOT
BRANCH   9   8
ATOM      8  N   UNL     1       1.421   0.670  23.462  0.00  0.00    -0.209 NA
BRANCH   8   7
ATOM      7  C   UNL     1       1.856   0.220  22.925  0.00  0.00    +0.115 C 
BRANCH   7   6
ATOM      3  C   UNL     1       4.328   0.310  22.951  0.00  0.00    +0.139 A 
ATOM      4  C   UNL     1       3.894   0.974  22.723  0.00  0.00    +0.037 A 
ATOM      5  C   UNL     1       3.070   0.944  22.714  0.00  0.00    +0.000 A 
ATOM      6  C   UNL     1       2.679   0.250  22.934  0.00  0.00    -0.005 A 
ATOM     26  C   UNL     1       3.114  -0.413  23.162  0.00  0.00    +0.000 A 
ATOM     27  C   UNL     1       3.939  -0.383  23.171  0.00  0.00    +0.037 A 
BRANCH   3   2
ATOM      1  C   UNL     1       5.569   0.057  23.613  0.00  0.00    +0.252 C 
ATOM      2  O   UNL     1       5.154   0.340  22.960  0.00  0.00    -0.471 OA
ENDBRANCH   3   2
ENDBRANCH   7   6
ENDBRANCH   8   7
ENDBRANCH   9   8
BRANCH  12  13
ATOM     13  C   UNL     1      -1.383   1.044  24.121  0.00  0.00    +0.148 C 
BRANCH  13  14
ATOM     14  N   UNL     1      -2.101   0.663  23.974  0.00  0.00    -0.075 NA
BRANCH  14  15
ATOM     15  S   UNL     1      -2.811   1.030  24.177  0.00  0.00    +0.077 S 
ATOM     16  O   UNL     1      -2.940   1.221  23.385  0.00  0.00    -0.152 OA
ATOM     17  O   UNL     1      -2.681   0.839  24.970  0.00  0.00    -0.152 OA
BRANCH  15  18
ATOM     18  C   UNL     1      -3.521   1.397  24.381  0.00  0.00    +0.124 A 
ATOM     19  C   UNL     1      -3.627   2.202  24.231  0.00  0.00    +0.020 A 
ATOM     20  C   UNL     1      -4.337   2.570  24.435  0.00  0.00    +0.001 A 
ATOM     21  C   UNL     1      -4.941   2.132  24.788  0.00  0.00    +0.000 A 
ATOM     22  C   UNL     1      -4.835   1.329  24.938  0.00  0.00    +0.001 A 
ATOM     23  C   UNL     1      -4.124   0.961  24.735  0.00  0.00    +0.020 A 
ENDBRANCH  15  18
ENDBRANCH  14  15
ENDBRANCH  13  14
ENDBRANCH  12  13
TORSDOF 8
ENDMDL
MODEL 3
REMARK VINA RESULT:      -8.9      1.871      2.272
REMARK  Name = 
REMARK  8 active torsions:
REMARK  status: ('A' for Active; 'I' for Inactive)
REMARK    1  A    between atoms: O_2  and  C_3
REMARK    2  A    between atoms: C_6  and  C_7
REMARK    3  A    between atoms: C_7  and  N_8
REMARK    4  A    between atoms: N_8  and  C_9
REMARK    5  A    between atoms: C_12  and  C_13
REMARK    6  A    between atoms: C_13  and  N_14
REMARK    7  A    between atoms: N_14  and  S_15
REMARK    8  A    between atoms: S_15  and  C_18
REMARK                            x       y       z     vdW  Elec       q    Type
REMARK                         _______ _______ _______ _____ _____    ______ ____
ROOT
ATOM      9  C   UNL     1      -1.120   0.025  25.079  0.00  0.00    +0.135 C 
ATOM     10  C   UNL     1      -0.808   0.155  25.831  0.00  0.00    +0.162 C 
ATOM     11  O   UNL     1      -0.615   0.954  25.893  0.00  0.00    -0.350 OA
ATOM     12  C   UNL     1      -0.808   1.319  25.178  0.00  0.00    +0.166 C 
ATOM     24  C   UNL     1      -1.120   0.745  24.675  0.00  0.00    +0.199 C 
ATOM     25  O   UNL     1      -1.386   0.869  23.905  0.00  0.00    -0.219 OA
ENDROOT
BRANCH   9   8
ATOM      8  N   UNL     1      -1.385  -0.697  24.782  0.00  0.00    -0.209 NA
BRANCH   8   7
ATOM      7  C   UNL     1      -1.730  -1.251  25.287  0.00  0.00    +0.115 C 
BRANCH   7   6
ATOM      3  C   UNL     1      -3.487  -2.774  24.444  0.00  0.00    +0.139 A 
ATOM      4  C   UNL     1      -2.712  -2.845  24.168  0.00  0.00    +0.037 A 
ATOM      5  C   UNL     1      -2.126  -2.337  24.449  0.00  0.00    +0.000 A 
ATOM      6  C   UNL     1      -2.315  -1.758  25.006  0.00  0.00    -0.005 A 
ATOM     26  C   UNL     1      -3.089  -1.688  25.282  0.00  0.00    +0.000 A 
ATOM     27  C   UNL     1      -3.675  -2.196  25.000  0.00  0.00    +0.037 A 
BRANCH   3   2
ATOM      1  C   UNL     1      -4.576  -3.037  23.556  0.00  0.00    +0.252 C 
ATOM      2  O   UNL     1      -4.074  -3.283  24.162  0.00  0.00    -0.471 OA
ENDBRANCH   3   2
ENDBRANCH   7   6
ENDBRANCH   8   7
ENDBRANCH   9   8
BRANCH  12  13
ATOM     13  C   UNL     1      -0.707   2.118  24.999  0.00  0.00    +0.148 C 
BRANCH  13  14
ATOM     14  N   UNL     1      -0.728   2.682  25.602  0.00  0.00    -0.075 NA
BRANCH  14  15
ATOM     15  S   UNL     1      -0.939   3.461  25.430  0.00  0.00    +0.077 S 
ATOM     16  O   UNL     1      -1.545   3.420  25.988  0.00  0.00    -0.152 OA
ATOM     17  O   UNL     1      -0.332   3.501  24.871  0.00  0.00    -0.152 OA
BRANCH  15  18
ATOM     18  C   UNL     1      -1.150   4.239  25.258  0.00  0.00    +0.124 A 
ATOM     19  C   UNL     1      -1.904   4.515  25.452  0.00  0.00    +0.020 A 
ATOM     20  C   UNL     1      -2.115   5.294  25.281  0.00  0.00    +0.001 A 
ATOM     21  C   UNL     1      -1.573   5.797  24.914  0.00  0.00    +0.000 A 
ATOM     22  C   UNL     1      -0.821   5.521  24.720  0.00  0.00    +0.001 A 
ATOM     23  C   UNL     1      -0.609   4.742  24.892  0.00  0.00    +0.020 A 
ENDBRANCH  15  18
ENDBRANCH  14  15
ENDBRANCH  13  14
ENDBRANCH  12  13
TORSDOF 8
ENDMDL
MODEL 4
REMARK VINA RESULT:      -8.8      2.158      6.382
REMARK  Name = 
REMARK  8 active torsions:
REMARK  status: ('A' for Active; 'I' for Inactive)
REMARK    1  A    between atoms: O_2  and  C_3
REMARK    2  A    between atoms: C_6  and  C_7
REMARK    3  A    between atoms: C_7  and  N_8
REMARK    4  A    between atoms: N_8  and  C_9
REMARK    5  A    between atoms: C_12  and  C_13
REMARK    6  A    between atoms: C_13  and  N_14
REMARK    7  A    between atoms: N_14  and  S_15
REMARK    8  A    between atoms: S_15  and  C_18
REMARK                            x       y       z     vdW  Elec       q    Type
REMARK                         _______ _______ _______ _____ _____    ______ ____
ROOT
ATOM      9  C   UNL     1      -0.834   1.438  25.104  0.00  0.00    +0.135 C 
ATOM     10  C   UNL     1      -0.645   1.041  25.801  0.00  0.00    +0.162 C 
ATOM     11  O   UNL     1      -0.915   0.265  25.733  0.00  0.00    -0.350 OA
ATOM     12  C   UNL     1      -1.271   0.182  24.994  0.00  0.00    +0.166 C 
ATOM     24  C   UNL     1      -1.221   0.907  24.604  0.00  0.00    +0.199 C 
ATOM     25  O   UNL     1      -1.507   1.073  23.849  0.00  0.00    -0.219 OA
ENDROOT
BRANCH   9   8
ATOM      8  N   UNL     1      -0.665   2.228  24.934  0.00  0.00    -0.209 NA
BRANCH   8   7
ATOM      7  C   UNL     1      -0.676   2.791  25.537  0.00  0.00    +0.115 C 
BRANCH   7   6
ATOM      3  C   UNL     1      -1.241   5.144  25.024  0.00  0.00    +0.139 A 
ATOM      4  C   UNL     1      -1.776   4.673  25.442  0.00  0.00    +0.037 A 
ATOM      5  C   UNL     1      -1.587   3.888  25.613  0.00  0.00    +0.000 A 
ATOM      6  C   UNL     1      -0.864   3.574  25.366  0.00  0.00    -0.005 A 
ATOM     26  C   UNL     1      -0.331   4.046  24.949  0.00  0.00    +0.000 A 
ATOM     27  C   UNL     1      -0.520   4.831  24.779  0.00  0.00    +0.037 A 
BRANCH   3   2
ATOM      1  C   UNL     1      -2.169   6.231  25.062  0.00  0.00    +0.252 C 
ATOM      2  O   UNL     1      -1.430   5.930  24.853  0.00  0.00    -0.471 OA
ENDBRANCH   3   2
ENDBRANCH   7   6
ENDBRANCH   8   7
ENDBRANCH   9   8
BRANCH  12  13
ATOM     13  C   UNL     1      -1.617  -0.506  24.696  0.00  0.00    +0.148 C 
BRANCH  13  14
ATOM     14  N   UNL     1      -2.082  -0.980  25.187  0.00  0.00    -0.075 NA
BRANCH  14  15
ATOM     15  S   UNL     1      -2.648  -1.481  24.859  0.00  0.00    +0.077 S 
ATOM     16  O   UNL     1      -2.060  -1.862  24.424  0.00  0.00    -0.152 OA
ATOM     17  O   UNL     1      -3.237  -1.100  25.294  0.00  0.00    -0.152 OA
BRANCH  15  18
ATOM     18  C   UNL     1      -3.215  -1.983  24.530  0.00  0.00    +0.124 A 
ATOM     19  C   UNL     1      -3.168  -2.797  24.658  0.00  0.00    +0.020 A 
ATOM     20  C   UNL     1      -3.734  -3.300  24.330  0.00  0.00    +0.001 A 
ATOM     21  C   UNL     1      -4.347  -2.988  23.874  0.00  0.00    +0.000 A 
ATOM     22  C   UNL     1      -4.394  -2.175  23.747  0.00  0.00    +0.001 A 
ATOM     23  C   UNL     1      -3.827  -1.672  24.075  0.00  0.00    +0.020 A 
ENDBRANCH  15  18
ENDBRANCH  14  15
ENDBRANCH  13  14
ENDBRANCH  12  13
TORSDOF 8
ENDMDL
MODEL 5
REMARK VINA RESULT:      -8.7      1.462      5.887
REMARK  Name = 
REMARK  8 active torsions:
REMARK  status: ('A' for Active; 'I' for Inactive)
REMARK    1  A    between atoms: O_2  and  C_3
REMARK    2  A    between atoms: C_6  and  C_7
REMARK    3  A    between atoms: C_7  and  N_8
REMARK    4  A    between atoms: N_8  and  C_9
REMARK    5  A    between atoms: C_12  and  C_13
REMARK    6  A    between atoms: C_13  and  N_14
REMARK    7  A    between atoms: N_14  and  S_15
REMARK    8  A    between atoms: S_15  and  C_18
REMARK                            x       y       z     vdW  Elec       q    Type
REMARK                         _______ _______ _______ _____ _____    ______ ____
ROOT
ATOM      9  C   UNL     1      -4.157   2.242  24.832  0.00  0.00    +0.135 C 
ATOM     10  C   UNL     1      -4.757   2.020  25.352  0.00  0.00    +0.162 C 
ATOM     11  O   UNL     1      -4.889   1.212  25.259  0.00  0.00    -0.350 OA
ATOM     12  C   UNL     1      -4.370   0.933  24.681  0.00  0.00    +0.166 C 
ATOM     24  C   UNL     1      -3.918   1.570  24.417  0.00  0.00    +0.199 C 
ATOM     25  O   UNL     1      -3.330   1.540  23.840  0.00  0.00    -0.219 OA
ENDROOT
BRANCH   9   8
ATOM      8  N   UNL     1      -3.850   3.002  24.741  0.00  0.00    -0.209 NA
BRANCH   8   7
ATOM      7  C   UNL     1      -3.593   3.425  25.401  0.00  0.00    +0.115 C 
BRANCH   7   6
ATOM      3  C   UNL     1      -1.626   4.916  25.229  0.00  0.00    +0.139 A 
ATOM      4  C   UNL     1      -1.601   4.256  25.724  0.00  0.00    +0.037 A 
ATOM      5  C   UNL     1      -2.257   3.759  25.782  0.00  0.00    +0.000 A 
ATOM      6  C   UNL     1      -2.938   3.922  25.344  0.00  0.00    -0.005 A 
ATOM     26  C   UNL     1      -2.962   4.581  24.849  0.00  0.00    +0.000 A 
ATOM     27  C   UNL     1      -2.306   5.078  24.792  0.00  0.00    +0.037 A 
BRANCH   3   2
ATOM      1  C   UNL     1      -0.415   5.296  24.573  0.00  0.00    +0.252 C 
ATOM      2  O   UNL     1      -0.969   5.413  25.172  0.00  0.00    -0.471 OA
ENDBRANCH   3   2
ENDBRANCH   7   6
ENDBRANCH   8   7
ENDBRANCH   9   8
BRANCH  12  13
ATOM     13  C   UNL     1      -4.314   0.154  24.415  0.00  0.00    +0.148 C 
BRANCH  13  14
ATOM     14  N   UNL     1      -4.341  -0.470  24.955  0.00  0.00    -0.075 NA
BRANCH  14  15
ATOM     15  S   UNL     1      -3.979  -1.188  24.773  0.00  0.00    +0.077 S 
ATOM     16  O   UNL     1      -4.363  -1.197  24.044  0.00  0.00    -0.152 OA
ATOM     17  O   UNL     1      -3.594  -1.178  25.504  0.00  0.00    -0.152 OA
BRANCH  15  18
ATOM     18  C   UNL     1      -3.616  -1.906  24.591  0.00  0.00    +0.124 A 
ATOM     19  C   UNL     1      -2.816  -2.018  24.759  0.00  0.00    +0.020 A 
ATOM     20  C   UNL     1      -2.452  -2.736  24.577  0.00  0.00    +0.001 A 
ATOM     21  C   UNL     1      -2.890  -3.343  24.228  0.00  0.00    +0.000 A 
ATOM     22  C   UNL     1      -3.689  -3.231  24.061  0.00  0.00    +0.001 A 
ATOM     23  C   UNL     1      -4.053  -2.512  24.243  0.00  0.00    +0.020 A 
ENDBRANCH  15  18
ENDBRANCH  14  15
ENDBRANCH  13  14
ENDBRANCH  12  13
TORSDOF 8
ENDMDL
MODEL 6
REMARK VINA RESULT:      -8.0      4.428      5.624
REMARK  Name = 
REMARK  8 active torsions:
REMARK  status: ('A' for Active; 'I' for Inactive)
REMARK    1  A    between atoms: O_2  and  C_3
REMARK    2  A    between atoms: C_6  and  C_7
REMARK    3  A    between atoms: C_7  and  N_8
REMARK    4  A    between atoms: N_8  and  C_9
REMARK    5  A    between atoms: C_12  and  C_13
REMARK    6  A    between atoms: C_13  and  N_14
REMARK    7  A    between atoms: N_14  and  S_15
REMARK    8  A    between atoms: S_15  and  C_18
REMARK                            x       y       z     vdW  Elec       q    Type
REMARK                         _______ _______ _______ _____ _____    ______ ____
ROOT
ATOM      9  C   UNL     1      -0.814   0.972  23.828  0.00  0.00    +0.135 C 
ATOM     10  C   UNL     1      -0.771   0.260  23.413  0.00  0.00    +0.162 C 
ATOM     11  O   UNL     1       0.025   0.099  23.268  0.00  0.00    -0.350 OA
ATOM     12  C   UNL     1       0.473   0.711  23.592  0.00  0.00    +0.166 C 
ATOM     24  C   UNL     1      -0.045   1.251  23.938  0.00  0.00    +0.199 C 
ATOM     25  O   UNL     1       0.167   1.946  24.327  0.00  0.00    -0.219 OA
ENDROOT
BRANCH   9   8
ATOM      8  N   UNL     1      -1.505   1.341  24.087  0.00  0.00    -0.209 NA
BRANCH   8   7
ATOM      7  C   UNL     1      -2.235   1.120  23.771  0.00  0.00    +0.115 C 
BRANCH   7   6
ATOM      3  C   UNL     1      -4.294   2.302  24.465  0.00  0.00    +0.139 A 
ATOM      4  C   UNL     1      -4.083   1.592  24.831  0.00  0.00    +0.037 A 
ATOM      5  C   UNL     1      -3.396   1.198  24.599  0.00  0.00    +0.000 A 
ATOM      6  C   UNL     1      -2.921   1.514  24.002  0.00  0.00    -0.005 A 
ATOM     26  C   UNL     1      -3.133   2.223  23.638  0.00  0.00    +0.000 A 
ATOM     27  C   UNL     1      -3.819   2.617  23.870  0.00  0.00    +0.037 A 
BRANCH   3   2
ATOM      1  C   UNL     1      -4.996   3.118  25.405  0.00  0.00    +0.252 C 
ATOM      2  O   UNL     1      -4.982   2.696  24.697  0.00  0.00    -0.471 OA
ENDBRANCH   3   2
ENDBRANCH   7   6
ENDBRANCH   8   7
ENDBRANCH   9   8
BRANCH  12  13
ATOM     13  C   UNL     1       1.296   0.772  23.573  0.00  0.00    +0.148 C 
BRANCH  13  14
ATOM     14  N   UNL     1       1.721   0.432  22.952  0.00  0.00    -0.075 NA
BRANCH  14  15
ATOM     15  S   UNL     1       2.543   0.384  22.994  0.00  0.00    +0.077 S 
ATOM     16  O   UNL     1       2.509  -0.405  22.754  0.00  0.00    -0.152 OA
ATOM     17  O   UNL     1       2.577   1.173  23.234  0.00  0.00    -0.152 OA
BRANCH  15  18
ATOM     18  C   UNL     1       3.365   0.335  23.036  0.00  0.00    +0.124 A 
ATOM     19  C   UNL     1       3.723  -0.334  23.362  0.00  0.00    +0.020 A 
ATOM     20  C   UNL     1       4.546  -0.383  23.404  0.00  0.00    +0.001 A 
ATOM     21  C   UNL     1       5.010   0.237  23.119  0.00  0.00    +0.000 A 
ATOM     22  C   UNL     1       4.653   0.904  22.793  0.00  0.00    +0.001 A 
ATOM     23  C   UNL     1       3.830   0.954  22.751  0.00  0.00    +0.020 A 
ENDBRANCH  15  18
ENDBRANCH  14  15
ENDBRANCH  13  14
ENDBRANCH  12  13
TORSDOF 8
ENDMDL
