MODEL 1
REMARK VINA RESULT:     -15.5      0.000      0.000
REMARK  Name = 
REMARK  2 active torsions:
REMARK  status: ('A' for Active; 'I' for Inactive)
REMARK    1  A    between atoms: N_13  and  S_14
REMARK    2  A    between atoms: S_14  and  C_17
REMARK                            x       y       z     vdW  Elec       q    Type
REMARK                         _______ _______ _______ _____ _____    ______ ____
ROOT
ATOM      1  C   UNL     1      -1.000   5.265  25.013  0.00  0.00    +0.012 C 
ATOM      2  C   UNL     1      -1.226   4.472  24.985  0.00  0.00    +0.103 C 
ATOM      3  C   UNL     1      -2.001   4.189  24.992  0.00  0.00    +0.051 C 
ATOM      4  C   UNL     1      -2.730   4.575  25.026  0.00  0.00    +0.004 C 
ATOM      5  C   UNL     1      -3.429   4.136  25.024  0.00  0.00    +0.001 C 
ATOM      6  C   UNL     1      -3.399   3.312  24.989  0.00  0.00    +0.008 C 
ATOM      7  C   UNL     1      -4.128   3.698  25.023  0.00  0.00    +0.000 C 
ATOM      8  C   UNL     1      -4.098   2.873  24.987  0.00  0.00    +0.034 C 
ATOM      9  C   UNL     1      -4.068   2.050  24.952  0.00  0.00    +0.023 A 
ATOM     10  C   UNL     1      -3.340   1.665  24.918  0.00  0.00    +0.063 A 
ATOM     11  N   UNL     1      -3.482   0.852  24.887  0.00  0.00    -0.226 NA
ATOM     12  C   UNL     1      -4.298   0.736  24.902  0.00  0.00    +0.202 A 
ATOM     13  N   UNL     1      -4.685   0.008  24.881  0.00  0.00    -0.070 NA
ATOM     25  S   UNL     1      -4.660   1.476  24.942  0.00  0.00    -0.053 S 
ATOM     26  C   UNL     1      -2.641   2.103  24.920  0.00  0.00    +0.044 C 
ATOM     27  C   UNL     1      -1.912   1.717  24.886  0.00  0.00    +0.006 C 
ATOM     28  C   UNL     1      -2.670   2.926  24.955  0.00  0.00    +0.046 C 
ATOM     29  C   UNL     1      -1.971   3.365  24.957  0.00  0.00    +0.170 C 
ATOM     30  O   UNL     1      -1.178   3.139  24.928  0.00  0.00    -0.452 OA
ATOM     31  C   UNL     1      -0.718   3.823  24.946  0.00  0.00    +0.316 C 
ATOM     32  O   UNL     1       0.106   3.854  24.927  0.00  0.00    -0.250 OA
ENDROOT
BRANCH  13  14
ATOM     14  S   UNL     1      -4.247  -0.691  24.841  0.00  0.00    +0.096 S 
ATOM     15  O   UNL     1      -4.378  -0.819  25.645  0.00  0.00    -0.148 OA
ATOM     16  O   UNL     1      -4.116  -0.563  24.036  0.00  0.00    -0.148 OA
BRANCH  14  17
ATOM     17  C   UNL     1      -3.809  -1.389  24.801  0.00  0.00    +0.148 A 
ATOM     18  C   UNL     1      -3.808  -1.835  24.108  0.00  0.00    +0.077 A 
ATOM     19 CL   UNL     1      -4.244  -1.584  23.454  0.00  0.00    -0.081 Cl
ATOM     20  C   UNL     1      -3.370  -2.533  24.068  0.00  0.00    +0.013 A 
ATOM     21  C   UNL     1      -2.934  -2.785  24.721  0.00  0.00    +0.002 A 
ATOM     22  C   UNL     1      -2.936  -2.338  25.415  0.00  0.00    +0.013 A 
ATOM     23  C   UNL     1      -3.373  -1.641  25.454  0.00  0.00    +0.077 A 
ATOM     24 CL   UNL     1      -3.375  -1.193  26.149  0.00  0.00    -0.081 Cl
ENDBRANCH  14  17
ENDBRANCH  13  14
TORSDOF 2
ENDMDL
MODEL 2
REMARK VINA RESULT:     -14.9      2.200      5.579
REMARK  Name = 
REMARK  2 active torsions:
REMARK  status: ('A' for Active; 'I' for Inactive)
REMARK    1  A    between atoms: N_13  and  S_14
REMARK    2  A    between atoms: S_14  and  C_17
REMARK                            x       y       z     vdW  Elec       q    Type
REMARK                         _______ _______ _______ _____ _____    ______ ____
ROOT
ATOM      1  C   UNL     1      -3.918  -2.902  24.094  0.00  0.00    +0.012 C 
ATOM      2  C   UNL     1      -3.692  -2.117  24.214  0.00  0.00    +0.103 C 
ATOM      3  C   UNL     1      -2.950  -1.860  24.468  0.00  0.00    +0.051 C 
ATOM      4  C   UNL     1      -2.261  -2.270  24.663  0.00  0.00    +0.004 C 
ATOM      5  C   UNL     1      -1.589  -1.856  24.903  0.00  0.00    +0.001 C 
ATOM      6  C   UNL     1      -1.607  -1.031  24.948  0.00  0.00    +0.008 C 
ATOM      7  C   UNL     1      -0.917  -1.441  25.143  0.00  0.00    +0.000 C 
ATOM      8  C   UNL     1      -0.935  -0.617  25.188  0.00  0.00    +0.034 C 
ATOM      9  C   UNL     1      -0.952   0.206  25.233  0.00  0.00    +0.023 A 
ATOM     10  C   UNL     1      -1.641   0.616  25.038  0.00  0.00    +0.063 A 
ATOM     11  N   UNL     1      -1.495   1.422  25.135  0.00  0.00    -0.226 NA
ATOM     12  C   UNL     1      -0.715   1.511  25.389  0.00  0.00    +0.202 A 
ATOM     13  N   UNL     1      -0.337   2.225  25.554  0.00  0.00    -0.070 NA
ATOM     25  S   UNL     1      -0.380   0.759  25.450  0.00  0.00    -0.053 S 
ATOM     26  C   UNL     1      -2.313   0.201  24.798  0.00  0.00    +0.044 C 
ATOM     27  C   UNL     1      -3.002   0.611  24.603  0.00  0.00    +0.006 C 
ATOM     28  C   UNL     1      -2.295  -0.622  24.753  0.00  0.00    +0.046 C 
ATOM     29  C   UNL     1      -2.968  -1.037  24.513  0.00  0.00    +0.170 C 
ATOM     30  O   UNL     1      -3.720  -0.785  24.288  0.00  0.00    -0.452 OA
ATOM     31  C   UNL     1      -4.168  -1.452  24.103  0.00  0.00    +0.316 C 
ATOM     32  O   UNL     1      -4.953  -1.456  23.852  0.00  0.00    -0.250 OA
ENDROOT
BRANCH  13  14
ATOM     14  S   UNL     1      -0.745   2.937  25.468  0.00  0.00    +0.096 S 
ATOM     15  O   UNL     1      -0.756   3.031  26.287  0.00  0.00    -0.148 OA
ATOM     16  O   UNL     1      -0.735   2.844  24.648  0.00  0.00    -0.148 OA
BRANCH  14  17
ATOM     17  C   UNL     1      -1.153   3.649  25.381  0.00  0.00    +0.148 A 
ATOM     18  C   UNL     1      -0.902   4.203  24.824  0.00  0.00    +0.077 A 
ATOM     19 CL   UNL     1      -0.244   4.046  24.354  0.00  0.00    -0.081 Cl
ATOM     20  C   UNL     1      -1.310   4.915  24.738  0.00  0.00    +0.013 A 
ATOM     21  C   UNL     1      -1.969   5.073  25.208  0.00  0.00    +0.002 A 
ATOM     22  C   UNL     1      -2.220   4.518  25.766  0.00  0.00    +0.013 A 
ATOM     23  C   UNL     1      -1.812   3.807  25.852  0.00  0.00    +0.077 A 
ATOM     24 CL   UNL     1      -2.064   3.252  26.409  0.00  0.00    -0.081 Cl
ENDBRANCH  14  17
ENDBRANCH  13  14
TORSDOF 2
ENDMDL
MODEL 3
REMARK VINA RESULT:     -14.7      1.928      5.115
REMARK  Name = 
REMARK  2 active torsions:
REMARK  status: ('A' for Active; 'I' for Inactive)
REMARK    1  A    between atoms: N_13  and  S_14
REMARK    2  A    between atoms: S_14  and  C_17
REMARK                            x       y       z     vdW  Elec       q    Type
REMARK                         _______ _______ _______ _____ _____    ______ ____
ROOT
ATOM      1  C   UNL     1      -2.420  -3.367  24.516  0.00  0.00    +0.012 C 
ATOM      2  C   UNL     1      -2.347  -2.549  24.592  0.00  0.00    +0.103 C 
ATOM      3  C   UNL     1      -2.959  -1.999  24.525  0.00  0.00    +0.051 C 
ATOM      4  C   UNL     1      -3.765  -2.086  24.376  0.00  0.00    +0.004 C 
ATOM      5  C   UNL     1      -4.252  -1.421  24.340  0.00  0.00    +0.001 C 
ATOM      6  C   UNL     1      -3.932  -0.668  24.455  0.00  0.00    +0.008 C 
ATOM      7  C   UNL     1      -4.739  -0.756  24.305  0.00  0.00    +0.000 C 
ATOM      8  C   UNL     1      -4.419  -0.003  24.420  0.00  0.00    +0.034 C 
ATOM      9  C   UNL     1      -4.099   0.748  24.534  0.00  0.00    +0.023 A 
ATOM     10  C   UNL     1      -3.293   0.835  24.684  0.00  0.00    +0.063 A 
ATOM     11  N   UNL     1      -3.135   1.641  24.774  0.00  0.00    -0.226 NA
ATOM     12  C   UNL     1      -3.845   2.051  24.680  0.00  0.00    +0.202 A 
ATOM     13  N   UNL     1      -3.941   2.869  24.726  0.00  0.00    -0.070 NA
ATOM     25  S   UNL     1      -4.440   1.500  24.532  0.00  0.00    -0.053 S 
ATOM     26  C   UNL     1      -2.806   0.170  24.719  0.00  0.00    +0.044 C 
ATOM     27  C   UNL     1      -2.000   0.257  24.869  0.00  0.00    +0.006 C 
ATOM     28  C   UNL     1      -3.126  -0.581  24.605  0.00  0.00    +0.046 C 
ATOM     29  C   UNL     1      -2.638  -1.247  24.640  0.00  0.00    +0.170 C 
ATOM     30  O   UNL     1      -1.830  -1.332  24.777  0.00  0.00    -0.452 OA
ATOM     31  C   UNL     1      -1.649  -2.136  24.747  0.00  0.00    +0.316 C 
ATOM     32  O   UNL     1      -0.903  -2.470  24.854  0.00  0.00    -0.250 OA
ENDROOT
BRANCH  13  14
ATOM     14  S   UNL     1      -3.291   3.353  24.878  0.00  0.00    +0.096 S 
ATOM     15  O   UNL     1      -3.243   3.048  25.643  0.00  0.00    -0.148 OA
ATOM     16  O   UNL     1      -3.339   3.659  24.113  0.00  0.00    -0.148 OA
BRANCH  14  17
ATOM     17  C   UNL     1      -2.641   3.837  25.031  0.00  0.00    +0.148 A 
ATOM     18  C   UNL     1      -2.604   4.268  25.733  0.00  0.00    +0.077 A 
ATOM     19 CL   UNL     1      -3.216   4.216  26.283  0.00  0.00    -0.081 Cl
ATOM     20  C   UNL     1      -1.953   4.753  25.886  0.00  0.00    +0.013 A 
ATOM     21  C   UNL     1      -1.340   4.806  25.336  0.00  0.00    +0.002 A 
ATOM     22  C   UNL     1      -1.378   4.374  24.633  0.00  0.00    +0.013 A 
ATOM     23  C   UNL     1      -2.028   3.891  24.482  0.00  0.00    +0.077 A 
ATOM     24 CL   UNL     1      -2.065   3.459  23.778  0.00  0.00    -0.081 Cl
ENDBRANCH  14  17
ENDBRANCH  13  14
TORSDOF 2
ENDMDL
MODEL 4
REMARK VINA RESULT:     -13.8      1.626      2.410
REMARK  Name = 
REMARK  2 active torsions:
REMARK  status: ('A' for Active; 'I' for Inactive)
REMARK    1  A    between atoms: N_13  and  S_14
REMARK    2  A    between atoms: S_14  and  C_17
REMARK                            x       y       z     vdW  Elec       q    Type
REMARK                         _______ _______ _______ _____ _____    ______ ____
ROOT
ATOM      1  C   UNL     1      -2.014   5.365  25.050  0.00  0.00    +0.012 C 
ATOM      2  C   UNL     1      -2.166   4.556  24.996  0.00  0.00    +0.103 C 
ATOM      3  C   UNL     1      -1.651   3.951  25.222  0.00  0.00    +0.051 C 
ATOM      4  C   UNL     1      -0.892   3.963  25.543  0.00  0.00    +0.004 C 
ATOM      5  C   UNL     1      -0.506   3.254  25.716  0.00  0.00    +0.001 C 
ATOM      6  C   UNL     1      -0.880   2.533  25.566  0.00  0.00    +0.008 C 
ATOM      7  C   UNL     1      -0.120   2.546  25.888  0.00  0.00    +0.000 C 
ATOM      8  C   UNL     1      -0.494   1.825  25.739  0.00  0.00    +0.034 C 
ATOM      9  C   UNL     1      -0.867   1.105  25.590  0.00  0.00    +0.023 A 
ATOM     10  C   UNL     1      -1.627   1.093  25.268  0.00  0.00    +0.063 A 
ATOM     11  N   UNL     1      -1.855   0.304  25.182  0.00  0.00    -0.226 NA
ATOM     12  C   UNL     1      -1.236  -0.171  25.450  0.00  0.00    +0.202 A 
ATOM     13  N   UNL     1      -1.229  -0.995  25.464  0.00  0.00    -0.070 NA
ATOM     25  S   UNL     1      -0.626   0.324  25.702  0.00  0.00    -0.053 S 
ATOM     26  C   UNL     1      -2.013   1.801  25.096  0.00  0.00    +0.044 C 
ATOM     27  C   UNL     1      -2.772   1.789  24.774  0.00  0.00    +0.006 C 
ATOM     28  C   UNL     1      -1.639   2.521  25.245  0.00  0.00    +0.046 C 
ATOM     29  C   UNL     1      -2.026   3.230  25.072  0.00  0.00    +0.170 C 
ATOM     30  O   UNL     1      -2.770   3.390  24.755  0.00  0.00    -0.452 OA
ATOM     31  C   UNL     1      -2.857   4.209  24.708  0.00  0.00    +0.316 C 
ATOM     32  O   UNL     1      -3.517   4.611  24.422  0.00  0.00    -0.250 OA
ENDROOT
BRANCH  13  14
ATOM     14  S   UNL     1      -1.883  -1.418  25.192  0.00  0.00    +0.096 S 
ATOM     15  O   UNL     1      -2.083  -1.608  25.969  0.00  0.00    -0.148 OA
ATOM     16  O   UNL     1      -1.683  -1.228  24.414  0.00  0.00    -0.148 OA
BRANCH  14  17
ATOM     17  C   UNL     1      -2.537  -1.841  24.920  0.00  0.00    +0.148 A 
ATOM     18  C   UNL     1      -3.270  -1.747  25.287  0.00  0.00    +0.077 A 
ATOM     19 CL   UNL     1      -3.349  -1.231  25.925  0.00  0.00    -0.081 Cl
ATOM     20  C   UNL     1      -3.924  -2.170  25.015  0.00  0.00    +0.013 A 
ATOM     21  C   UNL     1      -3.846  -2.687  24.376  0.00  0.00    +0.002 A 
ATOM     22  C   UNL     1      -3.112  -2.780  24.009  0.00  0.00    +0.013 A 
ATOM     23  C   UNL     1      -2.459  -2.358  24.281  0.00  0.00    +0.077 A 
ATOM     24 CL   UNL     1      -1.725  -2.451  23.914  0.00  0.00    -0.081 Cl
ENDBRANCH  14  17
ENDBRANCH  13  14
TORSDOF 2
ENDMDL
MODEL 5
REMARK VINA RESULT:     -12.0      2.164      3.032
REMARK  Name = 
REMARK  2 active torsions:
REMARK  status: ('A' for Active; 'I' for Inactive)
REMARK    1  A    between atoms: N_13  and  S_14
REMARK    2  A    between atoms: S_14  and  C_17
REMARK                            x       y       z     vdW  Elec       q    Type
REMARK                         _______ _______ _______ _____ _____    ______ ____
ROOT
ATOM      1  C   UNL     1      -5.654   4.471  25.541  0.00  0.00    +0.012 C 
ATOM      2  C   UNL     1      -5.191   3.797  25.435  0.00  0.00    +0.103 C 
ATOM      3  C   UNL     1      -4.366   3.768  25.459  0.00  0.00    +0.051 C 
ATOM      4  C   UNL     1      -3.796   4.350  25.585  0.00  0.00    +0.004 C 
ATOM      5  C   UNL     1      -2.995   4.152  25.577  0.00  0.00    +0.001 C 
ATOM      6  C   UNL     1      -2.765   3.371  25.443  0.00  0.00    +0.008 C 
ATOM      7  C   UNL     1      -2.194   3.954  25.569  0.00  0.00    +0.000 C 
ATOM      8  C   UNL     1      -1.964   3.173  25.436  0.00  0.00    +0.034 C 
ATOM      9  C   UNL     1      -1.733   2.392  25.302  0.00  0.00    +0.023 A 
ATOM     10  C   UNL     1      -2.303   1.809  25.177  0.00  0.00    +0.063 A 
ATOM     11  N   UNL     1      -1.913   1.091  25.060  0.00  0.00    -0.226 NA
ATOM     12  C   UNL     1      -1.102   1.231  25.114  0.00  0.00    +0.202 A 
ATOM     13  N   UNL     1      -0.506   0.666  25.033  0.00  0.00    -0.070 NA
ATOM     25  S   UNL     1      -0.991   2.035  25.264  0.00  0.00    -0.053 S 
ATOM     26  C   UNL     1      -3.104   2.007  25.184  0.00  0.00    +0.044 C 
ATOM     27  C   UNL     1      -3.674   1.425  25.059  0.00  0.00    +0.006 C 
ATOM     28  C   UNL     1      -3.334   2.788  25.318  0.00  0.00    +0.046 C 
ATOM     29  C   UNL     1      -4.136   2.986  25.325  0.00  0.00    +0.170 C 
ATOM     30  O   UNL     1      -4.817   2.534  25.219  0.00  0.00    -0.452 OA
ATOM     31  C   UNL     1      -5.469   3.035  25.287  0.00  0.00    +0.316 C 
ATOM     32  O   UNL     1      -6.260   2.813  25.219  0.00  0.00    -0.250 OA
ENDROOT
BRANCH  13  14
ATOM     14  S   UNL     1      -0.702  -0.121  24.883  0.00  0.00    +0.096 S 
ATOM     15  O   UNL     1      -0.898   0.075  24.106  0.00  0.00    -0.148 OA
ATOM     16  O   UNL     1      -0.507  -0.318  25.660  0.00  0.00    -0.148 OA
BRANCH  14  17
ATOM     17  C   UNL     1      -0.899  -0.909  24.733  0.00  0.00    +0.148 A 
ATOM     18  C   UNL     1      -0.698  -1.253  24.011  0.00  0.00    +0.077 A 
ATOM     19 CL   UNL     1      -0.303  -0.811  23.439  0.00  0.00    -0.081 Cl
ATOM     20  C   UNL     1      -0.895  -2.040  23.861  0.00  0.00    +0.013 A 
ATOM     21  C   UNL     1      -1.291  -2.483  24.434  0.00  0.00    +0.002 A 
ATOM     22  C   UNL     1      -1.491  -2.138  25.157  0.00  0.00    +0.013 A 
ATOM     23  C   UNL     1      -1.295  -1.352  25.306  0.00  0.00    +0.077 A 
ATOM     24 CL   UNL     1      -1.495  -1.006  26.029  0.00  0.00    -0.081 Cl
ENDBRANCH  14  17
ENDBRANCH  13  14
TORSDOF 2
ENDMDL
