MODEL 1
REMARK VINA RESULT:     -14.7      0.000      0.000
REMARK  Name = 
REMARK  4 active torsions:
REMARK  status: ('A' for Active; 'I' for Inactive)
REMARK    1  A    between atoms: O_2  and  C_3
REMARK    2  A    between atoms: C_6  and  C_9
REMARK    3  A    between atoms: N_17  and  S_19
REMARK    4  A    between atoms: S_19  and  C_22
REMARK                            x       y       z     vdW  Elec       q    Type
REMARK                         _______ _______ _______ _____ _____    ______ ____
ROOT
ATOM      9  C   UNL     1      -4.462   0.837  24.987  0.00  0.00    +0.056 A 
ATOM     10  C   UNL     1      -5.240   0.914  25.252  0.00  0.00    +0.006 A 
ATOM     11  C   UNL     1      -5.551   1.662  25.407  0.00  0.00    +0.013 A 
ATOM     12  C   UNL     1      -5.085   2.333  25.297  0.00  0.00    +0.041 A 
ATOM     13  C   UNL     1      -5.123   3.248  25.372  0.00  0.00    +0.056 C 
ATOM     14  C   UNL     1      -5.558   3.768  25.553  0.00  0.00    +0.011 C 
ATOM     15  C   UNL     1      -4.790   3.689  25.291  0.00  0.00    +0.041 C 
ATOM     16  C   UNL     1      -3.857   3.798  24.987  0.00  0.00    +0.098 C 
ATOM     17  N   UNL     1      -3.654   2.997  24.865  0.00  0.00    -0.155 NA
ATOM     18  C   UNL     1      -4.222   3.371  25.080  0.00  0.00    +0.102 C 
ATOM     28  C   UNL     1      -4.742   2.734  25.210  0.00  0.00    +0.110 C 
ATOM     29  N   UNL     1      -4.307   2.256  25.032  0.00  0.00    -0.299 N 
ATOM     30  C   UNL     1      -3.996   1.508  24.877  0.00  0.00    +0.261 A 
ATOM     31  O   UNL     1      -3.218   1.432  24.612  0.00  0.00    -0.267 OA
ENDROOT
BRANCH   9   6
ATOM      3  C   UNL     1      -3.531  -1.408  24.522  0.00  0.00    +0.139 A 
ATOM      4  C   UNL     1      -3.460  -1.081  25.276  0.00  0.00    +0.037 A 
ATOM      5  C   UNL     1      -3.771  -0.332  25.431  0.00  0.00    +0.003 A 
ATOM      6  C   UNL     1      -4.151   0.089  24.833  0.00  0.00    +0.005 A 
ATOM      7  C   UNL     1      -4.221  -0.238  24.078  0.00  0.00    +0.003 A 
ATOM      8  C   UNL     1      -3.911  -0.987  23.923  0.00  0.00    +0.037 A 
BRANCH   3   2
ATOM      1  C   UNL     1      -3.580  -2.826  24.685  0.00  0.00    +0.252 C 
ATOM      2  O   UNL     1      -3.220  -2.157  24.366  0.00  0.00    -0.471 OA
ENDBRANCH   3   2
ENDBRANCH   9   6
BRANCH  17  19
ATOM     19  S   UNL     1      -3.195   2.341  24.667  0.00  0.00    +0.063 S 
ATOM     20  O   UNL     1      -2.927   2.293  25.446  0.00  0.00    -0.153 OA
ATOM     21  O   UNL     1      -3.462   2.389  23.887  0.00  0.00    -0.153 OA
BRANCH  19  22
ATOM     22  C   UNL     1      -2.735   1.685  24.468  0.00  0.00    +0.122 A 
ATOM     23  C   UNL     1      -2.732   1.402  23.694  0.00  0.00    +0.020 A 
ATOM     24  C   UNL     1      -2.273   0.746  23.496  0.00  0.00    +0.001 A 
ATOM     25  C   UNL     1      -1.816   0.374  24.073  0.00  0.00    +0.000 A 
ATOM     26  C   UNL     1      -1.818   0.656  24.847  0.00  0.00    +0.001 A 
ATOM     27  C   UNL     1      -2.278   1.313  25.045  0.00  0.00    +0.020 A 
ENDBRANCH  19  22
ENDBRANCH  17  19
TORSDOF 4
ENDMDL
MODEL 2
REMARK VINA RESULT:     -14.3      1.668      4.013
REMARK  Name = 
REMARK  4 active torsions:
REMARK  status: ('A' for Active; 'I' for Inactive)
REMARK    1  A    between atoms: O_2  and  C_3
REMARK    2  A    between atoms: C_6  and  C_9
REMARK    3  A    between atoms: N_17  and  S_19
REMARK    4  A    between atoms: S_19  and  C_22
REMARK                            x       y       z     vdW  Elec       q    Type
REMARK                         _______ _______ _______ _____ _____    ______ ____
ROOT
ATOM      9  C   UNL     1      -3.478   0.177  24.296  0.00  0.00    +0.056 A 
ATOM     10  C   UNL     1      -4.202  -0.186  24.139  0.00  0.00    +0.006 A 
ATOM     11  C   UNL     1      -4.268  -1.008  24.176  0.00  0.00    +0.013 A 
ATOM     12  C   UNL     1      -3.611  -1.466  24.370  0.00  0.00    +0.041 A 
ATOM     13  C   UNL     1      -3.362  -2.342  24.490  0.00  0.00    +0.056 C 
ATOM     14  C   UNL     1      -3.618  -2.995  24.469  0.00  0.00    +0.011 C 
ATOM     15  C   UNL     1      -2.905  -2.633  24.623  0.00  0.00    +0.041 C 
ATOM     16  C   UNL     1      -1.973  -2.387  24.840  0.00  0.00    +0.098 C 
ATOM     17  N   UNL     1      -2.028  -1.556  24.771  0.00  0.00    -0.155 NA
ATOM     18  C   UNL     1      -2.457  -2.120  24.701  0.00  0.00    +0.102 C 
ATOM     28  C   UNL     1      -3.156  -1.715  24.500  0.00  0.00    +0.110 C 
ATOM     29  N   UNL     1      -2.887  -1.102  24.527  0.00  0.00    -0.299 N 
ATOM     30  C   UNL     1      -2.820  -0.281  24.490  0.00  0.00    +0.261 A 
ATOM     31  O   UNL     1      -2.096   0.082  24.647  0.00  0.00    -0.267 OA
ENDROOT
BRANCH   9   6
ATOM      3  C   UNL     1      -3.283   2.641  24.185  0.00  0.00    +0.139 A 
ATOM      4  C   UNL     1      -3.136   2.186  23.513  0.00  0.00    +0.037 A 
ATOM      5  C   UNL     1      -3.201   1.364  23.550  0.00  0.00    +0.003 A 
ATOM      6  C   UNL     1      -3.413   0.998  24.258  0.00  0.00    +0.005 A 
ATOM      7  C   UNL     1      -3.559   1.454  24.930  0.00  0.00    +0.003 A 
ATOM      8  C   UNL     1      -3.494   2.276  24.894  0.00  0.00    +0.037 A 
BRANCH   3   2
ATOM      1  C   UNL     1      -3.826   3.938  24.437  0.00  0.00    +0.252 C 
ATOM      2  O   UNL     1      -3.217   3.464  24.148  0.00  0.00    -0.471 OA
ENDBRANCH   3   2
ENDBRANCH   9   6
BRANCH  17  19
ATOM     19  S   UNL     1      -1.790  -0.766  24.779  0.00  0.00    +0.063 S 
ATOM     20  O   UNL     1      -1.583  -0.820  23.982  0.00  0.00    -0.153 OA
ATOM     21  O   UNL     1      -1.998  -0.711  25.576  0.00  0.00    -0.153 OA
BRANCH  19  22
ATOM     22  C   UNL     1      -1.553   0.025  24.787  0.00  0.00    +0.122 A 
ATOM     23  C   UNL     1      -1.603   0.464  25.483  0.00  0.00    +0.020 A 
ATOM     24  C   UNL     1      -1.365   1.254  25.491  0.00  0.00    +0.001 A 
ATOM     25  C   UNL     1      -1.078   1.604  24.802  0.00  0.00    +0.000 A 
ATOM     26  C   UNL     1      -1.028   1.165  24.105  0.00  0.00    +0.001 A 
ATOM     27  C   UNL     1      -1.266   0.375  24.098  0.00  0.00    +0.020 A 
ENDBRANCH  19  22
ENDBRANCH  17  19
TORSDOF 4
ENDMDL
MODEL 3
REMARK VINA RESULT:     -14.2      1.400      2.564
REMARK  Name = 
REMARK  4 active torsions:
REMARK  status: ('A' for Active; 'I' for Inactive)
REMARK    1  A    between atoms: O_2  and  C_3
REMARK    2  A    between atoms: C_6  and  C_9
REMARK    3  A    between atoms: N_17  and  S_19
REMARK    4  A    between atoms: S_19  and  C_22
REMARK                            x       y       z     vdW  Elec       q    Type
REMARK                         _______ _______ _______ _____ _____    ______ ____
ROOT
ATOM      9  C   UNL     1      -2.502   1.732  24.763  0.00  0.00    +0.056 A 
ATOM     10  C   UNL     1      -1.683   1.630  24.753  0.00  0.00    +0.006 A 
ATOM     11  C   UNL     1      -1.184   2.277  24.866  0.00  0.00    +0.013 A 
ATOM     12  C   UNL     1      -1.504   3.027  24.991  0.00  0.00    +0.041 A 
ATOM     13  C   UNL     1      -1.247   3.896  25.140  0.00  0.00    +0.056 C 
ATOM     14  C   UNL     1      -0.675   4.297  25.212  0.00  0.00    +0.011 C 
ATOM     15  C   UNL     1      -1.484   4.395  25.222  0.00  0.00    +0.041 C 
ATOM     16  C   UNL     1      -2.419   4.711  25.268  0.00  0.00    +0.098 C 
ATOM     17  N   UNL     1      -2.818   3.988  25.143  0.00  0.00    -0.155 NA
ATOM     18  C   UNL     1      -2.145   4.218  25.187  0.00  0.00    +0.102 C 
ATOM     28  C   UNL     1      -1.762   3.489  25.067  0.00  0.00    +0.110 C 
ATOM     29  N   UNL     1      -2.323   3.129  25.001  0.00  0.00    -0.299 N 
ATOM     30  C   UNL     1      -2.822   2.482  24.888  0.00  0.00    +0.261 A 
ATOM     31  O   UNL     1      -3.640   2.585  24.898  0.00  0.00    -0.267 OA
ENDROOT
BRANCH   9   6
ATOM      3  C   UNL     1      -3.995  -0.210  24.420  0.00  0.00    +0.139 A 
ATOM      4  C   UNL     1      -3.758  -0.003  25.183  0.00  0.00    +0.037 A 
ATOM      5  C   UNL     1      -3.260   0.646  25.297  0.00  0.00    +0.003 A 
ATOM      6  C   UNL     1      -2.999   1.085  24.650  0.00  0.00    +0.005 A 
ATOM      7  C   UNL     1      -3.237   0.876  23.887  0.00  0.00    +0.003 A 
ATOM      8  C   UNL     1      -3.735   0.229  23.773  0.00  0.00    +0.037 A 
BRANCH   3   2
ATOM      1  C   UNL     1      -4.193  -1.559  23.993  0.00  0.00    +0.252 C 
ATOM      2  O   UNL     1      -4.494  -0.859  24.306  0.00  0.00    -0.471 OA
ENDBRANCH   3   2
ENDBRANCH   9   6
BRANCH  17  19
ATOM     19  S   UNL     1      -3.448   3.463  25.049  0.00  0.00    +0.063 S 
ATOM     20  O   UNL     1      -3.458   3.330  25.863  0.00  0.00    -0.153 OA
ATOM     21  O   UNL     1      -3.437   3.596  24.234  0.00  0.00    -0.153 OA
BRANCH  19  22
ATOM     22  C   UNL     1      -4.077   2.937  24.954  0.00  0.00    +0.122 A 
ATOM     23  C   UNL     1      -4.372   2.778  24.201  0.00  0.00    +0.020 A 
ATOM     24  C   UNL     1      -5.001   2.253  24.107  0.00  0.00    +0.001 A 
ATOM     25  C   UNL     1      -5.335   1.887  24.767  0.00  0.00    +0.000 A 
ATOM     26  C   UNL     1      -5.040   2.047  25.520  0.00  0.00    +0.001 A 
ATOM     27  C   UNL     1      -4.411   2.572  25.614  0.00  0.00    +0.020 A 
ENDBRANCH  19  22
ENDBRANCH  17  19
TORSDOF 4
ENDMDL
MODEL 4
REMARK VINA RESULT:     -14.1      1.741      2.901
REMARK  Name = 
REMARK  4 active torsions:
REMARK  status: ('A' for Active; 'I' for Inactive)
REMARK    1  A    between atoms: O_2  and  C_3
REMARK    2  A    between atoms: C_6  and  C_9
REMARK    3  A    between atoms: N_17  and  S_19
REMARK    4  A    between atoms: S_19  and  C_22
REMARK                            x       y       z     vdW  Elec       q    Type
REMARK                         _______ _______ _______ _____ _____    ______ ____
ROOT
ATOM      9  C   UNL     1      -3.041   1.891  24.738  0.00  0.00    +0.056 A 
ATOM     10  C   UNL     1      -3.405   1.176  24.548  0.00  0.00    +0.006 A 
ATOM     11  C   UNL     1      -4.222   1.094  24.626  0.00  0.00    +0.013 A 
ATOM     12  C   UNL     1      -4.675   1.729  24.895  0.00  0.00    +0.041 A 
ATOM     13  C   UNL     1      -5.546   1.955  25.082  0.00  0.00    +0.056 C 
ATOM     14  C   UNL     1      -6.196   1.691  25.078  0.00  0.00    +0.011 C 
ATOM     15  C   UNL     1      -5.834   2.396  25.265  0.00  0.00    +0.041 C 
ATOM     16  C   UNL     1      -5.586   3.313  25.537  0.00  0.00    +0.098 C 
ATOM     17  N   UNL     1      -4.760   3.276  25.418  0.00  0.00    -0.155 NA
ATOM     18  C   UNL     1      -5.322   2.845  25.348  0.00  0.00    +0.102 C 
ATOM     28  C   UNL     1      -4.921   2.169  25.072  0.00  0.00    +0.110 C 
ATOM     29  N   UNL     1      -4.312   2.445  25.085  0.00  0.00    -0.299 N 
ATOM     30  C   UNL     1      -3.494   2.526  25.007  0.00  0.00    +0.261 A 
ATOM     31  O   UNL     1      -3.131   3.242  25.197  0.00  0.00    -0.267 OA
ENDROOT
BRANCH   9   6
ATOM      3  C   UNL     1      -0.590   2.133  24.500  0.00  0.00    +0.139 A 
ATOM      4  C   UNL     1      -0.911   1.872  25.214  0.00  0.00    +0.037 A 
ATOM      5  C   UNL     1      -1.729   1.792  25.294  0.00  0.00    +0.003 A 
ATOM      6  C   UNL     1      -2.224   1.972  24.659  0.00  0.00    +0.005 A 
ATOM      7  C   UNL     1      -1.903   2.233  23.946  0.00  0.00    +0.003 A 
ATOM      8  C   UNL     1      -1.085   2.313  23.866  0.00  0.00    +0.037 A 
BRANCH   3   2
ATOM      1  C   UNL     1       0.675   1.592  24.118  0.00  0.00    +0.252 C 
ATOM      2  O   UNL     1       0.228   2.214  24.421  0.00  0.00    -0.471 OA
ENDBRANCH   3   2
ENDBRANCH   9   6
BRANCH  17  19
ATOM     19  S   UNL     1      -3.973   3.524  25.399  0.00  0.00    +0.063 S 
ATOM     20  O   UNL     1      -4.070   3.771  24.617  0.00  0.00    -0.153 OA
ATOM     21  O   UNL     1      -3.876   3.277  26.181  0.00  0.00    -0.153 OA
BRANCH  19  22
ATOM     22  C   UNL     1      -3.186   3.772  25.380  0.00  0.00    +0.122 A 
ATOM     23  C   UNL     1      -2.880   4.119  24.697  0.00  0.00    +0.020 A 
ATOM     24  C   UNL     1      -2.093   4.367  24.678  0.00  0.00    +0.001 A 
ATOM     25  C   UNL     1      -1.614   4.269  25.342  0.00  0.00    +0.000 A 
ATOM     26  C   UNL     1      -1.920   3.922  26.024  0.00  0.00    +0.001 A 
ATOM     27  C   UNL     1      -2.707   3.674  26.044  0.00  0.00    +0.020 A 
ENDBRANCH  19  22
ENDBRANCH  17  19
TORSDOF 4
ENDMDL
MODEL 5
REMARK VINA RESULT:     -14.0      1.459      3.940
REMARK  Name = 
REMARK  4 active torsions:
REMARK  status: ('A' for Active; 'I' for Inactive)
REMARK    1  A    between atoms: O_2  and  C_3
REMARK    2  A    between atoms: C_6  and  C_9
REMARK    3  A    between atoms: N_17  and  S_19
REMARK    4  A    between atoms: S_19  and  C_22
REMARK                            x       y       z     vdW  Elec       q    Type
REMARK                         _______ _______ _______ _____ _____    ______ ____
ROOT
ATOM      9  C   UNL     1      -2.128   1.385  25.084  0.00  0.00    +0.056 A 
ATOM     10  C   UNL     1      -1.562   0.850  25.355  0.00  0.00    +0.006 A 
ATOM     11  C   UNL     1      -1.727   0.042  25.359  0.00  0.00    +0.013 A 
ATOM     12  C   UNL     1      -2.459  -0.231  25.093  0.00  0.00    +0.041 A 
ATOM     13  C   UNL     1      -2.930  -1.011  24.974  0.00  0.00    +0.056 C 
ATOM     14  C   UNL     1      -2.873  -1.706  25.056  0.00  0.00    +0.011 C 
ATOM     15  C   UNL     1      -3.430  -1.174  24.789  0.00  0.00    +0.041 C 
ATOM     16  C   UNL     1      -4.220  -0.698  24.435  0.00  0.00    +0.098 C 
ATOM     17  N   UNL     1      -3.940   0.088  24.478  0.00  0.00    -0.155 NA
ATOM     18  C   UNL     1      -3.701  -0.565  24.629  0.00  0.00    +0.102 C 
ATOM     28  C   UNL     1      -2.946  -0.354  24.910  0.00  0.00    +0.110 C 
ATOM     29  N   UNL     1      -3.025   0.305  24.822  0.00  0.00    -0.299 N 
ATOM     30  C   UNL     1      -2.860   1.113  24.818  0.00  0.00    +0.261 A 
ATOM     31  O   UNL     1      -3.426   1.649  24.547  0.00  0.00    -0.267 OA
ENDROOT
BRANCH   9   6
ATOM      3  C   UNL     1      -1.629   3.809  25.070  0.00  0.00    +0.139 A 
ATOM      4  C   UNL     1      -1.983   3.465  25.731  0.00  0.00    +0.037 A 
ATOM      5  C   UNL     1      -2.150   2.657  25.736  0.00  0.00    +0.003 A 
ATOM      6  C   UNL     1      -1.962   2.193  25.080  0.00  0.00    +0.005 A 
ATOM      7  C   UNL     1      -1.608   2.538  24.419  0.00  0.00    +0.003 A 
ATOM      8  C   UNL     1      -1.442   3.346  24.414  0.00  0.00    +0.037 A 
BRANCH   3   2
ATOM      1  C   UNL     1      -0.706   4.881  24.872  0.00  0.00    +0.252 C 
ATOM      2  O   UNL     1      -1.463   4.618  25.066  0.00  0.00    -0.471 OA
ENDBRANCH   3   2
ENDBRANCH   9   6
BRANCH  17  19
ATOM     19  S   UNL     1      -3.941   0.910  24.406  0.00  0.00    +0.063 S 
ATOM     20  O   UNL     1      -4.259   0.976  25.165  0.00  0.00    -0.153 OA
ATOM     21  O   UNL     1      -3.623   0.845  23.647  0.00  0.00    -0.153 OA
BRANCH  19  22
ATOM     22  C   UNL     1      -3.942   1.733  24.335  0.00  0.00    +0.122 A 
ATOM     23  C   UNL     1      -3.673   2.086  23.640  0.00  0.00    +0.020 A 
ATOM     24  C   UNL     1      -3.674   2.909  23.569  0.00  0.00    +0.001 A 
ATOM     25  C   UNL     1      -3.944   3.376  24.192  0.00  0.00    +0.000 A 
ATOM     26  C   UNL     1      -4.213   3.022  24.887  0.00  0.00    +0.001 A 
ATOM     27  C   UNL     1      -4.212   2.200  24.958  0.00  0.00    +0.020 A 
ENDBRANCH  19  22
ENDBRANCH  17  19
TORSDOF 4
ENDMDL
MODEL 6
REMARK VINA RESULT:     -14.0      1.074      2.218
REMARK  Name = 
REMARK  4 active torsions:
REMARK  status: ('A' for Active; 'I' for Inactive)
REMARK    1  A    between atoms: O_2  and  C_3
REMARK    2  A    between atoms: C_6  and  C_9
REMARK    3  A    between atoms: N_17  and  S_19
REMARK    4  A    between atoms: S_19  and  C_22
REMARK                            x       y       z     vdW  Elec       q    Type
REMARK                         _______ _______ _______ _____ _____    ______ ____
ROOT
ATOM      9  C   UNL     1      -2.856   1.491  24.898  0.00  0.00    +0.056 A 
ATOM     10  C   UNL     1      -2.650   2.286  24.983  0.00  0.00    +0.006 A 
ATOM     11  C   UNL     1      -3.236   2.854  25.097  0.00  0.00    +0.013 A 
ATOM     12  C   UNL     1      -4.029   2.629  25.127  0.00  0.00    +0.041 A 
ATOM     13  C   UNL     1      -4.869   2.986  25.233  0.00  0.00    +0.056 C 
ATOM     14  C   UNL     1      -5.198   3.598  25.334  0.00  0.00    +0.011 C 
ATOM     15  C   UNL     1      -5.398   2.813  25.249  0.00  0.00    +0.041 C 
ATOM     16  C   UNL     1      -5.834   1.929  25.170  0.00  0.00    +0.098 C 
ATOM     17  N   UNL     1      -5.159   1.450  25.061  0.00  0.00    -0.155 NA
ATOM     18  C   UNL     1      -5.305   2.140  25.158  0.00  0.00    +0.102 C 
ATOM     28  C   UNL     1      -4.525   2.430  25.138  0.00  0.00    +0.110 C 
ATOM     29  N   UNL     1      -4.235   1.835  25.042  0.00  0.00    -0.299 N 
ATOM     30  C   UNL     1      -3.649   1.266  24.928  0.00  0.00    +0.261 A 
ATOM     31  O   UNL     1      -3.855   0.471  24.843  0.00  0.00    -0.267 OA
ENDROOT
BRANCH   9   6
ATOM      3  C   UNL     1      -1.095  -0.213  24.554  0.00  0.00    +0.139 A 
ATOM      4  C   UNL     1      -1.341  -0.023  25.318  0.00  0.00    +0.037 A 
ATOM      5  C   UNL     1      -1.928   0.546  25.433  0.00  0.00    +0.003 A 
ATOM      6  C   UNL     1      -2.269   0.923  24.784  0.00  0.00    +0.005 A 
ATOM      7  C   UNL     1      -2.023   0.733  24.020  0.00  0.00    +0.003 A 
ATOM      8  C   UNL     1      -1.436   0.165  23.905  0.00  0.00    +0.037 A 
BRANCH   3   2
ATOM      1  C   UNL     1       0.140  -0.613  23.959  0.00  0.00    +0.252 C 
ATOM      2  O   UNL     1      -0.508  -0.782  24.439  0.00  0.00    -0.471 OA
ENDBRANCH   3   2
ENDBRANCH   9   6
BRANCH  17  19
ATOM     19  S   UNL     1      -4.712   0.766  24.942  0.00  0.00    +0.063 S 
ATOM     20  O   UNL     1      -4.746   0.885  24.126  0.00  0.00    -0.153 OA
ATOM     21  O   UNL     1      -4.677   0.647  25.758  0.00  0.00    -0.153 OA
BRANCH  19  22
ATOM     22  C   UNL     1      -4.264   0.083  24.824  0.00  0.00    +0.122 A 
ATOM     23  C   UNL     1      -4.094  -0.171  24.058  0.00  0.00    +0.020 A 
ATOM     24  C   UNL     1      -3.647  -0.854  23.939  0.00  0.00    +0.001 A 
ATOM     25  C   UNL     1      -3.369  -1.282  24.587  0.00  0.00    +0.000 A 
ATOM     26  C   UNL     1      -3.539  -1.028  25.353  0.00  0.00    +0.001 A 
ATOM     27  C   UNL     1      -3.986  -0.345  25.471  0.00  0.00    +0.020 A 
ENDBRANCH  19  22
ENDBRANCH  17  19
TORSDOF 4
ENDMDL
