MODEL 1
REMARK VINA RESULT:     -10.7      0.000      0.000
REMARK  Name = 
REMARK  9 active torsions:
REMARK  status: ('A' for Active; 'I' for Inactive)
REMARK    1  A    between atoms: O_2  and  C_3
REMARK    2  A    between atoms: C_3  and  C_4
REMARK    3  A    between atoms: N_6  and  C_7
REMARK    4  A    between atoms: C_7  and  C_8
REMARK    5  A    between atoms: C_12  and  C_13
REMARK    6  A    between atoms: C_13  and  C_14
REMARK    7  A    between atoms: N_16  and  C_17
REMARK    8  A    between atoms: C_17  and  C_18
REMARK    9  A    between atoms: C_26  and  C_27
REMARK                            x       y       z     vdW  Elec       q    Type
REMARK                         _______ _______ _______ _____ _____    ______ ____
ROOT
ATOM      8  C   UNL     1      -4.059   0.718  24.205  0.00  0.00    +0.043 C 
ATOM      9  C   UNL     1      -4.719   0.830  24.687  0.00  0.00    -0.033 C 
ATOM     10  C   UNL     1      -4.893   1.582  24.980  0.00  0.00    -0.048 C 
ATOM     11  C   UNL     1      -5.553   1.693  25.462  0.00  0.00    +0.026 C 
ATOM     12  C   UNL     1      -4.405   2.220  24.793  0.00  0.00    +0.027 C 
ATOM     25  C   UNL     1      -3.745   2.107  24.311  0.00  0.00    +0.005 C 
ATOM     26  C   UNL     1      -3.571   1.357  24.018  0.00  0.00    +0.006 C 
ENDROOT
BRANCH  26  27
ATOM     27  C   UNL     1      -2.911   1.243  23.536  0.00  0.00    +0.000 C 
ATOM     28  C   UNL     1      -2.203   0.974  23.862  0.00  0.00    +0.000 C 
ATOM     29  C   UNL     1      -2.959   1.400  22.728  0.00  0.00    +0.000 C 
ENDBRANCH  26  27
BRANCH   8   7
ATOM      7  C   UNL     1      -3.885  -0.034  23.912  0.00  0.00    +0.119 C 
BRANCH   7   6
ATOM      4  C   UNL     1      -4.017  -1.446  24.091  0.00  0.00    +0.272 C 
ATOM      5  O   UNL     1      -4.070  -1.544  23.274  0.00  0.00    -0.271 OA
ATOM      6  N   UNL     1      -3.924  -0.690  24.410  0.00  0.00    -0.203 NA
BRANCH   4   3
ATOM      3  C   UNL     1      -4.055  -2.102  24.589  0.00  0.00    +0.229 C 
BRANCH   3   2
ATOM      1  C   UNL     1      -3.346  -3.287  24.955  0.00  0.00    +0.175 C 
ATOM      2  O   UNL     1      -3.681  -2.805  24.375  0.00  0.00    -0.342 OA
ENDBRANCH   3   2
ENDBRANCH   4   3
ENDBRANCH   7   6
ENDBRANCH   8   7
BRANCH  12  13
ATOM     13  C   UNL     1      -4.579   2.971  25.086  0.00  0.00    +0.091 C 
BRANCH  13  14
ATOM     14  C   UNL     1      -4.052   3.346  25.598  0.00  0.00    +0.242 C 
ATOM     15  O   UNL     1      -4.127   3.246  26.414  0.00  0.00    -0.273 OA
ATOM     16  N   UNL     1      -3.450   3.822  25.296  0.00  0.00    -0.201 NA
BRANCH  16  17
ATOM     17  C   UNL     1      -2.924   4.197  25.808  0.00  0.00    +0.141 C 
BRANCH  17  18
ATOM     18  C   UNL     1      -2.214   4.503  25.519  0.00  0.00    -0.000 A 
ATOM     19  C   UNL     1      -1.530   4.041  25.527  0.00  0.00    -0.000 A 
ATOM     20  C   UNL     1      -0.821   4.347  25.238  0.00  0.00    +0.029 A 
ATOM     21  C   UNL     1      -0.795   5.117  24.942  0.00  0.00    +0.140 A 
ATOM     22  F   UNL     1      -0.086   5.424  24.654  0.00  0.00    -0.204 F 
ATOM     23  C   UNL     1      -1.477   5.580  24.934  0.00  0.00    +0.029 A 
ATOM     24  C   UNL     1      -2.187   5.273  25.223  0.00  0.00    -0.000 A 
ENDBRANCH  17  18
ENDBRANCH  16  17
ENDBRANCH  13  14
ENDBRANCH  12  13
TORSDOF 9
ENDMDL
MODEL 2
REMARK VINA RESULT:     -10.2      3.201      5.312
REMARK  Name = 
REMARK  9 active torsions:
REMARK  status: ('A' for Active; 'I' for Inactive)
REMARK    1  A    between atoms: O_2  and  C_3
REMARK    2  A    between atoms: C_3  and  C_4
REMARK    3  A    between atoms: N_6  and  C_7
REMARK    4  A    between atoms: C_7  and  C_8
REMARK    5  A    between atoms: C_12  and  C_13
REMARK    6  A    between atoms: C_13  and  C_14
REMARK    7  A    between atoms: N_16  and  C_17
REMARK    8  A    between atoms: C_17  and  C_18
REMARK    9  A    between atoms: C_26  and  C_27
REMARK                            x       y       z     vdW  Elec       q    Type
REMARK                         _______ _______ _______ _____ _____    ______ ____
ROOT
ATOM      8  C   UNL     1      -0.829   1.559  24.127  0.00  0.00    +0.043 C 
ATOM      9  C   UNL     1      -1.215   1.590  23.399  0.00  0.00    -0.033 C 
ATOM     10  C   UNL     1      -2.039   1.632  23.370  0.00  0.00    -0.048 C 
ATOM     11  C   UNL     1      -2.424   1.663  22.642  0.00  0.00    +0.026 C 
ATOM     12  C   UNL     1      -2.476   1.644  24.070  0.00  0.00    +0.027 C 
ATOM     25  C   UNL     1      -2.089   1.613  24.798  0.00  0.00    +0.005 C 
ATOM     26  C   UNL     1      -1.266   1.571  24.827  0.00  0.00    +0.006 C 
ENDROOT
BRANCH  26  27
ATOM     27  C   UNL     1      -0.879   1.540  25.555  0.00  0.00    +0.000 C 
ATOM     28  C   UNL     1      -0.735   0.813  25.916  0.00  0.00    +0.000 C 
ATOM     29  C   UNL     1      -0.636   2.238  25.922  0.00  0.00    +0.000 C 
ENDBRANCH  26  27
BRANCH   8   7
ATOM      7  C   UNL     1      -0.005   1.517  24.156  0.00  0.00    +0.119 C 
BRANCH   7   6
ATOM      4  C   UNL     1       1.204   1.078  23.533  0.00  0.00    +0.272 C 
ATOM      5  O   UNL     1       1.608   1.711  23.872  0.00  0.00    -0.271 OA
ATOM      6  N   UNL     1       0.397   0.980  23.675  0.00  0.00    -0.203 NA
BRANCH   4   3
ATOM      3  C   UNL     1       1.606   0.542  23.052  0.00  0.00    +0.229 C 
BRANCH   3   2
ATOM      1  C   UNL     1       2.809   0.119  22.408  0.00  0.00    +0.175 C 
ATOM      2  O   UNL     1       2.413   0.641  22.908  0.00  0.00    -0.342 OA
ENDBRANCH   3   2
ENDBRANCH   4   3
ENDBRANCH   7   6
ENDBRANCH   8   7
BRANCH  12  13
ATOM     13  C   UNL     1      -3.299   1.687  24.041  0.00  0.00    +0.091 C 
BRANCH  13  14
ATOM     14  C   UNL     1      -3.756   1.148  24.467  0.00  0.00    +0.242 C 
ATOM     15  O   UNL     1      -4.190   1.402  25.120  0.00  0.00    -0.273 OA
ATOM     16  N   UNL     1      -3.778   0.355  24.241  0.00  0.00    -0.201 NA
BRANCH  16  17
ATOM     17  C   UNL     1      -4.235  -0.183  24.667  0.00  0.00    +0.141 C 
BRANCH  17  18
ATOM     18  C   UNL     1      -4.095  -0.993  24.594  0.00  0.00    -0.000 A 
ATOM     19  C   UNL     1      -4.342  -1.396  23.918  0.00  0.00    -0.000 A 
ATOM     20  C   UNL     1      -4.202  -2.205  23.845  0.00  0.00    +0.029 A 
ATOM     21  C   UNL     1      -3.814  -2.612  24.450  0.00  0.00    +0.140 A 
ATOM     22  F   UNL     1      -3.674  -3.422  24.378  0.00  0.00    -0.204 F 
ATOM     23  C   UNL     1      -3.567  -2.210  25.126  0.00  0.00    +0.029 A 
ATOM     24  C   UNL     1      -3.708  -1.399  25.198  0.00  0.00    -0.000 A 
ENDBRANCH  17  18
ENDBRANCH  16  17
ENDBRANCH  13  14
ENDBRANCH  12  13
TORSDOF 9
ENDMDL
MODEL 3
REMARK VINA RESULT:     -10.1      2.872      4.349
REMARK  Name = 
REMARK  9 active torsions:
REMARK  status: ('A' for Active; 'I' for Inactive)
REMARK    1  A    between atoms: O_2  and  C_3
REMARK    2  A    between atoms: C_3  and  C_4
REMARK    3  A    between atoms: N_6  and  C_7
REMARK    4  A    between atoms: C_7  and  C_8
REMARK    5  A    between atoms: C_12  and  C_13
REMARK    6  A    between atoms: C_13  and  C_14
REMARK    7  A    between atoms: N_16  and  C_17
REMARK    8  A    between atoms: C_17  and  C_18
REMARK    9  A    between atoms: C_26  and  C_27
REMARK                            x       y       z     vdW  Elec       q    Type
REMARK                         _______ _______ _______ _____ _____    ______ ____
ROOT
ATOM      8  C   UNL     1      -0.663   1.237  24.469  0.00  0.00    +0.043 C 
ATOM      9  C   UNL     1      -0.348   1.996  24.398  0.00  0.00    -0.033 C 
ATOM     10  C   UNL     1      -0.749   2.641  24.721  0.00  0.00    -0.048 C 
ATOM     11  C   UNL     1      -0.434   3.400  24.649  0.00  0.00    +0.026 C 
ATOM     12  C   UNL     1      -1.466   2.527  25.114  0.00  0.00    +0.027 C 
ATOM     25  C   UNL     1      -1.780   1.767  25.184  0.00  0.00    +0.005 C 
ATOM     26  C   UNL     1      -1.380   1.123  24.862  0.00  0.00    +0.006 C 
ENDROOT
BRANCH  26  27
ATOM     27  C   UNL     1      -1.694   0.363  24.933  0.00  0.00    +0.000 C 
ATOM     28  C   UNL     1      -2.205   0.072  24.354  0.00  0.00    +0.000 C 
ATOM     29  C   UNL     1      -1.498  -0.105  25.583  0.00  0.00    +0.000 C 
ENDBRANCH  26  27
BRANCH   8   7
ATOM      7  C   UNL     1      -0.262   0.592  24.146  0.00  0.00    +0.119 C 
BRANCH   7   6
ATOM      4  C   UNL     1       0.777   0.076  23.311  0.00  0.00    +0.272 C 
ATOM      5  O   UNL     1       0.636  -0.681  23.604  0.00  0.00    -0.271 OA
ATOM      6  N   UNL     1       0.328   0.714  23.583  0.00  0.00    -0.203 NA
BRANCH   4   3
ATOM      3  C   UNL     1       1.366   0.198  22.748  0.00  0.00    +0.229 C 
BRANCH   3   2
ATOM      1  C   UNL     1       2.746   0.096  22.390  0.00  0.00    +0.175 C 
ATOM      2  O   UNL     1       2.103  -0.164  22.837  0.00  0.00    -0.342 OA
ENDBRANCH   3   2
ENDBRANCH   4   3
ENDBRANCH   7   6
ENDBRANCH   8   7
BRANCH  12  13
ATOM     13  C   UNL     1      -1.866   3.171  25.436  0.00  0.00    +0.091 C 
BRANCH  13  14
ATOM     14  C   UNL     1      -2.580   3.421  25.105  0.00  0.00    +0.242 C 
ATOM     15  O   UNL     1      -2.577   3.929  24.455  0.00  0.00    -0.273 OA
ATOM     16  N   UNL     1      -3.295   3.165  25.424  0.00  0.00    -0.201 NA
BRANCH  16  17
ATOM     17  C   UNL     1      -4.008   3.415  25.093  0.00  0.00    +0.141 C 
BRANCH  17  18
ATOM     18  C   UNL     1      -4.696   2.975  25.213  0.00  0.00    -0.000 A 
ATOM     19  C   UNL     1      -4.973   2.471  24.621  0.00  0.00    -0.000 A 
ATOM     20  C   UNL     1      -5.661   2.033  24.741  0.00  0.00    +0.029 A 
ATOM     21  C   UNL     1      -6.072   2.097  25.454  0.00  0.00    +0.140 A 
ATOM     22  F   UNL     1      -6.760   1.659  25.574  0.00  0.00    -0.204 F 
ATOM     23  C   UNL     1      -5.796   2.601  26.046  0.00  0.00    +0.029 A 
ATOM     24  C   UNL     1      -5.107   3.040  25.925  0.00  0.00    -0.000 A 
ENDBRANCH  17  18
ENDBRANCH  16  17
ENDBRANCH  13  14
ENDBRANCH  12  13
TORSDOF 9
ENDMDL
MODEL 4
REMARK VINA RESULT:      -9.9      2.348      5.641
REMARK  Name = 
REMARK  9 active torsions:
REMARK  status: ('A' for Active; 'I' for Inactive)
REMARK    1  A    between atoms: O_2  and  C_3
REMARK    2  A    between atoms: C_3  and  C_4
REMARK    3  A    between atoms: N_6  and  C_7
REMARK    4  A    between atoms: C_7  and  C_8
REMARK    5  A    between atoms: C_12  and  C_13
REMARK    6  A    between atoms: C_13  and  C_14
REMARK    7  A    between atoms: N_16  and  C_17
REMARK    8  A    between atoms: C_17  and  C_18
REMARK    9  A    between atoms: C_26  and  C_27
REMARK                            x       y       z     vdW  Elec       q    Type
REMARK                         _______ _______ _______ _____ _____    ______ ____
ROOT
ATOM      8  C   UNL     1      -2.129   2.476  24.642  0.00  0.00    +0.043 C 
ATOM      9  C   UNL     1      -2.848   2.871  24.550  0.00  0.00    -0.033 C 
ATOM     10  C   UNL     1      -3.538   2.443  24.401  0.00  0.00    -0.048 C 
ATOM     11  C   UNL     1      -4.256   2.839  24.310  0.00  0.00    +0.026 C 
ATOM     12  C   UNL     1      -3.509   1.621  24.345  0.00  0.00    +0.027 C 
ATOM     25  C   UNL     1      -2.790   1.226  24.437  0.00  0.00    +0.005 C 
ATOM     26  C   UNL     1      -2.101   1.654  24.585  0.00  0.00    +0.006 C 
ENDROOT
BRANCH  26  27
ATOM     27  C   UNL     1      -1.382   1.259  24.677  0.00  0.00    +0.000 C 
ATOM     28  C   UNL     1      -0.912   1.098  24.019  0.00  0.00    +0.000 C 
ATOM     29  C   UNL     1      -1.133   1.027  25.429  0.00  0.00    +0.000 C 
ENDBRANCH  26  27
BRANCH   8   7
ATOM      7  C   UNL     1      -1.439   2.904  24.791  0.00  0.00    +0.119 C 
BRANCH   7   6
ATOM      4  C   UNL     1      -0.848   4.192  24.973  0.00  0.00    +0.272 C 
ATOM      5  O   UNL     1      -0.328   3.875  25.528  0.00  0.00    -0.271 OA
ATOM      6  N   UNL     1      -1.405   3.707  24.604  0.00  0.00    -0.203 NA
BRANCH   4   3
ATOM      3  C   UNL     1      -0.813   4.995  24.786  0.00  0.00    +0.229 C 
BRANCH   3   2
ATOM      1  C   UNL     1      -1.527   6.229  24.883  0.00  0.00    +0.175 C 
ATOM      2  O   UNL     1      -1.238   5.542  25.236  0.00  0.00    -0.342 OA
ENDBRANCH   3   2
ENDBRANCH   4   3
ENDBRANCH   7   6
ENDBRANCH   8   7
BRANCH  12  13
ATOM     13  C   UNL     1      -4.198   1.193  24.196  0.00  0.00    +0.091 C 
BRANCH  13  14
ATOM     14  C   UNL     1      -4.379   0.530  24.652  0.00  0.00    +0.242 C 
ATOM     15  O   UNL     1      -4.715   0.623  25.400  0.00  0.00    -0.273 OA
ATOM     16  N   UNL     1      -4.225  -0.226  24.361  0.00  0.00    -0.201 NA
BRANCH  16  17
ATOM     17  C   UNL     1      -4.406  -0.888  24.816  0.00  0.00    +0.141 C 
BRANCH  17  18
ATOM     18  C   UNL     1      -4.084  -1.623  24.623  0.00  0.00    -0.000 A 
ATOM     19  C   UNL     1      -4.295  -1.994  23.917  0.00  0.00    -0.000 A 
ATOM     20  C   UNL     1      -3.973  -2.729  23.724  0.00  0.00    +0.029 A 
ATOM     21  C   UNL     1      -3.441  -3.093  24.238  0.00  0.00    +0.140 A 
ATOM     22  F   UNL     1      -3.118  -3.828  24.047  0.00  0.00    -0.204 F 
ATOM     23  C   UNL     1      -3.230  -2.723  24.945  0.00  0.00    +0.029 A 
ATOM     24  C   UNL     1      -3.552  -1.988  25.137  0.00  0.00    -0.000 A 
ENDBRANCH  17  18
ENDBRANCH  16  17
ENDBRANCH  13  14
ENDBRANCH  12  13
TORSDOF 9
ENDMDL
MODEL 5
REMARK VINA RESULT:      -9.9      2.951      4.574
REMARK  Name = 
REMARK  9 active torsions:
REMARK  status: ('A' for Active; 'I' for Inactive)
REMARK    1  A    between atoms: O_2  and  C_3
REMARK    2  A    between atoms: C_3  and  C_4
REMARK    3  A    between atoms: N_6  and  C_7
REMARK    4  A    between atoms: C_7  and  C_8
REMARK    5  A    between atoms: C_12  and  C_13
REMARK    6  A    between atoms: C_13  and  C_14
REMARK    7  A    between atoms: N_16  and  C_17
REMARK    8  A    between atoms: C_17  and  C_18
REMARK    9  A    between atoms: C_26  and  C_27
REMARK                            x       y       z     vdW  Elec       q    Type
REMARK                         _______ _______ _______ _____ _____    ______ ____
ROOT
ATOM      8  C   UNL     1      -0.667   0.570  24.284  0.00  0.00    +0.043 C 
ATOM      9  C   UNL     1      -0.834  -0.238  24.305  0.00  0.00    -0.033 C 
ATOM     10  C   UNL     1      -1.573  -0.499  24.562  0.00  0.00    -0.048 C 
ATOM     11  C   UNL     1      -1.740  -1.307  24.583  0.00  0.00    +0.026 C 
ATOM     12  C   UNL     1      -2.145   0.046  24.798  0.00  0.00    +0.027 C 
ATOM     25  C   UNL     1      -1.977   0.854  24.777  0.00  0.00    +0.005 C 
ATOM     26  C   UNL     1      -1.239   1.116  24.520  0.00  0.00    +0.006 C 
ENDROOT
BRANCH  26  27
ATOM     27  C   UNL     1      -1.071   1.923  24.499  0.00  0.00    +0.000 C 
ATOM     28  C   UNL     1      -1.219   2.358  23.814  0.00  0.00    +0.000 C 
ATOM     29  C   UNL     1      -0.755   2.296  25.164  0.00  0.00    +0.000 C 
ENDBRANCH  26  27
BRANCH   8   7
ATOM      7  C   UNL     1       0.072   0.832  24.027  0.00  0.00    +0.119 C 
BRANCH   7   6
ATOM      4  C   UNL     1       1.301   0.570  23.345  0.00  0.00    +0.272 C 
ATOM      5  O   UNL     1       1.633   1.244  23.685  0.00  0.00    -0.271 OA
ATOM      6  N   UNL     1       0.520   0.363  23.516  0.00  0.00    -0.203 NA
BRANCH   4   3
ATOM      3  C   UNL     1       1.749   0.102  22.835  0.00  0.00    +0.229 C 
BRANCH   3   2
ATOM      1  C   UNL     1       2.913  -0.008  22.014  0.00  0.00    +0.175 C 
ATOM      2  O   UNL     1       2.537   0.296  22.682  0.00  0.00    -0.342 OA
ENDBRANCH   3   2
ENDBRANCH   4   3
ENDBRANCH   7   6
ENDBRANCH   8   7
BRANCH  12  13
ATOM     13  C   UNL     1      -2.883  -0.215  25.055  0.00  0.00    +0.091 C 
BRANCH  13  14
ATOM     14  C   UNL     1      -3.571   0.085  24.711  0.00  0.00    +0.242 C 
ATOM     15  O   UNL     1      -3.818  -0.193  23.975  0.00  0.00    -0.273 OA
ATOM     16  N   UNL     1      -4.011   0.662  25.103  0.00  0.00    -0.201 NA
BRANCH  16  17
ATOM     17  C   UNL     1      -4.698   0.961  24.759  0.00  0.00    +0.141 C 
BRANCH  17  18
ATOM     18  C   UNL     1      -5.015   1.675  25.023  0.00  0.00    -0.000 A 
ATOM     19  C   UNL     1      -5.543   1.684  25.658  0.00  0.00    -0.000 A 
ATOM     20  C   UNL     1      -5.859   2.398  25.922  0.00  0.00    +0.029 A 
ATOM     21  C   UNL     1      -5.648   3.105  25.551  0.00  0.00    +0.140 A 
ATOM     22  F   UNL     1      -5.965   3.819  25.815  0.00  0.00    -0.204 F 
ATOM     23  C   UNL     1      -5.121   3.097  24.917  0.00  0.00    +0.029 A 
ATOM     24  C   UNL     1      -4.804   2.382  24.653  0.00  0.00    -0.000 A 
ENDBRANCH  17  18
ENDBRANCH  16  17
ENDBRANCH  13  14
ENDBRANCH  12  13
TORSDOF 9
ENDMDL
MODEL 6
REMARK VINA RESULT:      -9.6      2.741      4.855
REMARK  Name = 
REMARK  9 active torsions:
REMARK  status: ('A' for Active; 'I' for Inactive)
REMARK    1  A    between atoms: O_2  and  C_3
REMARK    2  A    between atoms: C_3  and  C_4
REMARK    3  A    between atoms: N_6  and  C_7
REMARK    4  A    between atoms: C_7  and  C_8
REMARK    5  A    between atoms: C_12  and  C_13
REMARK    6  A    between atoms: C_13  and  C_14
REMARK    7  A    between atoms: N_16  and  C_17
REMARK    8  A    between atoms: C_17  and  C_18
REMARK    9  A    between atoms: C_26  and  C_27
REMARK                            x       y       z     vdW  Elec       q    Type
REMARK                         _______ _______ _______ _____ _____    ______ ____
ROOT
ATOM      8  C   UNL     1      -3.176   3.220  24.674  0.00  0.00    +0.043 C 
ATOM      9  C   UNL     1      -3.319   2.736  24.022  0.00  0.00    -0.033 C 
ATOM     10  C   UNL     1      -2.686   2.398  23.612  0.00  0.00    -0.048 C 
ATOM     11  C   UNL     1      -2.830   1.914  22.960  0.00  0.00    +0.026 C 
ATOM     12  C   UNL     1      -1.912   2.546  23.854  0.00  0.00    +0.027 C 
ATOM     25  C   UNL     1      -1.770   3.031  24.507  0.00  0.00    +0.005 C 
ATOM     26  C   UNL     1      -2.401   3.368  24.916  0.00  0.00    +0.006 C 
ENDROOT
BRANCH  26  27
ATOM     27  C   UNL     1      -2.259   3.853  25.569  0.00  0.00    +0.000 C 
ATOM     28  C   UNL     1      -2.232   3.528  26.326  0.00  0.00    +0.000 C 
ATOM     29  C   UNL     1      -2.143   4.662  25.463  0.00  0.00    +0.000 C 
ENDBRANCH  26  27
BRANCH   8   7
ATOM      7  C   UNL     1      -3.808   3.557  25.084  0.00  0.00    +0.119 C 
BRANCH   7   6
ATOM      4  C   UNL     1      -5.183   3.477  25.466  0.00  0.00    +0.272 C 
ATOM      5  O   UNL     1      -5.218   4.299  25.510  0.00  0.00    -0.271 OA
ATOM      6  N   UNL     1      -4.477   3.105  25.252  0.00  0.00    -0.203 NA
BRANCH   4   3
ATOM      3  C   UNL     1      -5.852   3.025  25.634  0.00  0.00    +0.229 C 
BRANCH   3   2
ATOM      1  C   UNL     1      -6.434   2.017  26.462  0.00  0.00    +0.175 C 
ATOM      2  O   UNL     1      -5.929   2.662  26.372  0.00  0.00    -0.342 OA
ENDBRANCH   3   2
ENDBRANCH   4   3
ENDBRANCH   7   6
ENDBRANCH   8   7
BRANCH  12  13
ATOM     13  C   UNL     1      -1.281   2.209  23.445  0.00  0.00    +0.091 C 
BRANCH  13  14
ATOM     14  C   UNL     1      -0.724   1.751  23.846  0.00  0.00    +0.242 C 
ATOM     15  O   UNL     1      -0.016   2.091  24.099  0.00  0.00    -0.273 OA
ATOM     16  N   UNL     1      -0.876   0.955  23.996  0.00  0.00    -0.201 NA
BRANCH  16  17
ATOM     17  C   UNL     1      -0.320   0.497  24.397  0.00  0.00    +0.141 C 
BRANCH  17  18
ATOM     18  C   UNL     1      -0.507  -0.273  24.628  0.00  0.00    -0.000 A 
ATOM     19  C   UNL     1      -0.846  -0.412  25.367  0.00  0.00    -0.000 A 
ATOM     20  C   UNL     1      -1.033  -1.181  25.597  0.00  0.00    +0.029 A 
ATOM     21  C   UNL     1      -0.881  -1.812  25.088  0.00  0.00    +0.140 A 
ATOM     22  F   UNL     1      -1.067  -2.582  25.318  0.00  0.00    -0.204 F 
ATOM     23  C   UNL     1      -0.542  -1.674  24.349  0.00  0.00    +0.029 A 
ATOM     24  C   UNL     1      -0.355  -0.904  24.119  0.00  0.00    -0.000 A 
ENDBRANCH  17  18
ENDBRANCH  16  17
ENDBRANCH  13  14
ENDBRANCH  12  13
TORSDOF 9
ENDMDL
MODEL 7
REMARK VINA RESULT:      -9.5      2.655      5.408
REMARK  Name = 
REMARK  9 active torsions:
REMARK  status: ('A' for Active; 'I' for Inactive)
REMARK    1  A    between atoms: O_2  and  C_3
REMARK    2  A    between atoms: C_3  and  C_4
REMARK    3  A    between atoms: N_6  and  C_7
REMARK    4  A    between atoms: C_7  and  C_8
REMARK    5  A    between atoms: C_12  and  C_13
REMARK    6  A    between atoms: C_13  and  C_14
REMARK    7  A    between atoms: N_16  and  C_17
REMARK    8  A    between atoms: C_17  and  C_18
REMARK    9  A    between atoms: C_26  and  C_27
REMARK                            x       y       z     vdW  Elec       q    Type
REMARK                         _______ _______ _______ _____ _____    ______ ____
ROOT
ATOM      8  C   UNL     1      -2.251   2.295  24.368  0.00  0.00    +0.043 C 
ATOM      9  C   UNL     1      -1.805   2.327  25.062  0.00  0.00    -0.033 C 
ATOM     10  C   UNL     1      -1.195   1.784  25.185  0.00  0.00    -0.048 C 
ATOM     11  C   UNL     1      -0.750   1.816  25.879  0.00  0.00    +0.026 C 
ATOM     12  C   UNL     1      -1.031   1.211  24.615  0.00  0.00    +0.027 C 
ATOM     25  C   UNL     1      -1.477   1.181  23.921  0.00  0.00    +0.005 C 
ATOM     26  C   UNL     1      -2.086   1.722  23.798  0.00  0.00    +0.006 C 
ENDROOT
BRANCH  26  27
ATOM     27  C   UNL     1      -2.533   1.692  23.104  0.00  0.00    +0.000 C 
ATOM     28  C   UNL     1      -2.296   2.121  22.442  0.00  0.00    +0.000 C 
ATOM     29  C   UNL     1      -3.216   1.231  23.074  0.00  0.00    +0.000 C 
ENDBRANCH  26  27
BRANCH   8   7
ATOM      7  C   UNL     1      -2.861   2.838  24.245  0.00  0.00    +0.119 C 
BRANCH   7   6
ATOM      4  C   UNL     1      -3.881   3.663  24.810  0.00  0.00    +0.272 C 
ATOM      5  O   UNL     1      -3.816   4.181  24.172  0.00  0.00    -0.271 OA
ATOM      6  N   UNL     1      -3.403   2.991  24.847  0.00  0.00    -0.203 NA
BRANCH   4   3
ATOM      3  C   UNL     1      -4.424   3.816  25.412  0.00  0.00    +0.229 C 
BRANCH   3   2
ATOM      1  C   UNL     1      -5.767   3.565  25.829  0.00  0.00    +0.175 C 
ATOM      2  O   UNL     1      -5.234   3.807  25.249  0.00  0.00    -0.342 OA
ENDBRANCH   3   2
ENDBRANCH   4   3
ENDBRANCH   7   6
ENDBRANCH   8   7
BRANCH  12  13
ATOM     13  C   UNL     1      -0.422   0.670  24.738  0.00  0.00    +0.091 C 
BRANCH  13  14
ATOM     14  C   UNL     1      -0.504  -0.110  24.481  0.00  0.00    +0.242 C 
ATOM     15  O   UNL     1      -0.099  -0.367  23.810  0.00  0.00    -0.273 OA
ATOM     16  N   UNL     1      -0.990  -0.632  24.894  0.00  0.00    -0.201 NA
BRANCH  16  17
ATOM     17  C   UNL     1      -1.071  -1.411  24.637  0.00  0.00    +0.141 C 
BRANCH  17  18
ATOM     18  C   UNL     1      -1.781  -1.814  24.758  0.00  0.00    -0.000 A 
ATOM     19  C   UNL     1      -2.229  -1.670  25.436  0.00  0.00    -0.000 A 
ATOM     20  C   UNL     1      -2.938  -2.073  25.556  0.00  0.00    +0.029 A 
ATOM     21  C   UNL     1      -3.201  -2.621  24.998  0.00  0.00    +0.140 A 
ATOM     22  F   UNL     1      -3.910  -3.024  25.117  0.00  0.00    -0.204 F 
ATOM     23  C   UNL     1      -2.754  -2.766  24.320  0.00  0.00    +0.029 A 
ATOM     24  C   UNL     1      -2.044  -2.362  24.200  0.00  0.00    -0.000 A 
ENDBRANCH  17  18
ENDBRANCH  16  17
ENDBRANCH  13  14
ENDBRANCH  12  13
TORSDOF 9
ENDMDL
MODEL 8
REMARK VINA RESULT:      -9.5      1.446      2.349
REMARK  Name = 
REMARK  9 active torsions:
REMARK  status: ('A' for Active; 'I' for Inactive)
REMARK    1  A    between atoms: O_2  and  C_3
REMARK    2  A    between atoms: C_3  and  C_4
REMARK    3  A    between atoms: N_6  and  C_7
REMARK    4  A    between atoms: C_7  and  C_8
REMARK    5  A    between atoms: C_12  and  C_13
REMARK    6  A    between atoms: C_13  and  C_14
REMARK    7  A    between atoms: N_16  and  C_17
REMARK    8  A    between atoms: C_17  and  C_18
REMARK    9  A    between atoms: C_26  and  C_27
REMARK                            x       y       z     vdW  Elec       q    Type
REMARK                         _______ _______ _______ _____ _____    ______ ____
ROOT
ATOM      8  C   UNL     1      -2.695  -0.037  24.381  0.00  0.00    +0.043 C 
ATOM      9  C   UNL     1      -2.004  -0.459  24.534  0.00  0.00    -0.033 C 
ATOM     10  C   UNL     1      -1.301  -0.055  24.692  0.00  0.00    -0.048 C 
ATOM     11  C   UNL     1      -0.609  -0.478  24.845  0.00  0.00    +0.026 C 
ATOM     12  C   UNL     1      -1.291   0.770  24.696  0.00  0.00    +0.027 C 
ATOM     25  C   UNL     1      -1.984   1.191  24.542  0.00  0.00    +0.005 C 
ATOM     26  C   UNL     1      -2.685   0.788  24.385  0.00  0.00    +0.006 C 
ENDROOT
BRANCH  26  27
ATOM     27  C   UNL     1      -3.378   1.209  24.231  0.00  0.00    +0.000 C 
ATOM     28  C   UNL     1      -3.917   1.353  24.839  0.00  0.00    +0.000 C 
ATOM     29  C   UNL     1      -3.532   1.486  23.470  0.00  0.00    +0.000 C 
ENDBRANCH  26  27
BRANCH   8   7
ATOM      7  C   UNL     1      -3.398  -0.441  24.223  0.00  0.00    +0.119 C 
BRANCH   7   6
ATOM      4  C   UNL     1      -4.076  -1.677  23.991  0.00  0.00    +0.272 C 
ATOM      5  O   UNL     1      -4.795  -1.317  24.173  0.00  0.00    -0.271 OA
ATOM      6  N   UNL     1      -3.377  -1.239  24.016  0.00  0.00    -0.203 NA
BRANCH   4   3
ATOM      3  C   UNL     1      -4.055  -2.475  23.784  0.00  0.00    +0.229 C 
BRANCH   3   2
ATOM      1  C   UNL     1      -3.679  -3.783  24.222  0.00  0.00    +0.175 C 
ATOM      2  O   UNL     1      -4.034  -3.053  24.374  0.00  0.00    -0.342 OA
ENDBRANCH   3   2
ENDBRANCH   4   3
ENDBRANCH   7   6
ENDBRANCH   8   7
BRANCH  12  13
ATOM     13  C   UNL     1      -0.589   1.172  24.853  0.00  0.00    +0.091 C 
BRANCH  13  14
ATOM     14  C   UNL     1      -0.584   1.800  25.389  0.00  0.00    +0.242 C 
ATOM     15  O   UNL     1      -0.536   1.649  26.199  0.00  0.00    -0.273 OA
ATOM     16  N   UNL     1      -0.626   2.576  25.116  0.00  0.00    -0.201 NA
BRANCH  16  17
ATOM     17  C   UNL     1      -0.621   3.203  25.652  0.00  0.00    +0.141 C 
BRANCH  17  18
ATOM     18  C   UNL     1      -0.895   3.946  25.422  0.00  0.00    -0.000 A 
ATOM     19  C   UNL     1      -0.430   4.428  24.940  0.00  0.00    -0.000 A 
ATOM     20  C   UNL     1      -0.705   5.171  24.710  0.00  0.00    +0.029 A 
ATOM     21  C   UNL     1      -1.445   5.432  24.962  0.00  0.00    +0.140 A 
ATOM     22  F   UNL     1      -1.721   6.175  24.732  0.00  0.00    -0.204 F 
ATOM     23  C   UNL     1      -1.911   4.952  25.443  0.00  0.00    +0.029 A 
ATOM     24  C   UNL     1      -1.636   4.208  25.674  0.00  0.00    -0.000 A 
ENDBRANCH  17  18
ENDBRANCH  16  17
ENDBRANCH  13  14
ENDBRANCH  12  13
TORSDOF 9
ENDMDL
MODEL 9
REMARK VINA RESULT:      -9.5      2.086      5.547
REMARK  Name = 
REMARK  9 active torsions:
REMARK  status: ('A' for Active; 'I' for Inactive)
REMARK    1  A    between atoms: O_2  and  C_3
REMARK    2  A    between atoms: C_3  and  C_4
REMARK    3  A    between atoms: N_6  and  C_7
REMARK    4  A    between atoms: C_7  and  C_8
REMARK    5  A    between atoms: C_12  and  C_13
REMARK    6  A    between atoms: C_13  and  C_14
REMARK    7  A    between atoms: N_16  and  C_17
REMARK    8  A    between atoms: C_17  and  C_18
REMARK    9  A    between atoms: C_26  and  C_27
REMARK                            x       y       z     vdW  Elec       q    Type
REMARK                         _______ _______ _______ _____ _____    ______ ____
ROOT
ATOM      8  C   UNL     1      -3.597   3.173  24.824  0.00  0.00    +0.043 C 
ATOM      9  C   UNL     1      -3.148   2.799  24.242  0.00  0.00    -0.033 C 
ATOM     10  C   UNL     1      -3.416   2.096  23.903  0.00  0.00    -0.048 C 
ATOM     11  C   UNL     1      -2.966   1.722  23.321  0.00  0.00    +0.026 C 
ATOM     12  C   UNL     1      -4.133   1.767  24.145  0.00  0.00    +0.027 C 
ATOM     25  C   UNL     1      -4.582   2.142  24.728  0.00  0.00    +0.005 C 
ATOM     26  C   UNL     1      -4.314   2.844  25.067  0.00  0.00    +0.006 C 
ENDROOT
BRANCH  26  27
ATOM     27  C   UNL     1      -4.763   3.219  25.649  0.00  0.00    +0.000 C 
ATOM     28  C   UNL     1      -4.625   3.057  26.445  0.00  0.00    +0.000 C 
ATOM     29  C   UNL     1      -5.351   3.757  25.433  0.00  0.00    +0.000 C 
ENDBRANCH  26  27
BRANCH   8   7
ATOM      7  C   UNL     1      -3.330   3.876  25.164  0.00  0.00    +0.119 C 
BRANCH   7   6
ATOM      4  C   UNL     1      -2.216   4.762  25.298  0.00  0.00    +0.272 C 
ATOM      5  O   UNL     1      -2.377   4.841  26.102  0.00  0.00    -0.271 OA
ATOM      6  N   UNL     1      -2.693   4.279  24.828  0.00  0.00    -0.203 NA
BRANCH   4   3
ATOM      3  C   UNL     1      -1.580   5.165  24.962  0.00  0.00    +0.229 C 
BRANCH   3   2
ATOM      1  C   UNL     1      -0.209   5.045  24.578  0.00  0.00    +0.175 C 
ATOM      2  O   UNL     1      -0.807   4.931  25.134  0.00  0.00    -0.342 OA
ENDBRANCH   3   2
ENDBRANCH   4   3
ENDBRANCH   7   6
ENDBRANCH   8   7
BRANCH  12  13
ATOM     13  C   UNL     1      -4.400   1.065  23.806  0.00  0.00    +0.091 C 
BRANCH  13  14
ATOM     14  C   UNL     1      -4.514   0.396  24.276  0.00  0.00    +0.242 C 
ATOM     15  O   UNL     1      -5.176   0.346  24.767  0.00  0.00    -0.273 OA
ATOM     16  N   UNL     1      -3.969  -0.221  24.256  0.00  0.00    -0.201 NA
BRANCH  16  17
ATOM     17  C   UNL     1      -4.084  -0.889  24.725  0.00  0.00    +0.141 C 
BRANCH  17  18
ATOM     18  C   UNL     1      -3.541  -1.510  24.700  0.00  0.00    -0.000 A 
ATOM     19  C   UNL     1      -3.733  -2.211  24.307  0.00  0.00    -0.000 A 
ATOM     20  C   UNL     1      -3.191  -2.831  24.282  0.00  0.00    +0.029 A 
ATOM     21  C   UNL     1      -2.456  -2.752  24.650  0.00  0.00    +0.140 A 
ATOM     22  F   UNL     1      -1.913  -3.373  24.625  0.00  0.00    -0.204 F 
ATOM     23  C   UNL     1      -2.264  -2.053  25.043  0.00  0.00    +0.029 A 
ATOM     24  C   UNL     1      -2.807  -1.432  25.068  0.00  0.00    -0.000 A 
ENDBRANCH  17  18
ENDBRANCH  16  17
ENDBRANCH  13  14
ENDBRANCH  12  13
TORSDOF 9
ENDMDL
MODEL 10
REMARK VINA RESULT:      -9.4      1.226      2.008
REMARK  Name = 
REMARK  9 active torsions:
REMARK  status: ('A' for Active; 'I' for Inactive)
REMARK    1  A    between atoms: O_2  and  C_3
REMARK    2  A    between atoms: C_3  and  C_4
REMARK    3  A    between atoms: N_6  and  C_7
REMARK    4  A    between atoms: C_7  and  C_8
REMARK    5  A    between atoms: C_12  and  C_13
REMARK    6  A    between atoms: C_13  and  C_14
REMARK    7  A    between atoms: N_16  and  C_17
REMARK    8  A    between atoms: C_17  and  C_18
REMARK    9  A    between atoms: C_26  and  C_27
REMARK                            x       y       z     vdW  Elec       q    Type
REMARK                         _______ _______ _______ _____ _____    ______ ____
ROOT
ATOM      8  C   UNL     1      -4.140   0.707  24.081  0.00  0.00    +0.043 C 
ATOM      9  C   UNL     1      -3.567   0.843  23.504  0.00  0.00    -0.033 C 
ATOM     10  C   UNL     1      -3.308   1.613  23.354  0.00  0.00    -0.048 C 
ATOM     11  C   UNL     1      -2.735   1.749  22.777  0.00  0.00    +0.026 C 
ATOM     12  C   UNL     1      -3.624   2.245  23.780  0.00  0.00    +0.027 C 
ATOM     25  C   UNL     1      -4.197   2.107  24.357  0.00  0.00    +0.005 C 
ATOM     26  C   UNL     1      -4.455   1.339  24.507  0.00  0.00    +0.006 C 
ENDROOT
BRANCH  26  27
ATOM     27  C   UNL     1      -5.029   1.201  25.084  0.00  0.00    +0.000 C 
ATOM     28  C   UNL     1      -4.805   0.969  25.843  0.00  0.00    +0.000 C 
ATOM     29  C   UNL     1      -5.828   1.296  24.902  0.00  0.00    +0.000 C 
ENDBRANCH  26  27
BRANCH   8   7
ATOM      7  C   UNL     1      -4.399  -0.063  24.232  0.00  0.00    +0.119 C 
BRANCH   7   6
ATOM      4  C   UNL     1      -4.115  -1.458  24.103  0.00  0.00    +0.272 C 
ATOM      5  O   UNL     1      -4.912  -1.607  23.960  0.00  0.00    -0.271 OA
ATOM      6  N   UNL     1      -3.857  -0.685  24.239  0.00  0.00    -0.203 NA
BRANCH   4   3
ATOM      3  C   UNL     1      -3.573  -2.080  24.111  0.00  0.00    +0.229 C 
BRANCH   3   2
ATOM      1  C   UNL     1      -3.167  -3.346  24.635  0.00  0.00    +0.175 C 
ATOM      2  O   UNL     1      -3.753  -2.778  24.513  0.00  0.00    -0.342 OA
ENDBRANCH   3   2
ENDBRANCH   4   3
ENDBRANCH   7   6
ENDBRANCH   8   7
BRANCH  12  13
ATOM     13  C   UNL     1      -3.365   3.013  23.629  0.00  0.00    +0.091 C 
BRANCH  13  14
ATOM     14  C   UNL     1      -3.009   3.454  24.229  0.00  0.00    +0.242 C 
ATOM     15  O   UNL     1      -3.421   4.072  24.586  0.00  0.00    -0.273 OA
ATOM     16  N   UNL     1      -2.241   3.277  24.470  0.00  0.00    -0.201 NA
BRANCH  16  17
ATOM     17  C   UNL     1      -1.885   3.718  25.069  0.00  0.00    +0.141 C 
BRANCH  17  18
ATOM     18  C   UNL     1      -1.213   3.429  25.452  0.00  0.00    -0.000 A 
ATOM     19  C   UNL     1      -1.286   3.028  26.169  0.00  0.00    -0.000 A 
ATOM     20  C   UNL     1      -0.614   2.739  26.551  0.00  0.00    +0.029 A 
ATOM     21  C   UNL     1       0.131   2.852  26.216  0.00  0.00    +0.140 A 
ATOM     22  F   UNL     1       0.803   2.563  26.597  0.00  0.00    -0.204 F 
ATOM     23  C   UNL     1       0.205   3.253  25.498  0.00  0.00    +0.029 A 
ATOM     24  C   UNL     1      -0.467   3.541  25.116  0.00  0.00    -0.000 A 
ENDBRANCH  17  18
ENDBRANCH  16  17
ENDBRANCH  13  14
ENDBRANCH  12  13
TORSDOF 9
ENDMDL
