MODEL 1
REMARK VINA RESULT:      -9.2      0.000      0.000
REMARK  Name = 
REMARK  6 active torsions:
REMARK  status: ('A' for Active; 'I' for Inactive)
REMARK    1  A    between atoms: C_2  and  C_5
REMARK    2  A    between atoms: C_5  and  N_6
REMARK    3  A    between atoms: N_6  and  C_7
REMARK    4  A    between atoms: C_10  and  C_11
REMARK    5  A    between atoms: C_11  and  N_12
REMARK    6  A    between atoms: C_13  and  C_15
REMARK                            x       y       z     vdW  Elec       q    Type
REMARK                         _______ _______ _______ _____ _____    ______ ____
ROOT
ATOM      7  C   UNL     1      -4.000   0.058  24.719  0.00  0.00    +0.135 C 
ATOM      8  C   UNL     1      -4.780   0.191  24.957  0.00  0.00    +0.162 C 
ATOM      9  O   UNL     1      -4.871   1.000  25.092  0.00  0.00    -0.350 OA
ATOM     10  C   UNL     1      -4.148   1.367  24.938  0.00  0.00    +0.169 C 
ATOM     21  C   UNL     1      -3.610   0.785  24.708  0.00  0.00    +0.199 C 
ATOM     22  O   UNL     1      -2.820   0.908  24.503  0.00  0.00    -0.219 OA
ENDROOT
BRANCH   7   6
ATOM      6  N   UNL     1      -3.670  -0.673  24.527  0.00  0.00    -0.214 NA
BRANCH   6   5
ATOM      5  C   UNL     1      -4.084  -1.368  24.691  0.00  0.00    +0.089 C 
BRANCH   5   2
ATOM      1  C   UNL     1      -3.444  -2.828  24.265  0.00  0.00    +0.001 C 
ATOM      2  C   UNL     1      -3.764  -2.098  24.478  0.00  0.00    +0.016 C 
ATOM      3  C   UNL     1      -3.385  -2.144  25.209  0.00  0.00    +0.001 C 
ATOM      4  C   UNL     1      -4.143  -2.051  23.747  0.00  0.00    +0.001 C 
ENDBRANCH   5   2
ENDBRANCH   6   5
ENDBRANCH   7   6
BRANCH  10  11
ATOM     11  C   UNL     1      -3.990   2.174  25.003  0.00  0.00    +0.148 C 
BRANCH  11  12
ATOM     12  N   UNL     1      -4.611   2.711  25.086  0.00  0.00    -0.199 NA
ATOM     13  C   UNL     1      -4.452   3.504  25.248  0.00  0.00    +0.265 C 
ATOM     14  O   UNL     1      -5.073   4.041  25.331  0.00  0.00    -0.268 OA
BRANCH  13  15
ATOM     15  C   UNL     1      -3.671   3.761  25.326  0.00  0.00    +0.058 A 
ATOM     16  C   UNL     1      -3.244   3.990  24.658  0.00  0.00    +0.025 A 
ATOM     17  C   UNL     1      -2.464   4.247  24.737  0.00  0.00    +0.099 A 
ATOM     18  N   UNL     1      -2.112   4.275  25.482  0.00  0.00    -0.242 NA
ATOM     19  C   UNL     1      -2.539   4.046  26.149  0.00  0.00    +0.099 A 
ATOM     20  C   UNL     1      -3.319   3.789  26.072  0.00  0.00    +0.025 A 
ENDBRANCH  13  15
ENDBRANCH  11  12
ENDBRANCH  10  11
TORSDOF 6
ENDMDL
MODEL 2
REMARK VINA RESULT:      -8.9      1.924      2.579
REMARK  Name = 
REMARK  6 active torsions:
REMARK  status: ('A' for Active; 'I' for Inactive)
REMARK    1  A    between atoms: C_2  and  C_5
REMARK    2  A    between atoms: C_5  and  N_6
REMARK    3  A    between atoms: N_6  and  C_7
REMARK    4  A    between atoms: C_10  and  C_11
REMARK    5  A    between atoms: C_11  and  N_12
REMARK    6  A    between atoms: C_13  and  C_15
REMARK                            x       y       z     vdW  Elec       q    Type
REMARK                         _______ _______ _______ _____ _____    ______ ____
ROOT
ATOM      7  C   UNL     1      -2.296  -0.310  24.859  0.00  0.00    +0.135 C 
ATOM      8  C   UNL     1      -1.913  -0.515  25.561  0.00  0.00    +0.162 C 
ATOM      9  O   UNL     1      -1.468   0.135  25.808  0.00  0.00    -0.350 OA
ATOM     10  C   UNL     1      -1.576   0.741  25.259  0.00  0.00    +0.169 C 
ATOM     21  C   UNL     1      -2.087   0.466  24.673  0.00  0.00    +0.199 C 
ATOM     22  O   UNL     1      -2.344   0.893  24.015  0.00  0.00    -0.219 OA
ENDROOT
BRANCH   7   6
ATOM      6  N   UNL     1      -2.798  -0.796  24.421  0.00  0.00    -0.214 NA
BRANCH   6   5
ATOM      5  C   UNL     1      -3.203  -1.411  24.792  0.00  0.00    +0.089 C 
BRANCH   5   2
ATOM      1  C   UNL     1      -4.141  -2.435  23.902  0.00  0.00    +0.001 C 
ATOM      2  C   UNL     1      -3.672  -1.923  24.347  0.00  0.00    +0.016 C 
ATOM      3  C   UNL     1      -4.239  -1.330  24.261  0.00  0.00    +0.001 C 
ATOM      4  C   UNL     1      -3.106  -2.517  24.433  0.00  0.00    +0.001 C 
ENDBRANCH   5   2
ENDBRANCH   6   5
ENDBRANCH   7   6
BRANCH  10  11
ATOM     11  C   UNL     1      -1.232   1.490  25.291  0.00  0.00    +0.148 C 
BRANCH  11  12
ATOM     12  N   UNL     1      -0.531   1.606  25.710  0.00  0.00    -0.199 NA
ATOM     13  C   UNL     1      -0.259   2.370  25.855  0.00  0.00    +0.265 C 
ATOM     14  O   UNL     1       0.442   2.486  26.275  0.00  0.00    -0.268 OA
BRANCH  13  15
ATOM     15  C   UNL     1      -0.688   3.020  25.582  0.00  0.00    +0.058 A 
ATOM     16  C   UNL     1      -0.482   3.379  24.867  0.00  0.00    +0.025 A 
ATOM     17  C   UNL     1      -0.910   4.029  24.594  0.00  0.00    +0.099 A 
ATOM     18  N   UNL     1      -1.544   4.320  25.034  0.00  0.00    -0.242 NA
ATOM     19  C   UNL     1      -1.749   3.962  25.748  0.00  0.00    +0.099 A 
ATOM     20  C   UNL     1      -1.321   3.312  26.022  0.00  0.00    +0.025 A 
ENDBRANCH  13  15
ENDBRANCH  11  12
ENDBRANCH  10  11
TORSDOF 6
ENDMDL
MODEL 3
REMARK VINA RESULT:      -8.6      1.900      5.419
REMARK  Name = 
REMARK  6 active torsions:
REMARK  status: ('A' for Active; 'I' for Inactive)
REMARK    1  A    between atoms: C_2  and  C_5
REMARK    2  A    between atoms: C_5  and  N_6
REMARK    3  A    between atoms: N_6  and  C_7
REMARK    4  A    between atoms: C_10  and  C_11
REMARK    5  A    between atoms: C_11  and  N_12
REMARK    6  A    between atoms: C_13  and  C_15
REMARK                            x       y       z     vdW  Elec       q    Type
REMARK                         _______ _______ _______ _____ _____    ______ ____
ROOT
ATOM      7  C   UNL     1      -1.360   2.330  25.187  0.00  0.00    +0.135 C 
ATOM      8  C   UNL     1      -0.774   2.069  25.707  0.00  0.00    +0.162 C 
ATOM      9  O   UNL     1      -0.822   1.247  25.754  0.00  0.00    -0.350 OA
ATOM     10  C   UNL     1      -1.438   0.999  25.263  0.00  0.00    +0.169 C 
ATOM     21  C   UNL     1      -1.769   1.669  24.913  0.00  0.00    +0.199 C 
ATOM     22  O   UNL     1      -2.401   1.676  24.381  0.00  0.00    -0.219 OA
ENDROOT
BRANCH   7   6
ATOM      6  N   UNL     1      -1.509   3.114  24.979  0.00  0.00    -0.214 NA
BRANCH   6   5
ATOM      5  C   UNL     1      -1.191   3.728  25.430  0.00  0.00    +0.089 C 
BRANCH   5   2
ATOM      1  C   UNL     1      -1.489   5.296  25.013  0.00  0.00    +0.001 C 
ATOM      2  C   UNL     1      -1.340   4.512  25.221  0.00  0.00    +0.016 C 
ATOM      3  C   UNL     1      -2.049   4.489  25.643  0.00  0.00    +0.001 C 
ATOM      4  C   UNL     1      -0.631   4.535  24.800  0.00  0.00    +0.001 C 
ENDBRANCH   5   2
ENDBRANCH   6   5
ENDBRANCH   7   6
BRANCH  10  11
ATOM     11  C   UNL     1      -1.679   0.220  25.143  0.00  0.00    +0.148 C 
BRANCH  11  12
ATOM     12  N   UNL     1      -1.137  -0.397  25.223  0.00  0.00    -0.199 NA
ATOM     13  C   UNL     1      -1.399  -1.179  25.219  0.00  0.00    +0.265 C 
ATOM     14  O   UNL     1      -0.857  -1.796  25.299  0.00  0.00    -0.268 OA
BRANCH  13  15
ATOM     15  C   UNL     1      -2.202  -1.345  25.134  0.00  0.00    +0.058 A 
ATOM     16  C   UNL     1      -2.507  -1.540  24.392  0.00  0.00    +0.025 A 
ATOM     17  C   UNL     1      -3.310  -1.706  24.307  0.00  0.00    +0.099 A 
ATOM     18  N   UNL     1      -3.809  -1.677  24.963  0.00  0.00    -0.242 NA
ATOM     19  C   UNL     1      -3.505  -1.483  25.704  0.00  0.00    +0.099 A 
ATOM     20  C   UNL     1      -2.701  -1.316  25.790  0.00  0.00    +0.025 A 
ENDBRANCH  13  15
ENDBRANCH  11  12
ENDBRANCH  10  11
TORSDOF 6
ENDMDL
