REMARK  Name = 
REMARK  4 active torsions:
REMARK  status: ('A' for Active; 'I' for Inactive)
REMARK    1  A    between atoms: C_2  and  C_5
REMARK    2  A    between atoms: C_8  and  O_9
REMARK    3  A    between atoms: O_9  and  C_10
REMARK    4  A    between atoms: N_19  and  C_20
REMARK                            x       y       z     vdW  Elec       q    Type
REMARK                         _______ _______ _______ _____ _____    ______ ____
ROOT
ATOM     10  C   UNL     1      -0.401  -3.868   0.000  0.00  0.00    +0.215 C 
ATOM     11  C   UNL     1       0.281  -3.403   0.000  0.00  0.00    +0.187 C 
ATOM     12  O   UNL     1       1.069  -3.646   0.000  0.00  0.00    -0.348 OA
ATOM     13  C   UNL     1       1.371  -4.414   0.000  0.00  0.00    +0.164 C 
ATOM     14  C   UNL     1       0.958  -5.128   0.000  0.00  0.00    +0.127 C 
ATOM     15  N   UNL     1       0.142  -5.251   0.000  0.00  0.00    -0.256 N 
ATOM     16  C   UNL     1      -0.462  -4.690   0.000  0.00  0.00    +0.141 C 
ATOM     17  C   UNL     1      -0.101  -6.040   0.000  0.00  0.00    +0.328 C 
ATOM     18  O   UNL     1      -0.905  -6.223   0.000  0.00  0.00    -0.250 OA
ATOM     19  N   UNL     1       0.460  -6.644   0.000  0.00  0.00    -0.161 NA
ENDROOT
BRANCH  19  20
ATOM     20  C   UNL     1       0.217  -7.433   0.000  0.00  0.00    +0.094 A 
ATOM     21  C   UNL     1       0.778  -8.038   0.000  0.00  0.00    +0.115 A 
ATOM     22  N   UNL     1       0.535  -8.826   0.000  0.00  0.00    -0.241 NA
ATOM     23  C   UNL     1      -0.269  -9.009   0.000  0.00  0.00    +0.099 A 
ATOM     24  C   UNL     1      -0.830  -8.405   0.000  0.00  0.00    +0.022 A 
ATOM     25  C   UNL     1      -0.587  -7.616   0.000  0.00  0.00    +0.020 A 
ENDBRANCH  19  20
BRANCH  10   9
ATOM      9  O   UNL     1      -1.115  -3.455   0.000  0.00  0.00    -0.475 OA
BRANCH   9   8
ATOM      5  C   UNL     1      -1.115  -0.980   0.000  0.00  0.00    +0.072 A 
ATOM      6  C   UNL     1      -0.401  -1.393   0.000  0.00  0.00    +0.007 A 
ATOM      7  C   UNL     1      -0.401  -2.217   0.000  0.00  0.00    +0.037 A 
ATOM      8  C   UNL     1      -1.115  -2.630   0.000  0.00  0.00    +0.139 A 
ATOM     26  C   UNL     1      -1.830  -2.217   0.000  0.00  0.00    +0.037 A 
ATOM     27  C   UNL     1      -1.830  -1.393   0.000  0.00  0.00    +0.007 A 
BRANCH   5   2
ATOM      1  F   UNL     1      -1.115   0.670   0.000  0.00  0.00    -0.166 F 
ATOM      2  C   UNL     1      -1.115  -0.155   0.000  0.00  0.00    +0.419 C 
ATOM      3  F   UNL     1      -1.940  -0.155   0.000  0.00  0.00    -0.166 F 
ATOM      4  F   UNL     1      -0.290  -0.155   0.000  0.00  0.00    -0.166 F 
ENDBRANCH   5   2
ENDBRANCH   9   8
ENDBRANCH  10   9
TORSDOF 4
