REMARK  Name = 
REMARK  8 active torsions:
REMARK  status: ('A' for Active; 'I' for Inactive)
REMARK    1  A    between atoms: O_2  and  C_3
REMARK    2  A    between atoms: C_6  and  C_9
REMARK    3  A    between atoms: C_11  and  C_12
REMARK    4  A    between atoms: C_12  and  C_13
REMARK    5  A    between atoms: C_18  and  C_19
REMARK    6  A    between atoms: C_19  and  N_20
REMARK    7  A    between atoms: N_20  and  C_21
REMARK    8  A    between atoms: C_21  and  C_22
REMARK                            x       y       z     vdW  Elec       q    Type
REMARK                         _______ _______ _______ _____ _____    ______ ____
ROOT
ATOM     13  C   UNL     1       7.327  -4.387   0.000  0.00  0.00    +0.121 C 
ATOM     14  C   UNL     1       7.662  -3.634   0.000  0.00  0.00    +0.033 C 
ATOM     15  C   UNL     1       8.483  -3.547   0.000  0.00  0.00    +0.038 C 
ATOM     16  C   UNL     1       8.968  -4.215   0.000  0.00  0.00    +0.180 C 
ATOM     17  O   UNL     1       9.788  -4.129   0.000  0.00  0.00    -0.220 OA
ATOM     18  C   UNL     1       8.632  -4.969   0.000  0.00  0.00    +0.163 C 
ATOM     29  O   UNL     1       7.812  -5.055   0.000  0.00  0.00    -0.354 OA
ENDROOT
BRANCH  13  12
ATOM     12  C   UNL     1       6.506  -4.474   0.000  0.00  0.00    +0.079 C 
BRANCH  12  11
ATOM      9  C   UNL     1       5.609  -2.537   0.000  0.00  0.00    +0.177 A 
ATOM     10  C   UNL     1       6.277  -3.022   0.000  0.00  0.00    +0.058 A 
ATOM     11  C   UNL     1       6.022  -3.806   0.000  0.00  0.00    +0.103 A 
ATOM     30  N   UNL     1       5.197  -3.806   0.000  0.00  0.00    -0.081 NA
ATOM     31  O   UNL     1       4.942  -3.022   0.000  0.00  0.00    -0.354 OA
BRANCH   9   6
ATOM      3  C   UNL     1       5.609  -0.062   0.000  0.00  0.00    +0.139 A 
ATOM      4  C   UNL     1       6.324  -0.474   0.000  0.00  0.00    +0.037 A 
ATOM      5  C   UNL     1       6.324  -1.299   0.000  0.00  0.00    +0.006 A 
ATOM      6  C   UNL     1       5.609  -1.712   0.000  0.00  0.00    +0.037 A 
ATOM      7  C   UNL     1       4.895  -1.299   0.000  0.00  0.00    +0.006 A 
ATOM      8  C   UNL     1       4.895  -0.474   0.000  0.00  0.00    +0.037 A 
BRANCH   3   2
ATOM      1  C   UNL     1       4.895   1.176   0.000  0.00  0.00    +0.252 C 
ATOM      2  O   UNL     1       5.609   0.763   0.000  0.00  0.00    -0.471 OA
ENDBRANCH   3   2
ENDBRANCH   9   6
ENDBRANCH  12  11
ENDBRANCH  13  12
BRANCH  18  19
ATOM     19  C   UNL     1       9.117  -5.636   0.000  0.00  0.00    +0.121 C 
BRANCH  19  20
ATOM     20  N   UNL     1       8.782  -6.390   0.000  0.00  0.00    -0.211 NA
BRANCH  20  21
ATOM     21  C   UNL     1       9.267  -7.057   0.000  0.00  0.00    +0.115 C 
BRANCH  21  22
ATOM     22  C   UNL     1       8.931  -7.811   0.000  0.00  0.00    -0.004 A 
ATOM     23  C   UNL     1       9.416  -8.478   0.000  0.00  0.00    -0.003 A 
ATOM     24  C   UNL     1       9.081  -9.232   0.000  0.00  0.00    +0.001 A 
ATOM     25  C   UNL     1       8.260  -9.318   0.000  0.00  0.00    +0.011 A 
ATOM     26  C   UNL     1       7.775  -8.651   0.000  0.00  0.00    +0.057 A 
ATOM     27 CL   UNL     1       6.955  -8.737   0.000  0.00  0.00    -0.082 Cl
ATOM     28  C   UNL     1       8.111  -7.897   0.000  0.00  0.00    +0.009 A 
ENDBRANCH  21  22
ENDBRANCH  20  21
ENDBRANCH  19  20
ENDBRANCH  18  19
TORSDOF 8
