MODEL 1
REMARK VINA RESULT:     -15.1      0.000      0.000
REMARK  Name = 
REMARK  6 active torsions:
REMARK  status: ('A' for Active; 'I' for Inactive)
REMARK    1  A    between atoms: C_5  and  N_6
REMARK    2  A    between atoms: C_7  and  O_9
REMARK    3  A    between atoms: O_9  and  C_10
REMARK    4  A    between atoms: C_14  and  N_18
REMARK    5  A    between atoms: C_22  and  C_23
REMARK    6  A    between atoms: C_26  and  C_29
REMARK                            x       y       z     vdW  Elec       q    Type
REMARK                         _______ _______ _______ _____ _____    ______ ____
ROOT
ATOM     10  C   UNL     1      -0.413   1.189  24.797  0.00  0.00    +0.229 C 
ATOM     11  C   UNL     1      -0.318   1.517  24.046  0.00  0.00    +0.188 C 
ATOM     12  O   UNL     1      -0.468   2.326  24.100  0.00  0.00    -0.348 OA
ATOM     13  C   UNL     1      -0.655   2.499  24.884  0.00  0.00    +0.171 C 
ATOM     14  C   UNL     1      -0.864   3.105  25.403  0.00  0.00    +0.167 C 
ATOM     15  C   UNL     1      -0.959   2.777  26.154  0.00  0.00    +0.169 C 
ATOM     16  O   UNL     1      -0.810   1.968  26.100  0.00  0.00    -0.348 OA
ATOM     17  C   UNL     1      -0.622   1.796  25.315  0.00  0.00    +0.187 C 
ENDROOT
BRANCH  14  18
ATOM     18  N   UNL     1      -0.961   3.900  25.206  0.00  0.00    -0.210 N 
ATOM     19  N   UNL     1      -0.354   4.447  25.082  0.00  0.00    -0.043 NA
ATOM     20  N   UNL     1      -0.699   5.173  24.897  0.00  0.00    -0.023 NA
ATOM     21  N   UNL     1      -1.518   5.075  24.905  0.00  0.00    -0.108 NA
ATOM     22  C   UNL     1      -1.679   4.289  25.096  0.00  0.00    +0.184 A 
BRANCH  22  23
ATOM     23  C   UNL     1      -2.429   3.951  25.165  0.00  0.00    +0.037 A 
ATOM     24  C   UNL     1      -2.794   3.903  25.904  0.00  0.00    +0.003 A 
ATOM     25  C   UNL     1      -3.543   3.565  25.973  0.00  0.00    +0.000 A 
ATOM     26  C   UNL     1      -3.928   3.274  25.303  0.00  0.00    +0.000 A 
ATOM     27  C   UNL     1      -3.563   3.322  24.564  0.00  0.00    +0.000 A 
ATOM     28  C   UNL     1      -2.814   3.660  24.496  0.00  0.00    +0.003 A 
BRANCH  26  29
ATOM     29  C   UNL     1      -4.677   2.937  25.371  0.00  0.00    +0.000 A 
ATOM     30  C   UNL     1      -4.788   2.139  25.189  0.00  0.00    +0.000 A 
ATOM     31  C   UNL     1      -5.537   1.801  25.258  0.00  0.00    +0.000 A 
ATOM     32  C   UNL     1      -6.176   2.260  25.508  0.00  0.00    +0.000 A 
ATOM     33  C   UNL     1      -6.065   3.057  25.689  0.00  0.00    +0.000 A 
ATOM     34  C   UNL     1      -5.316   3.395  25.621  0.00  0.00    +0.000 A 
ENDBRANCH  26  29
ENDBRANCH  22  23
ENDBRANCH  14  18
BRANCH  10   9
ATOM      9  O   UNL     1      -0.317   0.394  24.995  0.00  0.00    -0.432 OA
BRANCH   9   7
ATOM      6  N   UNL     1      -1.265  -0.617  25.341  0.00  0.00    -0.142 NA
ATOM      7  C   UNL     1      -0.886  -0.160  24.770  0.00  0.00    +0.425 C 
ATOM      8  O   UNL     1      -1.076  -0.255  23.972  0.00  0.00    -0.224 OA
BRANCH   6   5
ATOM      1  C   UNL     1      -3.544  -2.829  24.443  0.00  0.00    +0.031 C 
ATOM      2  C   UNL     1      -2.974  -2.277  24.668  0.00  0.00    -0.022 A 
ATOM      3  C   UNL     1      -3.206  -1.558  25.000  0.00  0.00    -0.003 A 
ATOM      4  C   UNL     1      -2.636  -1.005  25.224  0.00  0.00    +0.016 A 
ATOM      5  C   UNL     1      -1.835  -1.171  25.117  0.00  0.00    +0.077 A 
ATOM     35  C   UNL     1      -1.604  -1.889  24.784  0.00  0.00    +0.016 A 
ATOM     36  C   UNL     1      -2.173  -2.442  24.560  0.00  0.00    -0.003 A 
ENDBRANCH   6   5
ENDBRANCH   9   7
ENDBRANCH  10   9
TORSDOF 6
ENDMDL
MODEL 2
REMARK VINA RESULT:     -14.8      1.207      4.478
REMARK  Name = 
REMARK  6 active torsions:
REMARK  status: ('A' for Active; 'I' for Inactive)
REMARK    1  A    between atoms: C_5  and  N_6
REMARK    2  A    between atoms: C_7  and  O_9
REMARK    3  A    between atoms: O_9  and  C_10
REMARK    4  A    between atoms: C_14  and  N_18
REMARK    5  A    between atoms: C_22  and  C_23
REMARK    6  A    between atoms: C_26  and  C_29
REMARK                            x       y       z     vdW  Elec       q    Type
REMARK                         _______ _______ _______ _____ _____    ______ ____
ROOT
ATOM     10  C   UNL     1      -0.309   0.844  24.602  0.00  0.00    +0.229 C 
ATOM     11  C   UNL     1      -0.332   0.567  23.826  0.00  0.00    +0.188 C 
ATOM     12  O   UNL     1      -0.808  -0.107  23.810  0.00  0.00    -0.348 OA
ATOM     13  C   UNL     1      -1.078  -0.246  24.576  0.00  0.00    +0.171 C 
ATOM     14  C   UNL     1      -1.540  -0.748  25.041  0.00  0.00    +0.167 C 
ATOM     15  C   UNL     1      -1.517  -0.471  25.818  0.00  0.00    +0.169 C 
ATOM     16  O   UNL     1      -1.041   0.203  25.833  0.00  0.00    -0.348 OA
ATOM     17  C   UNL     1      -0.770   0.342  25.066  0.00  0.00    +0.187 C 
ENDROOT
BRANCH  14  18
ATOM     18  N   UNL     1      -1.952  -1.412  24.775  0.00  0.00    -0.210 N 
ATOM     19  N   UNL     1      -1.627  -2.154  24.616  0.00  0.00    -0.043 NA
ATOM     20  N   UNL     1      -2.236  -2.650  24.364  0.00  0.00    -0.023 NA
ATOM     21  N   UNL     1      -2.937  -2.215  24.368  0.00  0.00    -0.108 NA
ATOM     22  C   UNL     1      -2.761  -1.450  24.622  0.00  0.00    +0.184 A 
BRANCH  22  23
ATOM     23  C   UNL     1      -3.301  -0.831  24.707  0.00  0.00    +0.037 A 
ATOM     24  C   UNL     1      -3.633  -0.672  25.447  0.00  0.00    +0.003 A 
ATOM     25  C   UNL     1      -4.172  -0.054  25.531  0.00  0.00    +0.000 A 
ATOM     26  C   UNL     1      -4.381   0.405  24.878  0.00  0.00    +0.000 A 
ATOM     27  C   UNL     1      -4.049   0.245  24.140  0.00  0.00    +0.000 A 
ATOM     28  C   UNL     1      -3.509  -0.373  24.055  0.00  0.00    +0.003 A 
BRANCH  26  29
ATOM     29  C   UNL     1      -4.920   1.023  24.963  0.00  0.00    +0.000 A 
ATOM     30  C   UNL     1      -4.652   1.803  24.990  0.00  0.00    +0.000 A 
ATOM     31  C   UNL     1      -5.192   2.421  25.075  0.00  0.00    +0.000 A 
ATOM     32  C   UNL     1      -5.999   2.260  25.133  0.00  0.00    +0.000 A 
ATOM     33  C   UNL     1      -6.266   1.480  25.106  0.00  0.00    +0.000 A 
ATOM     34  C   UNL     1      -5.727   0.862  25.021  0.00  0.00    +0.000 A 
ENDBRANCH  26  29
ENDBRANCH  22  23
ENDBRANCH  14  18
BRANCH  10   9
ATOM      9  O   UNL     1       0.104   1.507  24.868  0.00  0.00    -0.432 OA
BRANCH   9   7
ATOM      6  N   UNL     1      -0.404   2.725  25.417  0.00  0.00    -0.142 NA
ATOM      7  C   UNL     1      -0.214   2.261  24.763  0.00  0.00    +0.425 C 
ATOM      8  O   UNL     1      -0.343   2.551  24.000  0.00  0.00    -0.224 OA
BRANCH   6   5
ATOM      1  C   UNL     1      -1.678   5.740  24.995  0.00  0.00    +0.031 C 
ATOM      2  C   UNL     1      -1.359   4.986  25.100  0.00  0.00    -0.022 A 
ATOM      3  C   UNL     1      -1.818   4.388  25.436  0.00  0.00    -0.003 A 
ATOM      4  C   UNL     1      -1.499   3.634  25.541  0.00  0.00    +0.016 A 
ATOM      5  C   UNL     1      -0.722   3.479  25.312  0.00  0.00    +0.077 A 
ATOM     35  C   UNL     1      -0.264   4.077  24.977  0.00  0.00    +0.016 A 
ATOM     36  C   UNL     1      -0.582   4.831  24.871  0.00  0.00    -0.003 A 
ENDBRANCH   6   5
ENDBRANCH   9   7
ENDBRANCH  10   9
TORSDOF 6
ENDMDL
MODEL 3
REMARK VINA RESULT:     -12.8      2.246      3.733
REMARK  Name = 
REMARK  6 active torsions:
REMARK  status: ('A' for Active; 'I' for Inactive)
REMARK    1  A    between atoms: C_5  and  N_6
REMARK    2  A    between atoms: C_7  and  O_9
REMARK    3  A    between atoms: O_9  and  C_10
REMARK    4  A    between atoms: C_14  and  N_18
REMARK    5  A    between atoms: C_22  and  C_23
REMARK    6  A    between atoms: C_26  and  C_29
REMARK                            x       y       z     vdW  Elec       q    Type
REMARK                         _______ _______ _______ _____ _____    ______ ____
ROOT
ATOM     10  C   UNL     1      -4.336   0.169  24.769  0.00  0.00    +0.229 C 
ATOM     11  C   UNL     1      -4.654   0.110  25.528  0.00  0.00    +0.188 C 
ATOM     12  O   UNL     1      -4.969   0.844  25.730  0.00  0.00    -0.348 OA
ATOM     13  C   UNL     1      -4.847   1.358  25.097  0.00  0.00    +0.171 C 
ATOM     14  C   UNL     1      -4.965   2.129  24.829  0.00  0.00    +0.167 C 
ATOM     15  C   UNL     1      -4.647   2.188  24.070  0.00  0.00    +0.169 C 
ATOM     16  O   UNL     1      -4.332   1.453  23.869  0.00  0.00    -0.348 OA
ATOM     17  C   UNL     1      -4.455   0.940  24.503  0.00  0.00    +0.187 C 
ENDROOT
BRANCH  14  18
ATOM     18  N   UNL     1      -5.337   2.735  25.248  0.00  0.00    -0.210 N 
ATOM     19  N   UNL     1      -6.130   2.752  25.476  0.00  0.00    -0.043 NA
ATOM     20  N   UNL     1      -6.264   3.458  25.881  0.00  0.00    -0.023 NA
ATOM     21  N   UNL     1      -5.554   3.877  25.903  0.00  0.00    -0.108 NA
ATOM     22  C   UNL     1      -4.982   3.431  25.512  0.00  0.00    +0.184 A 
BRANCH  22  23
ATOM     23  C   UNL     1      -4.191   3.643  25.404  0.00  0.00    +0.037 A 
ATOM     24  C   UNL     1      -3.944   3.962  24.684  0.00  0.00    +0.003 A 
ATOM     25  C   UNL     1      -3.154   4.174  24.577  0.00  0.00    +0.000 A 
ATOM     26  C   UNL     1      -2.611   4.067  25.189  0.00  0.00    +0.000 A 
ATOM     27  C   UNL     1      -2.859   3.748  25.908  0.00  0.00    +0.000 A 
ATOM     28  C   UNL     1      -3.648   3.536  26.015  0.00  0.00    +0.003 A 
BRANCH  26  29
ATOM     29  C   UNL     1      -1.821   4.279  25.081  0.00  0.00    +0.000 A 
ATOM     30  C   UNL     1      -1.248   3.694  24.977  0.00  0.00    +0.000 A 
ATOM     31  C   UNL     1      -0.458   3.906  24.870  0.00  0.00    +0.000 A 
ATOM     32  C   UNL     1      -0.241   4.702  24.867  0.00  0.00    +0.000 A 
ATOM     33  C   UNL     1      -0.814   5.286  24.971  0.00  0.00    +0.000 A 
ATOM     34  C   UNL     1      -1.604   5.074  25.078  0.00  0.00    +0.000 A 
ENDBRANCH  26  29
ENDBRANCH  22  23
ENDBRANCH  14  18
BRANCH  10   9
ATOM      9  O   UNL     1      -3.965  -0.437  24.351  0.00  0.00    -0.432 OA
BRANCH   9   7
ATOM      6  N   UNL     1      -2.594  -0.823  24.226  0.00  0.00    -0.142 NA
ATOM      7  C   UNL     1      -3.294  -0.803  24.662  0.00  0.00    +0.425 C 
ATOM      8  O   UNL     1      -3.323  -1.149  25.411  0.00  0.00    -0.224 OA
BRANCH   6   5
ATOM      1  C   UNL     1       0.090  -2.284  25.472  0.00  0.00    +0.031 C 
ATOM      2  C   UNL     1      -0.581  -1.919  25.160  0.00  0.00    -0.022 A 
ATOM      3  C   UNL     1      -0.662  -1.099  25.203  0.00  0.00    -0.003 A 
ATOM      4  C   UNL     1      -1.333  -0.734  24.891  0.00  0.00    +0.016 A 
ATOM      5  C   UNL     1      -1.923  -1.189  24.537  0.00  0.00    +0.077 A 
ATOM     35  C   UNL     1      -1.843  -2.008  24.495  0.00  0.00    +0.016 A 
ATOM     36  C   UNL     1      -1.172  -2.374  24.806  0.00  0.00    -0.003 A 
ENDBRANCH   6   5
ENDBRANCH   9   7
ENDBRANCH  10   9
TORSDOF 6
ENDMDL
MODEL 4
REMARK VINA RESULT:     -12.2      1.480      4.291
REMARK  Name = 
REMARK  6 active torsions:
REMARK  status: ('A' for Active; 'I' for Inactive)
REMARK    1  A    between atoms: C_5  and  N_6
REMARK    2  A    between atoms: C_7  and  O_9
REMARK    3  A    between atoms: O_9  and  C_10
REMARK    4  A    between atoms: C_14  and  N_18
REMARK    5  A    between atoms: C_22  and  C_23
REMARK    6  A    between atoms: C_26  and  C_29
REMARK                            x       y       z     vdW  Elec       q    Type
REMARK                         _______ _______ _______ _____ _____    ______ ____
ROOT
ATOM     10  C   UNL     1      -1.983   3.299  24.787  0.00  0.00    +0.229 C 
ATOM     11  C   UNL     1      -1.812   3.366  23.983  0.00  0.00    +0.188 C 
ATOM     12  O   UNL     1      -1.164   2.882  23.820  0.00  0.00    -0.348 OA
ATOM     13  C   UNL     1      -0.935   2.516  24.522  0.00  0.00    +0.171 C 
ATOM     14  C   UNL     1      -0.394   1.991  24.856  0.00  0.00    +0.167 C 
ATOM     15  C   UNL     1      -0.565   1.923  25.660  0.00  0.00    +0.169 C 
ATOM     16  O   UNL     1      -1.213   2.407  25.823  0.00  0.00    -0.348 OA
ATOM     17  C   UNL     1      -1.442   2.773  25.120  0.00  0.00    +0.187 C 
ENDROOT
BRANCH  14  18
ATOM     18  N   UNL     1       0.213   1.601  24.455  0.00  0.00    -0.210 N 
ATOM     19  N   UNL     1       0.926   1.937  24.207  0.00  0.00    -0.043 NA
ATOM     20  N   UNL     1       1.367   1.350  23.831  0.00  0.00    -0.023 NA
ATOM     21  N   UNL     1       0.928   0.652  23.846  0.00  0.00    -0.108 NA
ATOM     22  C   UNL     1       0.215   0.807  24.232  0.00  0.00    +0.184 A 
BRANCH  22  23
ATOM     23  C   UNL     1      -0.390   0.263  24.369  0.00  0.00    +0.037 A 
ATOM     24  C   UNL     1      -0.419  -0.150  25.084  0.00  0.00    +0.003 A 
ATOM     25  C   UNL     1      -1.024  -0.693  25.221  0.00  0.00    +0.000 A 
ATOM     26  C   UNL     1      -1.600  -0.825  24.644  0.00  0.00    +0.000 A 
ATOM     27  C   UNL     1      -1.570  -0.412  23.931  0.00  0.00    +0.000 A 
ATOM     28  C   UNL     1      -0.965   0.131  23.793  0.00  0.00    +0.003 A 
BRANCH  26  29
ATOM     29  C   UNL     1      -2.205  -1.369  24.781  0.00  0.00    +0.000 A 
ATOM     30  C   UNL     1      -2.139  -2.140  24.494  0.00  0.00    +0.000 A 
ATOM     31  C   UNL     1      -2.743  -2.684  24.631  0.00  0.00    +0.000 A 
ATOM     32  C   UNL     1      -3.414  -2.457  25.056  0.00  0.00    +0.000 A 
ATOM     33  C   UNL     1      -3.479  -1.686  25.342  0.00  0.00    +0.000 A 
ATOM     34  C   UNL     1      -2.875  -1.143  25.205  0.00  0.00    +0.000 A 
ENDBRANCH  26  29
ENDBRANCH  22  23
ENDBRANCH  14  18
BRANCH  10   9
ATOM      9  O   UNL     1      -2.590   3.689  25.188  0.00  0.00    -0.432 OA
BRANCH   9   7
ATOM      6  N   UNL     1      -3.722   2.903  25.567  0.00  0.00    -0.142 NA
ATOM      7  C   UNL     1      -3.375   3.462  25.070  0.00  0.00    +0.425 C 
ATOM      8  O   UNL     1      -3.812   3.796  24.455  0.00  0.00    -0.224 OA
BRANCH   6   5
ATOM      1  C   UNL     1      -6.859   1.994  25.095  0.00  0.00    +0.031 C 
ATOM      2  C   UNL     1      -6.075   2.222  25.213  0.00  0.00    -0.022 A 
ATOM      3  C   UNL     1      -5.462   1.756  24.917  0.00  0.00    -0.003 A 
ATOM      4  C   UNL     1      -4.677   1.983  25.035  0.00  0.00    +0.016 A 
ATOM      5  C   UNL     1      -4.506   2.676  25.449  0.00  0.00    +0.077 A 
ATOM     35  C   UNL     1      -5.119   3.141  25.745  0.00  0.00    +0.016 A 
ATOM     36  C   UNL     1      -5.904   2.915  25.627  0.00  0.00    -0.003 A 
ENDBRANCH   6   5
ENDBRANCH   9   7
ENDBRANCH  10   9
TORSDOF 6
ENDMDL
MODEL 5
REMARK VINA RESULT:     -11.8      2.019      3.951
REMARK  Name = 
REMARK  6 active torsions:
REMARK  status: ('A' for Active; 'I' for Inactive)
REMARK    1  A    between atoms: C_5  and  N_6
REMARK    2  A    between atoms: C_7  and  O_9
REMARK    3  A    between atoms: O_9  and  C_10
REMARK    4  A    between atoms: C_14  and  N_18
REMARK    5  A    between atoms: C_22  and  C_23
REMARK    6  A    between atoms: C_26  and  C_29
REMARK                            x       y       z     vdW  Elec       q    Type
REMARK                         _______ _______ _______ _____ _____    ______ ____
ROOT
ATOM     10  C   UNL     1      -1.190   2.654  24.609  0.00  0.00    +0.229 C 
ATOM     11  C   UNL     1      -1.486   3.057  23.953  0.00  0.00    +0.188 C 
ATOM     12  O   UNL     1      -2.309   3.053  24.003  0.00  0.00    -0.348 OA
ATOM     13  C   UNL     1      -2.522   2.649  24.689  0.00  0.00    +0.171 C 
ATOM     14  C   UNL     1      -3.161   2.396  25.145  0.00  0.00    +0.167 C 
ATOM     15  C   UNL     1      -2.865   1.993  25.801  0.00  0.00    +0.169 C 
ATOM     16  O   UNL     1      -2.042   1.997  25.751  0.00  0.00    -0.348 OA
ATOM     17  C   UNL     1      -1.829   2.402  25.064  0.00  0.00    +0.187 C 
ENDROOT
BRANCH  14  18
ATOM     18  N   UNL     1      -3.959   2.524  24.974  0.00  0.00    -0.210 N 
ATOM     19  N   UNL     1      -4.345   3.254  24.978  0.00  0.00    -0.043 NA
ATOM     20  N   UNL     1      -5.134   3.125  24.776  0.00  0.00    -0.023 NA
ATOM     21  N   UNL     1      -5.236   2.318  24.647  0.00  0.00    -0.108 NA
ATOM     22  C   UNL     1      -4.510   1.946  24.770  0.00  0.00    +0.184 A 
BRANCH  22  23
ATOM     23  C   UNL     1      -4.361   1.137  24.700  0.00  0.00    +0.037 A 
ATOM     24  C   UNL     1      -4.473   0.639  25.349  0.00  0.00    +0.003 A 
ATOM     25  C   UNL     1      -4.324  -0.169  25.279  0.00  0.00    +0.000 A 
ATOM     26  C   UNL     1      -4.063  -0.480  24.561  0.00  0.00    +0.000 A 
ATOM     27  C   UNL     1      -3.952   0.018  23.912  0.00  0.00    +0.000 A 
ATOM     28  C   UNL     1      -4.100   0.826  23.982  0.00  0.00    +0.003 A 
BRANCH  26  29
ATOM     29  C   UNL     1      -3.915  -1.288  24.490  0.00  0.00    +0.000 A 
ATOM     30  C   UNL     1      -4.301  -1.730  23.910  0.00  0.00    +0.000 A 
ATOM     31  C   UNL     1      -4.153  -2.538  23.840  0.00  0.00    +0.000 A 
ATOM     32  C   UNL     1      -3.617  -2.905  24.350  0.00  0.00    +0.000 A 
ATOM     33  C   UNL     1      -3.231  -2.463  24.929  0.00  0.00    +0.000 A 
ATOM     34  C   UNL     1      -3.380  -1.655  24.999  0.00  0.00    +0.000 A 
ENDBRANCH  26  29
ENDBRANCH  22  23
ENDBRANCH  14  18
BRANCH  10   9
ATOM      9  O   UNL     1      -0.392   2.526  24.779  0.00  0.00    -0.432 OA
BRANCH   9   7
ATOM      6  N   UNL     1       0.318   1.350  24.386  0.00  0.00    -0.142 NA
ATOM      7  C   UNL     1       0.087   2.128  24.239  0.00  0.00    +0.425 C 
ATOM      8  O   UNL     1       0.335   2.509  23.549  0.00  0.00    -0.224 OA
BRANCH   6   5
ATOM      1  C   UNL     1       2.234  -0.243  22.222  0.00  0.00    +0.031 C 
ATOM      2  C   UNL     1       1.755   0.156  22.763  0.00  0.00    -0.022 A 
ATOM      3  C   UNL     1       0.969  -0.074  22.865  0.00  0.00    -0.003 A 
ATOM      4  C   UNL     1       0.491   0.325  23.406  0.00  0.00    +0.016 A 
ATOM      5  C   UNL     1       0.797   0.952  23.845  0.00  0.00    +0.077 A 
ATOM     35  C   UNL     1       1.583   1.181  23.742  0.00  0.00    +0.016 A 
ATOM     36  C   UNL     1       2.062   0.783  23.201  0.00  0.00    -0.003 A 
ENDBRANCH   6   5
ENDBRANCH   9   7
ENDBRANCH  10   9
TORSDOF 6
ENDMDL
MODEL 6
REMARK VINA RESULT:     -11.7      2.626      4.554
REMARK  Name = 
REMARK  6 active torsions:
REMARK  status: ('A' for Active; 'I' for Inactive)
REMARK    1  A    between atoms: C_5  and  N_6
REMARK    2  A    between atoms: C_7  and  O_9
REMARK    3  A    between atoms: O_9  and  C_10
REMARK    4  A    between atoms: C_14  and  N_18
REMARK    5  A    between atoms: C_22  and  C_23
REMARK    6  A    between atoms: C_26  and  C_29
REMARK                            x       y       z     vdW  Elec       q    Type
REMARK                         _______ _______ _______ _____ _____    ______ ____
ROOT
ATOM     10  C   UNL     1       0.353   1.041  23.555  0.00  0.00    +0.229 C 
ATOM     11  C   UNL     1       0.531   1.268  24.327  0.00  0.00    +0.188 C 
ATOM     12  O   UNL     1      -0.150   1.594  24.659  0.00  0.00    -0.348 OA
ATOM     13  C   UNL     1      -0.748   1.569  24.093  0.00  0.00    +0.171 C 
ATOM     14  C   UNL     1      -1.539   1.754  23.947  0.00  0.00    +0.167 C 
ATOM     15  C   UNL     1      -1.717   1.526  23.175  0.00  0.00    +0.169 C 
ATOM     16  O   UNL     1      -1.036   1.200  22.842  0.00  0.00    -0.348 OA
ATOM     17  C   UNL     1      -0.437   1.226  23.410  0.00  0.00    +0.187 C 
ENDROOT
BRANCH  14  18
ATOM     18  N   UNL     1      -2.060   2.105  24.481  0.00  0.00    -0.210 N 
ATOM     19  N   UNL     1      -2.035   2.889  24.740  0.00  0.00    -0.043 NA
ATOM     20  N   UNL     1      -2.658   3.002  25.269  0.00  0.00    -0.023 NA
ATOM     21  N   UNL     1      -3.068   2.290  25.337  0.00  0.00    -0.108 NA
ATOM     22  C   UNL     1      -2.698   1.736  24.851  0.00  0.00    +0.184 A 
BRANCH  22  23
ATOM     23  C   UNL     1      -2.927   0.949  24.751  0.00  0.00    +0.037 A 
ATOM     24  C   UNL     1      -3.429   0.741  24.129  0.00  0.00    +0.003 A 
ATOM     25  C   UNL     1      -3.658  -0.045  24.030  0.00  0.00    +0.000 A 
ATOM     26  C   UNL     1      -3.385  -0.624  24.552  0.00  0.00    +0.000 A 
ATOM     27  C   UNL     1      -2.884  -0.415  25.173  0.00  0.00    +0.000 A 
ATOM     28  C   UNL     1      -2.655   0.371  25.272  0.00  0.00    +0.003 A 
BRANCH  26  29
ATOM     29  C   UNL     1      -3.614  -1.410  24.453  0.00  0.00    +0.000 A 
ATOM     30  C   UNL     1      -4.178  -1.606  23.883  0.00  0.00    +0.000 A 
ATOM     31  C   UNL     1      -4.407  -2.393  23.784  0.00  0.00    +0.000 A 
ATOM     32  C   UNL     1      -4.071  -2.983  24.254  0.00  0.00    +0.000 A 
ATOM     33  C   UNL     1      -3.507  -2.786  24.823  0.00  0.00    +0.000 A 
ATOM     34  C   UNL     1      -3.279  -2.000  24.922  0.00  0.00    +0.000 A 
ENDBRANCH  26  29
ENDBRANCH  22  23
ENDBRANCH  14  18
BRANCH  10   9
ATOM      9  O   UNL     1       0.875   0.689  23.020  0.00  0.00    -0.432 OA
BRANCH   9   7
ATOM      6  N   UNL     1       2.193   0.216  22.738  0.00  0.00    -0.142 NA
ATOM      7  C   UNL     1       1.687   0.709  23.163  0.00  0.00    +0.425 C 
ATOM      8  O   UNL     1       1.993   1.223  23.732  0.00  0.00    -0.224 OA
BRANCH   6   5
ATOM      1  C   UNL     1       5.443   0.297  23.307  0.00  0.00    +0.031 C 
ATOM      2  C   UNL     1       4.630   0.276  23.165  0.00  0.00    -0.022 A 
ATOM      3  C   UNL     1       4.266   0.899  22.763  0.00  0.00    -0.003 A 
ATOM      4  C   UNL     1       3.454   0.878  22.621  0.00  0.00    +0.016 A 
ATOM      5  C   UNL     1       3.006   0.236  22.880  0.00  0.00    +0.077 A 
ATOM     35  C   UNL     1       3.370  -0.386  23.281  0.00  0.00    +0.016 A 
ATOM     36  C   UNL     1       4.182  -0.366  23.423  0.00  0.00    -0.003 A 
ENDBRANCH   6   5
ENDBRANCH   9   7
ENDBRANCH  10   9
TORSDOF 6
ENDMDL
MODEL 7
REMARK VINA RESULT:     -11.3      1.657      3.777
REMARK  Name = 
REMARK  6 active torsions:
REMARK  status: ('A' for Active; 'I' for Inactive)
REMARK    1  A    between atoms: C_5  and  N_6
REMARK    2  A    between atoms: C_7  and  O_9
REMARK    3  A    between atoms: O_9  and  C_10
REMARK    4  A    between atoms: C_14  and  N_18
REMARK    5  A    between atoms: C_22  and  C_23
REMARK    6  A    between atoms: C_26  and  C_29
REMARK                            x       y       z     vdW  Elec       q    Type
REMARK                         _______ _______ _______ _____ _____    ______ ____
ROOT
ATOM     10  C   UNL     1      -4.270   2.045  24.963  0.00  0.00    +0.229 C 
ATOM     11  C   UNL     1      -4.161   2.213  25.763  0.00  0.00    +0.188 C 
ATOM     12  O   UNL     1      -3.596   2.811  25.822  0.00  0.00    -0.348 OA
ATOM     13  C   UNL     1      -3.356   3.013  25.060  0.00  0.00    +0.171 C 
ATOM     14  C   UNL     1      -2.860   3.507  24.624  0.00  0.00    +0.167 C 
ATOM     15  C   UNL     1      -2.969   3.338  23.824  0.00  0.00    +0.169 C 
ATOM     16  O   UNL     1      -3.534   2.740  23.765  0.00  0.00    -0.348 OA
ATOM     17  C   UNL     1      -3.773   2.539  24.529  0.00  0.00    +0.187 C 
ENDROOT
BRANCH  14  18
ATOM     18  N   UNL     1      -2.343   4.070  24.935  0.00  0.00    -0.210 N 
ATOM     19  N   UNL     1      -2.557   4.803  25.249  0.00  0.00    -0.043 NA
ATOM     20  N   UNL     1      -1.869   5.186  25.494  0.00  0.00    -0.023 NA
ATOM     21  N   UNL     1      -1.230   4.690  25.331  0.00  0.00    -0.108 NA
ATOM     22  C   UNL     1      -1.523   4.001  24.986  0.00  0.00    +0.184 A 
BRANCH  22  23
ATOM     23  C   UNL     1      -1.075   3.355  24.735  0.00  0.00    +0.037 A 
ATOM     24  C   UNL     1      -0.835   2.783  25.279  0.00  0.00    +0.003 A 
ATOM     25  C   UNL     1      -0.386   2.138  25.028  0.00  0.00    +0.000 A 
ATOM     26  C   UNL     1      -0.177   2.065  24.233  0.00  0.00    +0.000 A 
ATOM     27  C   UNL     1      -0.417   2.637  23.689  0.00  0.00    +0.000 A 
ATOM     28  C   UNL     1      -0.866   3.282  23.940  0.00  0.00    +0.003 A 
BRANCH  26  29
ATOM     29  C   UNL     1       0.271   1.420  23.981  0.00  0.00    +0.000 A 
ATOM     30  C   UNL     1       1.079   1.511  23.838  0.00  0.00    +0.000 A 
ATOM     31  C   UNL     1       1.528   0.866  23.586  0.00  0.00    +0.000 A 
ATOM     32  C   UNL     1       1.169   0.130  23.478  0.00  0.00    +0.000 A 
ATOM     33  C   UNL     1       0.362   0.040  23.622  0.00  0.00    +0.000 A 
ATOM     34  C   UNL     1      -0.087   0.685  23.873  0.00  0.00    +0.000 A 
ENDBRANCH  26  29
ENDBRANCH  22  23
ENDBRANCH  14  18
BRANCH  10   9
ATOM      9  O   UNL     1      -4.786   1.481  24.652  0.00  0.00    -0.432 OA
BRANCH   9   7
ATOM      6  N   UNL     1      -4.151   0.277  24.218  0.00  0.00    -0.142 NA
ATOM      7  C   UNL     1      -4.631   0.677  24.756  0.00  0.00    +0.425 C 
ATOM      8  O   UNL     1      -4.956   0.274  25.398  0.00  0.00    -0.224 OA
BRANCH   6   5
ATOM      1  C   UNL     1      -3.529  -2.938  24.629  0.00  0.00    +0.031 C 
ATOM      2  C   UNL     1      -3.684  -2.134  24.526  0.00  0.00    -0.022 A 
ATOM      3  C   UNL     1      -4.264  -1.891  23.992  0.00  0.00    -0.003 A 
ATOM      4  C   UNL     1      -4.419  -1.087  23.889  0.00  0.00    +0.016 A 
ATOM      5  C   UNL     1      -3.995  -0.527  24.321  0.00  0.00    +0.077 A 
ATOM     35  C   UNL     1      -3.416  -0.770  24.855  0.00  0.00    +0.016 A 
ATOM     36  C   UNL     1      -3.260  -1.574  24.958  0.00  0.00    -0.003 A 
ENDBRANCH   6   5
ENDBRANCH   9   7
ENDBRANCH  10   9
TORSDOF 6
ENDMDL
