MODEL 1
REMARK VINA RESULT:     -11.1      0.000      0.000
REMARK  Name = 
REMARK  7 active torsions:
REMARK  status: ('A' for Active; 'I' for Inactive)
REMARK    1  A    between atoms: C_3  and  N_18
REMARK    2  A    between atoms: C_6  and  C_7
REMARK    3  A    between atoms: C_7  and  N_8
REMARK    4  A    between atoms: N_8  and  S_9
REMARK    5  A    between atoms: S_9  and  C_12
REMARK    6  A    between atoms: N_18  and  C_19
REMARK    7  A    between atoms: C_19  and  C_20
REMARK                            x       y       z     vdW  Elec       q    Type
REMARK                         _______ _______ _______ _____ _____    ______ ____
ROOT
ATOM      1  O   UNL     1      -2.969   1.099  23.738  0.00  0.00    -0.219 OA
ATOM      2  C   UNL     1      -3.561   1.219  24.300  0.00  0.00    +0.199 C 
ATOM      3  C   UNL     1      -4.092   0.651  24.574  0.00  0.00    +0.135 C 
ATOM      4  C   UNL     1      -4.584   1.009  25.130  0.00  0.00    +0.162 C 
ATOM      5  O   UNL     1      -4.357   1.798  25.201  0.00  0.00    -0.350 OA
ATOM      6  C   UNL     1      -3.724   1.929  24.689  0.00  0.00    +0.166 C 
ENDROOT
BRANCH   6   7
ATOM      7  C   UNL     1      -3.325   2.642  24.582  0.00  0.00    +0.148 C 
BRANCH   7   8
ATOM      8  N   UNL     1      -3.102   3.091  25.237  0.00  0.00    -0.075 NA
BRANCH   8   9
ATOM      9  S   UNL     1      -2.516   3.667  25.163  0.00  0.00    +0.077 S 
ATOM     10  O   UNL     1      -2.078   3.299  25.758  0.00  0.00    -0.152 OA
ATOM     11  O   UNL     1      -2.953   4.035  24.567  0.00  0.00    -0.152 OA
BRANCH   9  12
ATOM     12  C   UNL     1      -1.930   4.243  25.088  0.00  0.00    +0.124 A 
ATOM     13  C   UNL     1      -2.119   5.040  25.190  0.00  0.00    +0.020 A 
ATOM     14  C   UNL     1      -1.533   5.615  25.115  0.00  0.00    +0.001 A 
ATOM     15  C   UNL     1      -0.758   5.395  24.938  0.00  0.00    +0.000 A 
ATOM     16  C   UNL     1      -0.569   4.599  24.835  0.00  0.00    +0.001 A 
ATOM     17  C   UNL     1      -1.155   4.023  24.910  0.00  0.00    +0.020 A 
ENDBRANCH   9  12
ENDBRANCH   8   9
ENDBRANCH   7   8
ENDBRANCH   6   7
BRANCH   3  18
ATOM     18  N   UNL     1      -4.126  -0.138  24.332  0.00  0.00    -0.209 NA
BRANCH  18  19
ATOM     19  C   UNL     1      -4.107  -0.743  24.893  0.00  0.00    +0.117 C 
BRANCH  19  20
ATOM     20  C   UNL     1      -3.971  -1.521  24.657  0.00  0.00    +0.023 A 
ATOM     21  C   UNL     1      -4.254  -1.787  23.928  0.00  0.00    -0.001 A 
ATOM     22  C   UNL     1      -4.118  -2.565  23.692  0.00  0.00    -0.000 A 
ATOM     23  C   UNL     1      -3.699  -3.078  24.184  0.00  0.00    +0.002 A 
ATOM     24  C   UNL     1      -3.416  -2.813  24.912  0.00  0.00    +0.029 A 
ATOM     25  C   UNL     1      -3.552  -2.034  25.148  0.00  0.00    +0.137 A 
ATOM     26  F   UNL     1      -3.269  -1.769  25.876  0.00  0.00    -0.204 F 
ENDBRANCH  19  20
ENDBRANCH  18  19
ENDBRANCH   3  18
TORSDOF 7
ENDMDL
MODEL 2
REMARK VINA RESULT:     -10.6      2.202      6.025
REMARK  Name = 
REMARK  7 active torsions:
REMARK  status: ('A' for Active; 'I' for Inactive)
REMARK    1  A    between atoms: C_3  and  N_18
REMARK    2  A    between atoms: C_6  and  C_7
REMARK    3  A    between atoms: C_7  and  N_8
REMARK    4  A    between atoms: N_8  and  S_9
REMARK    5  A    between atoms: S_9  and  C_12
REMARK    6  A    between atoms: N_18  and  C_19
REMARK    7  A    between atoms: C_19  and  C_20
REMARK                            x       y       z     vdW  Elec       q    Type
REMARK                         _______ _______ _______ _____ _____    ______ ____
ROOT
ATOM      1  O   UNL     1      -1.847   1.518  23.899  0.00  0.00    -0.219 OA
ATOM      2  C   UNL     1      -1.484   1.349  24.620  0.00  0.00    +0.199 C 
ATOM      3  C   UNL     1      -1.086   1.889  25.101  0.00  0.00    +0.135 C 
ATOM      4  C   UNL     1      -0.811   1.484  25.765  0.00  0.00    +0.162 C 
ATOM      5  O   UNL     1      -1.038   0.694  25.694  0.00  0.00    -0.350 OA
ATOM      6  C   UNL     1      -1.454   0.610  24.987  0.00  0.00    +0.166 C 
ENDROOT
BRANCH   6   7
ATOM      7  C   UNL     1      -1.782  -0.088  24.698  0.00  0.00    +0.148 C 
BRANCH   7   8
ATOM      8  N   UNL     1      -2.152  -0.615  25.214  0.00  0.00    -0.075 NA
BRANCH   8   9
ATOM      9  S   UNL     1      -2.652  -1.201  24.917  0.00  0.00    +0.077 S 
ATOM     10  O   UNL     1      -2.027  -1.511  24.475  0.00  0.00    -0.152 OA
ATOM     11  O   UNL     1      -3.276  -0.892  25.359  0.00  0.00    -0.152 OA
BRANCH   9  12
ATOM     12  C   UNL     1      -3.151  -1.786  24.621  0.00  0.00    +0.124 A 
ATOM     13  C   UNL     1      -3.793  -1.580  24.146  0.00  0.00    +0.020 A 
ATOM     14  C   UNL     1      -4.293  -2.165  23.850  0.00  0.00    +0.001 A 
ATOM     15  C   UNL     1      -4.152  -2.958  24.028  0.00  0.00    +0.000 A 
ATOM     16  C   UNL     1      -3.510  -3.165  24.504  0.00  0.00    +0.001 A 
ATOM     17  C   UNL     1      -3.010  -2.580  24.800  0.00  0.00    +0.020 A 
ENDBRANCH   9  12
ENDBRANCH   8   9
ENDBRANCH   7   8
ENDBRANCH   6   7
BRANCH   3  18
ATOM     18  N   UNL     1      -0.982   2.692  24.945  0.00  0.00    -0.209 NA
BRANCH  18  19
ATOM     19  C   UNL     1      -1.223   3.255  25.499  0.00  0.00    +0.117 C 
BRANCH  19  20
ATOM     20  C   UNL     1      -1.237   4.054  25.296  0.00  0.00    +0.023 A 
ATOM     21  C   UNL     1      -0.614   4.381  24.865  0.00  0.00    -0.001 A 
ATOM     22  C   UNL     1      -0.628   5.181  24.662  0.00  0.00    -0.000 A 
ATOM     23  C   UNL     1      -1.264   5.653  24.891  0.00  0.00    +0.002 A 
ATOM     24  C   UNL     1      -1.887   5.326  25.323  0.00  0.00    +0.029 A 
ATOM     25  C   UNL     1      -1.873   4.526  25.526  0.00  0.00    +0.137 A 
ATOM     26  F   UNL     1      -2.495   4.200  25.957  0.00  0.00    -0.204 F 
ENDBRANCH  19  20
ENDBRANCH  18  19
ENDBRANCH   3  18
TORSDOF 7
ENDMDL
MODEL 3
REMARK VINA RESULT:     -10.0      1.476      1.687
REMARK  Name = 
REMARK  7 active torsions:
REMARK  status: ('A' for Active; 'I' for Inactive)
REMARK    1  A    between atoms: C_3  and  N_18
REMARK    2  A    between atoms: C_6  and  C_7
REMARK    3  A    between atoms: C_7  and  N_8
REMARK    4  A    between atoms: N_8  and  S_9
REMARK    5  A    between atoms: S_9  and  C_12
REMARK    6  A    between atoms: N_18  and  C_19
REMARK    7  A    between atoms: C_19  and  C_20
REMARK                            x       y       z     vdW  Elec       q    Type
REMARK                         _______ _______ _______ _____ _____    ______ ____
ROOT
ATOM      1  O   UNL     1      -1.954   0.863  23.745  0.00  0.00    -0.219 OA
ATOM      2  C   UNL     1      -1.706   0.641  24.500  0.00  0.00    +0.199 C 
ATOM      3  C   UNL     1      -1.814  -0.099  24.848  0.00  0.00    +0.135 C 
ATOM      4  C   UNL     1      -1.481  -0.076  25.602  0.00  0.00    +0.162 C 
ATOM      5  O   UNL     1      -1.169   0.678  25.721  0.00  0.00    -0.350 OA
ATOM      6  C   UNL     1      -1.307   1.122  25.040  0.00  0.00    +0.166 C 
ENDROOT
BRANCH   6   7
ATOM      7  C   UNL     1      -1.087   1.907  24.920  0.00  0.00    +0.148 C 
BRANCH   7   8
ATOM      8  N   UNL     1      -1.101   2.440  25.549  0.00  0.00    -0.075 NA
BRANCH   8   9
ATOM      9  S   UNL     1      -1.159   3.250  25.402  0.00  0.00    +0.077 S 
ATOM     10  O   UNL     1      -0.433   3.231  25.010  0.00  0.00    -0.152 OA
ATOM     11  O   UNL     1      -1.885   3.270  25.794  0.00  0.00    -0.152 OA
BRANCH   9  12
ATOM     12  C   UNL     1      -1.217   4.059  25.255  0.00  0.00    +0.124 A 
ATOM     13  C   UNL     1      -1.899   4.471  25.472  0.00  0.00    +0.020 A 
ATOM     14  C   UNL     1      -1.957   5.280  25.325  0.00  0.00    +0.001 A 
ATOM     15  C   UNL     1      -1.334   5.680  24.962  0.00  0.00    +0.000 A 
ATOM     16  C   UNL     1      -0.652   5.269  24.746  0.00  0.00    +0.001 A 
ATOM     17  C   UNL     1      -0.593   4.459  24.892  0.00  0.00    +0.020 A 
ENDBRANCH   9  12
ENDBRANCH   8   9
ENDBRANCH   7   8
ENDBRANCH   6   7
BRANCH   3  18
ATOM     18  N   UNL     1      -2.188  -0.748  24.501  0.00  0.00    -0.209 NA
BRANCH  18  19
ATOM     19  C   UNL     1      -2.626  -1.269  24.967  0.00  0.00    +0.117 C 
BRANCH  19  20
ATOM     20  C   UNL     1      -3.173  -1.776  24.616  0.00  0.00    +0.023 A 
ATOM     21  C   UNL     1      -3.819  -1.466  24.206  0.00  0.00    -0.001 A 
ATOM     22  C   UNL     1      -4.367  -1.973  23.856  0.00  0.00    -0.000 A 
ATOM     23  C   UNL     1      -4.269  -2.790  23.915  0.00  0.00    +0.002 A 
ATOM     24  C   UNL     1      -3.624  -3.100  24.325  0.00  0.00    +0.029 A 
ATOM     25  C   UNL     1      -3.076  -2.593  24.676  0.00  0.00    +0.137 A 
ATOM     26  F   UNL     1      -2.431  -2.903  25.086  0.00  0.00    -0.204 F 
ENDBRANCH  19  20
ENDBRANCH  18  19
ENDBRANCH   3  18
TORSDOF 7
ENDMDL
MODEL 4
REMARK VINA RESULT:      -8.3      3.825      5.190
REMARK  Name = 
REMARK  7 active torsions:
REMARK  status: ('A' for Active; 'I' for Inactive)
REMARK    1  A    between atoms: C_3  and  N_18
REMARK    2  A    between atoms: C_6  and  C_7
REMARK    3  A    between atoms: C_7  and  N_8
REMARK    4  A    between atoms: N_8  and  S_9
REMARK    5  A    between atoms: S_9  and  C_12
REMARK    6  A    between atoms: N_18  and  C_19
REMARK    7  A    between atoms: C_19  and  C_20
REMARK                            x       y       z     vdW  Elec       q    Type
REMARK                         _______ _______ _______ _____ _____    ______ ____
ROOT
ATOM      1  O   UNL     1      -0.397   1.854  23.902  0.00  0.00    -0.219 OA
ATOM      2  C   UNL     1      -0.503   1.037  23.942  0.00  0.00    +0.199 C 
ATOM      3  C   UNL     1       0.065   0.465  23.764  0.00  0.00    +0.135 C 
ATOM      4  C   UNL     1      -0.277  -0.277  23.879  0.00  0.00    +0.162 C 
ATOM      5  O   UNL     1      -1.055  -0.164  24.127  0.00  0.00    -0.350 OA
ATOM      6  C   UNL     1      -1.195   0.648  24.167  0.00  0.00    +0.166 C 
ENDROOT
BRANCH   6   7
ATOM      7  C   UNL     1      -1.902   1.008  24.391  0.00  0.00    +0.148 C 
BRANCH   7   8
ATOM      8  N   UNL     1      -2.617   0.607  24.294  0.00  0.00    -0.075 NA
BRANCH   8   9
ATOM      9  S   UNL     1      -3.330   0.992  24.454  0.00  0.00    +0.077 S 
ATOM     10  O   UNL     1      -3.527   0.959  23.653  0.00  0.00    -0.152 OA
ATOM     11  O   UNL     1      -3.133   1.025  25.254  0.00  0.00    -0.152 OA
BRANCH   9  12
ATOM     12  C   UNL     1      -4.042   1.375  24.613  0.00  0.00    +0.124 A 
ATOM     13  C   UNL     1      -4.691   0.945  24.886  0.00  0.00    +0.020 A 
ATOM     14  C   UNL     1      -5.403   1.328  25.046  0.00  0.00    +0.001 A 
ATOM     15  C   UNL     1      -5.468   2.143  24.933  0.00  0.00    +0.000 A 
ATOM     16  C   UNL     1      -4.819   2.574  24.661  0.00  0.00    +0.001 A 
ATOM     17  C   UNL     1      -4.106   2.190  24.501  0.00  0.00    +0.020 A 
ENDBRANCH   9  12
ENDBRANCH   8   9
ENDBRANCH   7   8
ENDBRANCH   6   7
BRANCH   3  18
ATOM     18  N   UNL     1       0.838   0.610  23.515  0.00  0.00    -0.209 NA
BRANCH  18  19
ATOM     19  C   UNL     1       1.211   0.086  22.999  0.00  0.00    +0.117 C 
BRANCH  19  20
ATOM     20  C   UNL     1       1.986   0.227  22.756  0.00  0.00    +0.023 A 
ATOM     21  C   UNL     1       2.510   0.624  23.255  0.00  0.00    -0.001 A 
ATOM     22  C   UNL     1       3.285   0.764  23.013  0.00  0.00    -0.000 A 
ATOM     23  C   UNL     1       3.538   0.508  22.271  0.00  0.00    +0.002 A 
ATOM     24  C   UNL     1       3.015   0.111  21.771  0.00  0.00    +0.029 A 
ATOM     25  C   UNL     1       2.239  -0.030  22.014  0.00  0.00    +0.137 A 
ATOM     26  F   UNL     1       1.717  -0.427  21.514  0.00  0.00    -0.204 F 
ENDBRANCH  19  20
ENDBRANCH  18  19
ENDBRANCH   3  18
TORSDOF 7
ENDMDL
MODEL 5
REMARK VINA RESULT:      -8.0      3.521      4.628
REMARK  Name = 
REMARK  7 active torsions:
REMARK  status: ('A' for Active; 'I' for Inactive)
REMARK    1  A    between atoms: C_3  and  N_18
REMARK    2  A    between atoms: C_6  and  C_7
REMARK    3  A    between atoms: C_7  and  N_8
REMARK    4  A    between atoms: N_8  and  S_9
REMARK    5  A    between atoms: S_9  and  C_12
REMARK    6  A    between atoms: N_18  and  C_19
REMARK    7  A    between atoms: C_19  and  C_20
REMARK                            x       y       z     vdW  Elec       q    Type
REMARK                         _______ _______ _______ _____ _____    ______ ____
ROOT
ATOM      1  O   UNL     1      -1.928   1.869  23.142  0.00  0.00    -0.219 OA
ATOM      2  C   UNL     1      -1.861   1.389  23.809  0.00  0.00    +0.199 C 
ATOM      3  C   UNL     1      -2.427   1.301  24.403  0.00  0.00    +0.135 C 
ATOM      4  C   UNL     1      -2.131   0.770  24.960  0.00  0.00    +0.162 C 
ATOM      5  O   UNL     1      -1.382   0.530  24.711  0.00  0.00    -0.350 OA
ATOM      6  C   UNL     1      -1.215   0.912  24.000  0.00  0.00    +0.166 C 
ENDROOT
BRANCH   6   7
ATOM      7  C   UNL     1      -0.523   0.833  23.558  0.00  0.00    +0.148 C 
BRANCH   7   8
ATOM      8  N   UNL     1       0.107   0.392  23.854  0.00  0.00    -0.075 NA
BRANCH   8   9
ATOM      9  S   UNL     1       0.807   0.330  23.421  0.00  0.00    +0.077 S 
ATOM     10  O   UNL     1       0.576  -0.416  23.153  0.00  0.00    -0.152 OA
ATOM     11  O   UNL     1       1.039   1.075  23.690  0.00  0.00    -0.152 OA
BRANCH   9  12
ATOM     12  C   UNL     1       1.507   0.268  22.989  0.00  0.00    +0.124 A 
ATOM     13  C   UNL     1       2.191   0.647  23.254  0.00  0.00    +0.020 A 
ATOM     14  C   UNL     1       2.890   0.585  22.822  0.00  0.00    +0.001 A 
ATOM     15  C   UNL     1       2.907   0.146  22.124  0.00  0.00    +0.000 A 
ATOM     16  C   UNL     1       2.224  -0.232  21.858  0.00  0.00    +0.001 A 
ATOM     17  C   UNL     1       1.523  -0.171  22.291  0.00  0.00    +0.020 A 
ENDBRANCH   9  12
ENDBRANCH   8   9
ENDBRANCH   7   8
ENDBRANCH   6   7
BRANCH   3  18
ATOM     18  N   UNL     1      -3.161   1.678  24.433  0.00  0.00    -0.209 NA
BRANCH  18  19
ATOM     19  C   UNL     1      -3.756   1.383  24.923  0.00  0.00    +0.117 C 
BRANCH  19  20
ATOM     20  C   UNL     1      -4.447   1.817  25.038  0.00  0.00    +0.023 A 
ATOM     21  C   UNL     1      -4.405   2.620  25.224  0.00  0.00    -0.001 A 
ATOM     22  C   UNL     1      -5.097   3.054  25.339  0.00  0.00    -0.000 A 
ATOM     23  C   UNL     1      -5.832   2.685  25.269  0.00  0.00    +0.002 A 
ATOM     24  C   UNL     1      -5.874   1.882  25.083  0.00  0.00    +0.029 A 
ATOM     25  C   UNL     1      -5.182   1.448  24.968  0.00  0.00    +0.137 A 
ATOM     26  F   UNL     1      -5.225   0.646  24.782  0.00  0.00    -0.204 F 
ENDBRANCH  19  20
ENDBRANCH  18  19
ENDBRANCH   3  18
TORSDOF 7
ENDMDL
