MODEL 1
REMARK VINA RESULT:     -10.7      0.000      0.000
REMARK  Name = 
REMARK  6 active torsions:
REMARK  status: ('A' for Active; 'I' for Inactive)
REMARK    1  A    between atoms: C_3  and  N_17
REMARK    2  A    between atoms: C_6  and  C_7
REMARK    3  A    between atoms: C_7  and  N_8
REMARK    4  A    between atoms: C_9  and  C_11
REMARK    5  A    between atoms: N_17  and  C_18
REMARK    6  A    between atoms: C_18  and  C_19
REMARK                            x       y       z     vdW  Elec       q    Type
REMARK                         _______ _______ _______ _____ _____    ______ ____
ROOT
ATOM      1  O   UNL     1      -1.069   1.102  23.768  0.00  0.00    -0.219 OA
ATOM      2  C   UNL     1      -1.027   0.983  24.583  0.00  0.00    +0.199 C 
ATOM      3  C   UNL     1      -0.927   1.570  25.154  0.00  0.00    +0.135 C 
ATOM      4  C   UNL     1      -0.916   1.207  25.894  0.00  0.00    +0.162 C 
ATOM      5  O   UNL     1      -1.009   0.395  25.781  0.00  0.00    -0.350 OA
ATOM      6  C   UNL     1      -1.078   0.256  24.971  0.00  0.00    +0.169 C 
ENDROOT
BRANCH   6   7
ATOM      7  C   UNL     1      -1.179  -0.478  24.612  0.00  0.00    +0.148 C 
BRANCH   7   8
ATOM      8  N   UNL     1      -1.926  -0.828  24.591  0.00  0.00    -0.199 NA
ATOM      9  C   UNL     1      -2.009  -1.611  24.345  0.00  0.00    +0.265 C 
ATOM     10  O   UNL     1      -1.344  -2.045  24.120  0.00  0.00    -0.268 OA
BRANCH   9  11
ATOM     11  C   UNL     1      -2.756  -1.961  24.325  0.00  0.00    +0.055 A 
ATOM     12  C   UNL     1      -2.879  -2.692  24.687  0.00  0.00    +0.005 A 
ATOM     13  C   UNL     1      -3.626  -3.041  24.667  0.00  0.00    +0.000 A 
ATOM     14  C   UNL     1      -4.250  -2.659  24.284  0.00  0.00    +0.000 A 
ATOM     15  C   UNL     1      -4.127  -1.928  23.922  0.00  0.00    +0.000 A 
ATOM     16  C   UNL     1      -3.380  -1.579  23.942  0.00  0.00    +0.005 A 
ENDBRANCH   9  11
ENDBRANCH   7   8
ENDBRANCH   6   7
BRANCH   3  17
ATOM     17  N   UNL     1      -0.852   2.379  25.010  0.00  0.00    -0.209 NA
BRANCH  17  18
ATOM     18  C   UNL     1      -1.018   2.923  25.608  0.00  0.00    +0.115 C 
BRANCH  18  19
ATOM     19  C   UNL     1      -1.151   3.715  25.421  0.00  0.00    -0.005 A 
ATOM     20  C   UNL     1      -0.559   4.157  25.053  0.00  0.00    -0.001 A 
ATOM     21  C   UNL     1      -0.692   4.949  24.866  0.00  0.00    +0.029 A 
ATOM     22  C   UNL     1      -1.416   5.299  25.047  0.00  0.00    +0.140 A 
ATOM     23  F   UNL     1      -1.549   6.092  24.860  0.00  0.00    -0.204 F 
ATOM     24  C   UNL     1      -2.008   4.858  25.415  0.00  0.00    +0.029 A 
ATOM     25  C   UNL     1      -1.875   4.065  25.603  0.00  0.00    -0.001 A 
ENDBRANCH  18  19
ENDBRANCH  17  18
ENDBRANCH   3  17
TORSDOF 6
ENDMDL
MODEL 2
REMARK VINA RESULT:     -10.7      2.742      6.262
REMARK  Name = 
REMARK  6 active torsions:
REMARK  status: ('A' for Active; 'I' for Inactive)
REMARK    1  A    between atoms: C_3  and  N_17
REMARK    2  A    between atoms: C_6  and  C_7
REMARK    3  A    between atoms: C_7  and  N_8
REMARK    4  A    between atoms: C_9  and  C_11
REMARK    5  A    between atoms: N_17  and  C_18
REMARK    6  A    between atoms: C_18  and  C_19
REMARK                            x       y       z     vdW  Elec       q    Type
REMARK                         _______ _______ _______ _____ _____    ______ ____
ROOT
ATOM      1  O   UNL     1      -4.028   1.196  25.617  0.00  0.00    -0.219 OA
ATOM      2  C   UNL     1      -3.810   1.324  24.832  0.00  0.00    +0.199 C 
ATOM      3  C   UNL     1      -3.795   0.756  24.234  0.00  0.00    +0.135 C 
ATOM      4  C   UNL     1      -3.544   1.123  23.540  0.00  0.00    +0.162 C 
ATOM      5  O   UNL     1      -3.403   1.918  23.708  0.00  0.00    -0.350 OA
ATOM      6  C   UNL     1      -3.567   2.043  24.507  0.00  0.00    +0.169 C 
ENDROOT
BRANCH   6   7
ATOM      7  C   UNL     1      -3.501   2.759  24.909  0.00  0.00    +0.148 C 
BRANCH   7   8
ATOM      8  N   UNL     1      -2.835   3.233  24.800  0.00  0.00    -0.199 NA
ATOM      9  C   UNL     1      -2.707   3.884  25.292  0.00  0.00    +0.265 C 
ATOM     10  O   UNL     1      -3.245   4.059  25.892  0.00  0.00    -0.268 OA
BRANCH   9  11
ATOM     11  C   UNL     1      -2.040   4.358  25.183  0.00  0.00    +0.055 A 
ATOM     12  C   UNL     1      -1.294   4.012  25.117  0.00  0.00    +0.005 A 
ATOM     13  C   UNL     1      -0.628   4.486  25.008  0.00  0.00    +0.000 A 
ATOM     14  C   UNL     1      -0.708   5.306  24.965  0.00  0.00    +0.000 A 
ATOM     15  C   UNL     1      -1.454   5.652  25.030  0.00  0.00    +0.000 A 
ATOM     16  C   UNL     1      -2.120   5.178  25.139  0.00  0.00    +0.005 A 
ENDBRANCH   9  11
ENDBRANCH   7   8
ENDBRANCH   6   7
BRANCH   3  17
ATOM     17  N   UNL     1      -3.996  -0.041  24.317  0.00  0.00    -0.209 NA
BRANCH  17  18
ATOM     18  C   UNL     1      -3.629  -0.610  23.846  0.00  0.00    +0.115 C 
BRANCH  18  19
ATOM     19  C   UNL     1      -3.663  -1.406  24.059  0.00  0.00    -0.005 A 
ATOM     20  C   UNL     1      -3.080  -1.728  24.547  0.00  0.00    -0.001 A 
ATOM     21  C   UNL     1      -3.114  -2.524  24.760  0.00  0.00    +0.029 A 
ATOM     22  C   UNL     1      -3.730  -2.998  24.486  0.00  0.00    +0.140 A 
ATOM     23  F   UNL     1      -3.764  -3.795  24.699  0.00  0.00    -0.204 F 
ATOM     24  C   UNL     1      -4.313  -2.677  23.998  0.00  0.00    +0.029 A 
ATOM     25  C   UNL     1      -4.279  -1.881  23.785  0.00  0.00    -0.001 A 
ENDBRANCH  18  19
ENDBRANCH  17  18
ENDBRANCH   3  17
TORSDOF 6
ENDMDL
MODEL 3
REMARK VINA RESULT:     -10.6      2.104      5.813
REMARK  Name = 
REMARK  6 active torsions:
REMARK  status: ('A' for Active; 'I' for Inactive)
REMARK    1  A    between atoms: C_3  and  N_17
REMARK    2  A    between atoms: C_6  and  C_7
REMARK    3  A    between atoms: C_7  and  N_8
REMARK    4  A    between atoms: C_9  and  C_11
REMARK    5  A    between atoms: N_17  and  C_18
REMARK    6  A    between atoms: C_18  and  C_19
REMARK                            x       y       z     vdW  Elec       q    Type
REMARK                         _______ _______ _______ _____ _____    ______ ____
ROOT
ATOM      1  O   UNL     1      -1.351   0.630  23.701  0.00  0.00    -0.219 OA
ATOM      2  C   UNL     1      -1.277   0.533  24.517  0.00  0.00    +0.199 C 
ATOM      3  C   UNL     1      -1.562  -0.103  24.958  0.00  0.00    +0.135 C 
ATOM      4  C   UNL     1      -1.367   0.028  25.749  0.00  0.00    +0.162 C 
ATOM      5  O   UNL     1      -0.961   0.744  25.797  0.00  0.00    -0.350 OA
ATOM      6  C   UNL     1      -0.906   1.057  25.036  0.00  0.00    +0.169 C 
ENDROOT
BRANCH   6   7
ATOM      7  C   UNL     1      -0.543   1.768  24.829  0.00  0.00    +0.148 C 
BRANCH   7   8
ATOM      8  N   UNL     1      -0.919   2.485  24.989  0.00  0.00    -0.199 NA
ATOM      9  C   UNL     1      -0.561   3.196  24.771  0.00  0.00    +0.265 C 
ATOM     10  O   UNL     1       0.172   3.190  24.393  0.00  0.00    -0.268 OA
BRANCH   9  11
ATOM     11  C   UNL     1      -0.937   3.913  24.931  0.00  0.00    +0.055 A 
ATOM     12  C   UNL     1      -0.581   4.623  24.710  0.00  0.00    +0.005 A 
ATOM     13  C   UNL     1      -0.957   5.340  24.870  0.00  0.00    +0.000 A 
ATOM     14  C   UNL     1      -1.689   5.346  25.252  0.00  0.00    +0.000 A 
ATOM     15  C   UNL     1      -2.045   4.635  25.474  0.00  0.00    +0.000 A 
ATOM     16  C   UNL     1      -1.669   3.918  25.313  0.00  0.00    +0.005 A 
ENDBRANCH   9  11
ENDBRANCH   7   8
ENDBRANCH   6   7
BRANCH   3  17
ATOM     17  N   UNL     1      -1.971  -0.755  24.660  0.00  0.00    -0.209 NA
BRANCH  17  18
ATOM     18  C   UNL     1      -2.617  -1.060  25.072  0.00  0.00    +0.115 C 
BRANCH  18  19
ATOM     19  C   UNL     1      -3.141  -1.575  24.697  0.00  0.00    -0.005 A 
ATOM     20  C   UNL     1      -3.008  -2.389  24.719  0.00  0.00    -0.001 A 
ATOM     21  C   UNL     1      -3.531  -2.903  24.344  0.00  0.00    +0.029 A 
ATOM     22  C   UNL     1      -4.188  -2.604  23.945  0.00  0.00    +0.140 A 
ATOM     23  F   UNL     1      -4.712  -3.119  23.568  0.00  0.00    -0.204 F 
ATOM     24  C   UNL     1      -4.322  -1.790  23.921  0.00  0.00    +0.029 A 
ATOM     25  C   UNL     1      -3.798  -1.275  24.298  0.00  0.00    -0.001 A 
ENDBRANCH  18  19
ENDBRANCH  17  18
ENDBRANCH   3  17
TORSDOF 6
ENDMDL
MODEL 4
REMARK VINA RESULT:     -10.6      1.850      2.136
REMARK  Name = 
REMARK  6 active torsions:
REMARK  status: ('A' for Active; 'I' for Inactive)
REMARK    1  A    between atoms: C_3  and  N_17
REMARK    2  A    between atoms: C_6  and  C_7
REMARK    3  A    between atoms: C_7  and  N_8
REMARK    4  A    between atoms: C_9  and  C_11
REMARK    5  A    between atoms: N_17  and  C_18
REMARK    6  A    between atoms: C_18  and  C_19
REMARK                            x       y       z     vdW  Elec       q    Type
REMARK                         _______ _______ _______ _____ _____    ______ ____
ROOT
ATOM      1  O   UNL     1      -3.136   1.716  23.593  0.00  0.00    -0.219 OA
ATOM      2  C   UNL     1      -3.521   1.803  24.318  0.00  0.00    +0.199 C 
ATOM      3  C   UNL     1      -3.440   2.439  24.837  0.00  0.00    +0.135 C 
ATOM      4  C   UNL     1      -3.924   2.298  25.490  0.00  0.00    +0.162 C 
ATOM      5  O   UNL     1      -4.304   1.575  25.374  0.00  0.00    -0.350 OA
ATOM      6  C   UNL     1      -4.056   1.269  24.650  0.00  0.00    +0.169 C 
ENDROOT
BRANCH   6   7
ATOM      7  C   UNL     1      -4.298   0.555  24.317  0.00  0.00    +0.148 C 
BRANCH   7   8
ATOM      8  N   UNL     1      -3.941  -0.151  24.550  0.00  0.00    -0.199 NA
ATOM      9  C   UNL     1      -4.272  -0.874  24.329  0.00  0.00    +0.265 C 
ATOM     10  O   UNL     1      -4.960  -0.890  23.875  0.00  0.00    -0.268 OA
BRANCH   9  11
ATOM     11  C   UNL     1      -3.915  -1.580  24.562  0.00  0.00    +0.055 A 
ATOM     12  C   UNL     1      -3.600  -1.652  25.322  0.00  0.00    +0.005 A 
ATOM     13  C   UNL     1      -3.243  -2.358  25.555  0.00  0.00    +0.000 A 
ATOM     14  C   UNL     1      -3.200  -2.992  25.029  0.00  0.00    +0.000 A 
ATOM     15  C   UNL     1      -3.515  -2.921  24.269  0.00  0.00    +0.000 A 
ATOM     16  C   UNL     1      -3.872  -2.215  24.036  0.00  0.00    +0.005 A 
ENDBRANCH   9  11
ENDBRANCH   7   8
ENDBRANCH   6   7
BRANCH   3  17
ATOM     17  N   UNL     1      -2.960   3.100  24.722  0.00  0.00    -0.209 NA
BRANCH  17  18
ATOM     18  C   UNL     1      -2.541   3.421  25.357  0.00  0.00    +0.115 C 
BRANCH  18  19
ATOM     19  C   UNL     1      -1.970   4.001  25.224  0.00  0.00    -0.005 A 
ATOM     20  C   UNL     1      -2.178   4.799  25.247  0.00  0.00    -0.001 A 
ATOM     21  C   UNL     1      -1.607   5.378  25.114  0.00  0.00    +0.029 A 
ATOM     22  C   UNL     1      -0.827   5.160  24.958  0.00  0.00    +0.140 A 
ATOM     23  F   UNL     1      -0.255   5.740  24.825  0.00  0.00    -0.204 F 
ATOM     24  C   UNL     1      -0.618   4.363  24.935  0.00  0.00    +0.029 A 
ATOM     25  C   UNL     1      -1.190   3.783  25.068  0.00  0.00    -0.001 A 
ENDBRANCH  18  19
ENDBRANCH  17  18
ENDBRANCH   3  17
TORSDOF 6
ENDMDL
MODEL 5
REMARK VINA RESULT:      -8.8      3.610      4.524
REMARK  Name = 
REMARK  6 active torsions:
REMARK  status: ('A' for Active; 'I' for Inactive)
REMARK    1  A    between atoms: C_3  and  N_17
REMARK    2  A    between atoms: C_6  and  C_7
REMARK    3  A    between atoms: C_7  and  N_8
REMARK    4  A    between atoms: C_9  and  C_11
REMARK    5  A    between atoms: N_17  and  C_18
REMARK    6  A    between atoms: C_18  and  C_19
REMARK                            x       y       z     vdW  Elec       q    Type
REMARK                         _______ _______ _______ _____ _____    ______ ____
ROOT
ATOM      1  O   UNL     1       0.615   1.567  24.217  0.00  0.00    -0.219 OA
ATOM      2  C   UNL     1       0.488   0.854  23.822  0.00  0.00    +0.199 C 
ATOM      3  C   UNL     1       1.048   0.436  23.383  0.00  0.00    +0.135 C 
ATOM      4  C   UNL     1       0.684  -0.242  23.086  0.00  0.00    +0.162 C 
ATOM      5  O   UNL     1      -0.100  -0.244  23.341  0.00  0.00    -0.350 OA
ATOM      6  C   UNL     1      -0.222   0.433  23.796  0.00  0.00    +0.169 C 
ENDROOT
BRANCH   6   7
ATOM      7  C   UNL     1      -0.928   0.652  24.160  0.00  0.00    +0.148 C 
BRANCH   7   8
ATOM      8  N   UNL     1      -1.529   0.096  24.263  0.00  0.00    -0.199 NA
ATOM      9  C   UNL     1      -2.237   0.316  24.625  0.00  0.00    +0.265 C 
ATOM     10  O   UNL     1      -2.344   1.091  24.884  0.00  0.00    -0.268 OA
BRANCH   9  11
ATOM     11  C   UNL     1      -2.838  -0.240  24.727  0.00  0.00    +0.055 A 
ATOM     12  C   UNL     1      -3.442  -0.302  24.169  0.00  0.00    +0.005 A 
ATOM     13  C   UNL     1      -4.043  -0.858  24.271  0.00  0.00    +0.000 A 
ATOM     14  C   UNL     1      -4.039  -1.353  24.932  0.00  0.00    +0.000 A 
ATOM     15  C   UNL     1      -3.435  -1.291  25.491  0.00  0.00    +0.000 A 
ATOM     16  C   UNL     1      -2.834  -0.735  25.388  0.00  0.00    +0.005 A 
ENDBRANCH   9  11
ENDBRANCH   7   8
ENDBRANCH   6   7
BRANCH   3  17
ATOM     17  N   UNL     1       1.833   0.658  23.262  0.00  0.00    -0.209 NA
BRANCH  17  18
ATOM     18  C   UNL     1       2.337   0.173  22.824  0.00  0.00    +0.115 C 
BRANCH  18  19
ATOM     19  C   UNL     1       3.154   0.252  22.897  0.00  0.00    -0.005 A 
ATOM     20  C   UNL     1       3.530   0.932  22.618  0.00  0.00    -0.001 A 
ATOM     21  C   UNL     1       4.347   1.012  22.691  0.00  0.00    +0.029 A 
ATOM     22  C   UNL     1       4.790   0.412  23.043  0.00  0.00    +0.140 A 
ATOM     23  F   UNL     1       5.608   0.491  23.117  0.00  0.00    -0.204 F 
ATOM     24  C   UNL     1       4.415  -0.268  23.323  0.00  0.00    +0.029 A 
ATOM     25  C   UNL     1       3.597  -0.348  23.249  0.00  0.00    -0.001 A 
ENDBRANCH  18  19
ENDBRANCH  17  18
ENDBRANCH   3  17
TORSDOF 6
ENDMDL
MODEL 6
REMARK VINA RESULT:      -8.4      2.962      4.120
REMARK  Name = 
REMARK  6 active torsions:
REMARK  status: ('A' for Active; 'I' for Inactive)
REMARK    1  A    between atoms: C_3  and  N_17
REMARK    2  A    between atoms: C_6  and  C_7
REMARK    3  A    between atoms: C_7  and  N_8
REMARK    4  A    between atoms: C_9  and  C_11
REMARK    5  A    between atoms: N_17  and  C_18
REMARK    6  A    between atoms: C_18  and  C_19
REMARK                            x       y       z     vdW  Elec       q    Type
REMARK                         _______ _______ _______ _____ _____    ______ ____
ROOT
ATOM      1  O   UNL     1      -1.895   0.491  25.196  0.00  0.00    -0.219 OA
ATOM      2  C   UNL     1      -1.790   0.961  24.526  0.00  0.00    +0.199 C 
ATOM      3  C   UNL     1      -2.272   1.588  24.293  0.00  0.00    +0.135 C 
ATOM      4  C   UNL     1      -1.964   1.900  23.595  0.00  0.00    +0.162 C 
ATOM      5  O   UNL     1      -1.292   1.466  23.396  0.00  0.00    -0.350 OA
ATOM      6  C   UNL     1      -1.183   0.886  23.971  0.00  0.00    +0.169 C 
ENDROOT
BRANCH   6   7
ATOM      7  C   UNL     1      -0.576   0.328  23.989  0.00  0.00    +0.148 C 
BRANCH   7   8
ATOM      8  N   UNL     1       0.083   0.421  23.502  0.00  0.00    -0.199 NA
ATOM      9  C   UNL     1       0.637  -0.188  23.437  0.00  0.00    +0.265 C 
ATOM     10  O   UNL     1       0.530  -0.889  23.858  0.00  0.00    -0.268 OA
BRANCH   9  11
ATOM     11  C   UNL     1       1.296  -0.095  22.950  0.00  0.00    +0.055 A 
ATOM     12  C   UNL     1       1.276  -0.366  22.171  0.00  0.00    +0.005 A 
ATOM     13  C   UNL     1       1.935  -0.273  21.685  0.00  0.00    +0.000 A 
ATOM     14  C   UNL     1       2.616   0.091  21.977  0.00  0.00    +0.000 A 
ATOM     15  C   UNL     1       2.637   0.362  22.756  0.00  0.00    +0.000 A 
ATOM     16  C   UNL     1       1.977   0.269  23.243  0.00  0.00    +0.005 A 
ENDBRANCH   9  11
ENDBRANCH   7   8
ENDBRANCH   6   7
BRANCH   3  17
ATOM     17  N   UNL     1      -2.945   1.855  24.689  0.00  0.00    -0.209 NA
BRANCH  17  18
ATOM     18  C   UNL     1      -3.486   2.343  24.301  0.00  0.00    +0.115 C 
BRANCH  18  19
ATOM     19  C   UNL     1      -4.147   2.628  24.703  0.00  0.00    -0.005 A 
ATOM     20  C   UNL     1      -4.108   3.349  25.103  0.00  0.00    -0.001 A 
ATOM     21  C   UNL     1      -4.769   3.634  25.505  0.00  0.00    +0.029 A 
ATOM     22  C   UNL     1      -5.469   3.199  25.508  0.00  0.00    +0.140 A 
ATOM     23  F   UNL     1      -6.131   3.484  25.910  0.00  0.00    -0.204 F 
ATOM     24  C   UNL     1      -5.509   2.478  25.108  0.00  0.00    +0.029 A 
ATOM     25  C   UNL     1      -4.848   2.193  24.706  0.00  0.00    -0.001 A 
ENDBRANCH  18  19
ENDBRANCH  17  18
ENDBRANCH   3  17
TORSDOF 6
ENDMDL
MODEL 7
REMARK VINA RESULT:      -8.1      3.287      4.649
REMARK  Name = 
REMARK  6 active torsions:
REMARK  status: ('A' for Active; 'I' for Inactive)
REMARK    1  A    between atoms: C_3  and  N_17
REMARK    2  A    between atoms: C_6  and  C_7
REMARK    3  A    between atoms: C_7  and  N_8
REMARK    4  A    between atoms: C_9  and  C_11
REMARK    5  A    between atoms: N_17  and  C_18
REMARK    6  A    between atoms: C_18  and  C_19
REMARK                            x       y       z     vdW  Elec       q    Type
REMARK                         _______ _______ _______ _____ _____    ______ ____
ROOT
ATOM      1  O   UNL     1      -1.110   2.813  23.625  0.00  0.00    -0.219 OA
ATOM      2  C   UNL     1      -1.299   2.161  24.093  0.00  0.00    +0.199 C 
ATOM      3  C   UNL     1      -0.831   1.491  24.204  0.00  0.00    +0.135 C 
ATOM      4  C   UNL     1      -1.232   0.980  24.711  0.00  0.00    +0.162 C 
ATOM      5  O   UNL     1      -1.949   1.334  24.915  0.00  0.00    -0.350 OA
ATOM      6  C   UNL     1      -1.991   2.064  24.533  0.00  0.00    +0.169 C 
ENDROOT
BRANCH   6   7
ATOM      7  C   UNL     1      -2.614   2.602  24.582  0.00  0.00    +0.148 C 
BRANCH   7   8
ATOM      8  N   UNL     1      -3.361   2.347  24.822  0.00  0.00    -0.199 NA
ATOM      9  C   UNL     1      -3.989   2.881  24.852  0.00  0.00    +0.265 C 
ATOM     10  O   UNL     1      -3.869   3.670  24.643  0.00  0.00    -0.268 OA
BRANCH   9  11
ATOM     11  C   UNL     1      -4.736   2.627  25.092  0.00  0.00    +0.055 A 
ATOM     12  C   UNL     1      -5.057   2.902  25.801  0.00  0.00    +0.005 A 
ATOM     13  C   UNL     1      -5.804   2.647  26.040  0.00  0.00    +0.000 A 
ATOM     14  C   UNL     1      -6.230   2.117  25.572  0.00  0.00    +0.000 A 
ATOM     15  C   UNL     1      -5.908   1.842  24.863  0.00  0.00    +0.000 A 
ATOM     16  C   UNL     1      -5.161   2.097  24.624  0.00  0.00    +0.005 A 
ENDBRANCH   9  11
ENDBRANCH   7   8
ENDBRANCH   6   7
BRANCH   3  17
ATOM     17  N   UNL     1      -0.090   1.356  23.865  0.00  0.00    -0.209 NA
BRANCH  17  18
ATOM     18  C   UNL     1       0.210   0.588  23.823  0.00  0.00    +0.115 C 
BRANCH  18  19
ATOM     19  C   UNL     1       0.899   0.438  23.395  0.00  0.00    -0.005 A 
ATOM     20  C   UNL     1       1.591   0.853  23.567  0.00  0.00    -0.001 A 
ATOM     21  C   UNL     1       2.280   0.702  23.140  0.00  0.00    +0.029 A 
ATOM     22  C   UNL     1       2.277   0.137  22.539  0.00  0.00    +0.140 A 
ATOM     23  F   UNL     1       2.966  -0.014  22.111  0.00  0.00    -0.204 F 
ATOM     24  C   UNL     1       1.585  -0.278  22.366  0.00  0.00    +0.029 A 
ATOM     25  C   UNL     1       0.896  -0.127  22.794  0.00  0.00    -0.001 A 
ENDBRANCH  18  19
ENDBRANCH  17  18
ENDBRANCH   3  17
TORSDOF 6
ENDMDL
MODEL 8
REMARK VINA RESULT:      -7.3     14.435     16.608
REMARK  Name = 
REMARK  6 active torsions:
REMARK  status: ('A' for Active; 'I' for Inactive)
REMARK    1  A    between atoms: C_3  and  N_17
REMARK    2  A    between atoms: C_6  and  C_7
REMARK    3  A    between atoms: C_7  and  N_8
REMARK    4  A    between atoms: C_9  and  C_11
REMARK    5  A    between atoms: N_17  and  C_18
REMARK    6  A    between atoms: C_18  and  C_19
REMARK                            x       y       z     vdW  Elec       q    Type
REMARK                         _______ _______ _______ _____ _____    ______ ____
ROOT
ATOM      1  O   UNL     1      -2.889 -10.718  14.359  0.00  0.00    -0.219 OA
ATOM      2  C   UNL     1      -3.665 -10.607  14.100  0.00  0.00    +0.199 C 
ATOM      3  C   UNL     1      -4.332 -10.543  14.580  0.00  0.00    +0.135 C 
ATOM      4  C   UNL     1      -4.988 -10.436  14.092  0.00  0.00    +0.162 C 
ATOM      5  O   UNL     1      -4.726 -10.435  13.309  0.00  0.00    -0.350 OA
ATOM      6  C   UNL     1      -3.908 -10.540  13.314  0.00  0.00    +0.169 C 
ENDROOT
BRANCH   6   7
ATOM      7  C   UNL     1      -3.420 -10.573  12.650  0.00  0.00    +0.148 C 
BRANCH   7   8
ATOM      8  N   UNL     1      -3.677 -10.255  11.933  0.00  0.00    -0.199 NA
ATOM      9  C   UNL     1      -3.214 -10.341  11.255  0.00  0.00    +0.265 C 
ATOM     10  O   UNL     1      -2.495 -10.743  11.295  0.00  0.00    -0.268 OA
BRANCH   9  11
ATOM     11  C   UNL     1      -3.471 -10.024  10.538  0.00  0.00    +0.055 A 
ATOM     12  C   UNL     1      -3.361  -9.221  10.379  0.00  0.00    +0.005 A 
ATOM     13  C   UNL     1      -3.618  -8.904   9.663  0.00  0.00    +0.000 A 
ATOM     14  C   UNL     1      -3.985  -9.390   9.104  0.00  0.00    +0.000 A 
ATOM     15  C   UNL     1      -4.095 -10.192   9.263  0.00  0.00    +0.000 A 
ATOM     16  C   UNL     1      -3.838 -10.509   9.980  0.00  0.00    +0.005 A 
ENDBRANCH   9  11
ENDBRANCH   7   8
ENDBRANCH   6   7
BRANCH   3  17
ATOM     17  N   UNL     1      -4.341 -10.579  15.404  0.00  0.00    -0.209 NA
BRANCH  17  18
ATOM     18  C   UNL     1      -5.046 -10.456  15.815  0.00  0.00    +0.115 C 
BRANCH  18  19
ATOM     19  C   UNL     1      -5.063 -10.524  16.637  0.00  0.00    -0.005 A 
ATOM     20  C   UNL     1      -4.374 -10.714  17.049  0.00  0.00    -0.001 A 
ATOM     21  C   UNL     1      -4.391 -10.781  17.871  0.00  0.00    +0.029 A 
ATOM     22  C   UNL     1      -5.096 -10.659  18.280  0.00  0.00    +0.140 A 
ATOM     23  F   UNL     1      -5.113 -10.726  19.103  0.00  0.00    -0.204 F 
ATOM     24  C   UNL     1      -5.785 -10.469  17.869  0.00  0.00    +0.029 A 
ATOM     25  C   UNL     1      -5.768 -10.401  17.046  0.00  0.00    -0.001 A 
ENDBRANCH  18  19
ENDBRANCH  17  18
ENDBRANCH   3  17
TORSDOF 6
ENDMDL
MODEL 9
REMARK VINA RESULT:      -6.9     14.332     14.910
REMARK  Name = 
REMARK  6 active torsions:
REMARK  status: ('A' for Active; 'I' for Inactive)
REMARK    1  A    between atoms: C_3  and  N_17
REMARK    2  A    between atoms: C_6  and  C_7
REMARK    3  A    between atoms: C_7  and  N_8
REMARK    4  A    between atoms: C_9  and  C_11
REMARK    5  A    between atoms: N_17  and  C_18
REMARK    6  A    between atoms: C_18  and  C_19
REMARK                            x       y       z     vdW  Elec       q    Type
REMARK                         _______ _______ _______ _____ _____    ______ ____
ROOT
ATOM      1  O   UNL     1      -5.786 -10.148  17.970  0.00  0.00    -0.219 OA
ATOM      2  C   UNL     1      -5.867 -10.073  17.152  0.00  0.00    +0.199 C 
ATOM      3  C   UNL     1      -6.555  -9.863  16.749  0.00  0.00    +0.135 C 
ATOM      4  C   UNL     1      -6.386  -9.855  15.942  0.00  0.00    +0.162 C 
ATOM      5  O   UNL     1      -5.593 -10.060  15.846  0.00  0.00    -0.350 OA
ATOM      6  C   UNL     1      -5.272 -10.195  16.593  0.00  0.00    +0.169 C 
ENDROOT
BRANCH   6   7
ATOM      7  C   UNL     1      -4.493 -10.413  16.754  0.00  0.00    +0.148 C 
BRANCH   7   8
ATOM      8  N   UNL     1      -3.924 -10.378  16.158  0.00  0.00    -0.199 NA
ATOM      9  C   UNL     1      -3.137 -10.562  16.327  0.00  0.00    +0.265 C 
ATOM     10  O   UNL     1      -2.921 -10.780  17.093  0.00  0.00    -0.268 OA
BRANCH   9  11
ATOM     11  C   UNL     1      -2.568 -10.528  15.731  0.00  0.00    +0.055 A 
ATOM     12  C   UNL     1      -1.781 -10.371  15.921  0.00  0.00    +0.005 A 
ATOM     13  C   UNL     1      -1.212 -10.336  15.325  0.00  0.00    +0.000 A 
ATOM     14  C   UNL     1      -1.430 -10.460  14.538  0.00  0.00    +0.000 A 
ATOM     15  C   UNL     1      -2.217 -10.618  14.348  0.00  0.00    +0.000 A 
ATOM     16  C   UNL     1      -2.786 -10.652  14.944  0.00  0.00    +0.005 A 
ENDBRANCH   9  11
ENDBRANCH   7   8
ENDBRANCH   6   7
BRANCH   3  17
ATOM     17  N   UNL     1      -7.285  -9.691  17.094  0.00  0.00    -0.209 NA
BRANCH  17  18
ATOM     18  C   UNL     1      -7.915  -9.440  16.624  0.00  0.00    +0.115 C 
BRANCH  18  19
ATOM     19  C   UNL     1      -8.614  -9.180  16.975  0.00  0.00    -0.005 A 
ATOM     20  C   UNL     1      -9.060  -9.695  17.441  0.00  0.00    -0.001 A 
ATOM     21  C   UNL     1      -9.758  -9.434  17.792  0.00  0.00    +0.029 A 
ATOM     22  C   UNL     1     -10.013  -8.657  17.677  0.00  0.00    +0.140 A 
ATOM     23  F   UNL     1     -10.712  -8.396  18.028  0.00  0.00    -0.204 F 
ATOM     24  C   UNL     1      -9.568  -8.142  17.211  0.00  0.00    +0.029 A 
ATOM     25  C   UNL     1      -8.868  -8.403  16.860  0.00  0.00    -0.001 A 
ENDBRANCH  18  19
ENDBRANCH  17  18
ENDBRANCH   3  17
TORSDOF 6
ENDMDL
