MODEL 1
REMARK VINA RESULT:     -11.4      0.000      0.000
REMARK  Name = 
REMARK  8 active torsions:
REMARK  status: ('A' for Active; 'I' for Inactive)
REMARK    1  A    between atoms: O_2  and  C_3
REMARK    2  A    between atoms: C_3  and  C_4
REMARK    3  A    between atoms: C_9  and  C_11
REMARK    4  A    between atoms: C_11  and  C_12
REMARK    5  A    between atoms: C_14  and  C_15
REMARK    6  A    between atoms: C_15  and  N_16
REMARK    7  A    between atoms: N_16  and  S_17
REMARK    8  A    between atoms: S_17  and  C_20
REMARK                            x       y       z     vdW  Elec       q    Type
REMARK                         _______ _______ _______ _____ _____    ______ ____
ROOT
ATOM     12  C   UNL     1      -4.065   2.813  25.189  0.00  0.00    +0.157 C 
ATOM     13  O   UNL     1      -3.828   2.039  25.027  0.00  0.00    -0.351 OA
ATOM     14  C   UNL     1      -4.505   1.572  24.969  0.00  0.00    +0.167 C 
ATOM     26  C   UNL     1      -5.161   2.056  25.095  0.00  0.00    +0.213 C 
ATOM     27  O   UNL     1      -5.950   1.816  25.087  0.00  0.00    -0.218 OA
ATOM     28  C   UNL     1      -4.889   2.823  25.231  0.00  0.00    +0.212 C 
ATOM     29  O   UNL     1      -5.358   3.484  25.382  0.00  0.00    -0.218 OA
ENDROOT
BRANCH  12  11
ATOM     11  C   UNL     1      -3.565   3.462  25.291  0.00  0.00    +0.117 C 
BRANCH  11   9
ATOM      4  C   UNL     1      -1.408   3.907  25.439  0.00  0.00    +0.105 C 
ATOM      5  C   UNL     1      -1.077   4.625  25.202  0.00  0.00    +0.024 C 
ATOM      6  C   UNL     1      -1.685   5.105  24.918  0.00  0.00    +0.023 C 
ATOM      7  C   UNL     1      -2.392   4.684  24.979  0.00  0.00    +0.093 C 
ATOM      8  N   UNL     1      -2.221   3.944  25.301  0.00  0.00    -0.279 N 
ATOM      9  C   UNL     1      -2.766   3.346  25.458  0.00  0.00    +0.228 C 
ATOM     10  O   UNL     1      -2.513   2.630  25.783  0.00  0.00    -0.275 OA
BRANCH   4   3
ATOM      3  C   UNL     1      -0.998   3.266  25.757  0.00  0.00    +0.162 C 
BRANCH   3   2
ATOM      1  C   UNL     1       0.236   2.640  26.112  0.00  0.00    +0.174 C 
ATOM      2  O   UNL     1      -0.174   3.264  25.759  0.00  0.00    -0.349 OA
ENDBRANCH   3   2
ENDBRANCH   4   3
ENDBRANCH  11   9
ENDBRANCH  12  11
BRANCH  14  15
ATOM     15  C   UNL     1      -4.523   0.761  24.813  0.00  0.00    +0.148 C 
BRANCH  15  16
ATOM     16  N   UNL     1      -3.821   0.329  24.795  0.00  0.00    -0.075 NA
BRANCH  16  17
ATOM     17  S   UNL     1      -3.841  -0.485  24.663  0.00  0.00    +0.077 S 
ATOM     18  O   UNL     1      -3.782  -0.355  23.850  0.00  0.00    -0.152 OA
ATOM     19  O   UNL     1      -3.900  -0.615  25.476  0.00  0.00    -0.152 OA
BRANCH  17  20
ATOM     20  C   UNL     1      -3.861  -1.299  24.532  0.00  0.00    +0.124 A 
ATOM     21  C   UNL     1      -4.285  -1.604  23.893  0.00  0.00    +0.020 A 
ATOM     22  C   UNL     1      -4.305  -2.419  23.762  0.00  0.00    +0.001 A 
ATOM     23  C   UNL     1      -3.902  -2.928  24.269  0.00  0.00    +0.000 A 
ATOM     24  C   UNL     1      -3.478  -2.623  24.908  0.00  0.00    +0.001 A 
ATOM     25  C   UNL     1      -3.457  -1.810  25.039  0.00  0.00    +0.020 A 
ENDBRANCH  17  20
ENDBRANCH  16  17
ENDBRANCH  15  16
ENDBRANCH  14  15
TORSDOF 8
ENDMDL
MODEL 2
REMARK VINA RESULT:     -10.6      1.280      5.084
REMARK  Name = 
REMARK  8 active torsions:
REMARK  status: ('A' for Active; 'I' for Inactive)
REMARK    1  A    between atoms: O_2  and  C_3
REMARK    2  A    between atoms: C_3  and  C_4
REMARK    3  A    between atoms: C_9  and  C_11
REMARK    4  A    between atoms: C_11  and  C_12
REMARK    5  A    between atoms: C_14  and  C_15
REMARK    6  A    between atoms: C_15  and  N_16
REMARK    7  A    between atoms: N_16  and  S_17
REMARK    8  A    between atoms: S_17  and  C_20
REMARK                            x       y       z     vdW  Elec       q    Type
REMARK                         _______ _______ _______ _____ _____    ______ ____
ROOT
ATOM     12  C   UNL     1      -4.496   0.817  24.869  0.00  0.00    +0.157 C 
ATOM     13  O   UNL     1      -3.822   1.289  24.792  0.00  0.00    -0.351 OA
ATOM     14  C   UNL     1      -4.043   2.072  24.921  0.00  0.00    +0.167 C 
ATOM     26  C   UNL     1      -4.854   2.087  25.078  0.00  0.00    +0.213 C 
ATOM     27  O   UNL     1      -5.304   2.758  25.239  0.00  0.00    -0.218 OA
ATOM     28  C   UNL     1      -5.133   1.311  25.046  0.00  0.00    +0.212 C 
ATOM     29  O   UNL     1      -5.912   1.071  25.168  0.00  0.00    -0.218 OA
ENDROOT
BRANCH  12  11
ATOM     11  C   UNL     1      -4.526  -0.003  24.783  0.00  0.00    +0.117 C 
BRANCH  11   9
ATOM      4  C   UNL     1      -3.146  -1.715  24.589  0.00  0.00    +0.105 C 
ATOM      5  C   UNL     1      -3.332  -2.401  24.170  0.00  0.00    +0.024 C 
ATOM      6  C   UNL     1      -4.093  -2.313  23.862  0.00  0.00    +0.023 C 
ATOM      7  C   UNL     1      -4.376  -1.573  24.090  0.00  0.00    +0.093 C 
ATOM      8  N   UNL     1      -3.791  -1.203  24.540  0.00  0.00    -0.279 N 
ATOM      9  C   UNL     1      -3.842  -0.454  24.880  0.00  0.00    +0.228 C 
ATOM     10  O   UNL     1      -3.210  -0.154  25.317  0.00  0.00    -0.275 OA
BRANCH   4   3
ATOM      3  C   UNL     1      -2.438  -1.567  24.987  0.00  0.00    +0.162 C 
BRANCH   3   2
ATOM      1  C   UNL     1      -1.056  -1.869  25.177  0.00  0.00    +0.174 C 
ATOM      2  O   UNL     1      -1.805  -2.088  24.909  0.00  0.00    -0.349 OA
ENDBRANCH   3   2
ENDBRANCH   4   3
ENDBRANCH  11   9
ENDBRANCH  12  11
BRANCH  14  15
ATOM     15  C   UNL     1      -3.542   2.728  24.898  0.00  0.00    +0.148 C 
BRANCH  15  16
ATOM     16  N   UNL     1      -2.733   2.633  25.028  0.00  0.00    -0.075 NA
BRANCH  16  17
ATOM     17  S   UNL     1      -2.232   3.288  25.007  0.00  0.00    +0.077 S 
ATOM     18  O   UNL     1      -2.274   3.293  24.182  0.00  0.00    -0.152 OA
ATOM     19  O   UNL     1      -2.191   3.284  25.831  0.00  0.00    -0.152 OA
BRANCH  17  20
ATOM     20  C   UNL     1      -1.732   3.943  24.986  0.00  0.00    +0.124 A 
ATOM     21  C   UNL     1      -0.937   3.850  24.787  0.00  0.00    +0.020 A 
ATOM     22  C   UNL     1      -0.436   4.506  24.766  0.00  0.00    +0.001 A 
ATOM     23  C   UNL     1      -0.731   5.255  24.944  0.00  0.00    +0.000 A 
ATOM     24  C   UNL     1      -1.526   5.349  25.142  0.00  0.00    +0.001 A 
ATOM     25  C   UNL     1      -2.027   4.694  25.163  0.00  0.00    +0.020 A 
ENDBRANCH  17  20
ENDBRANCH  16  17
ENDBRANCH  15  16
ENDBRANCH  14  15
TORSDOF 8
ENDMDL
MODEL 3
REMARK VINA RESULT:     -10.3      1.610      3.017
REMARK  Name = 
REMARK  8 active torsions:
REMARK  status: ('A' for Active; 'I' for Inactive)
REMARK    1  A    between atoms: O_2  and  C_3
REMARK    2  A    between atoms: C_3  and  C_4
REMARK    3  A    between atoms: C_9  and  C_11
REMARK    4  A    between atoms: C_11  and  C_12
REMARK    5  A    between atoms: C_14  and  C_15
REMARK    6  A    between atoms: C_15  and  N_16
REMARK    7  A    between atoms: N_16  and  S_17
REMARK    8  A    between atoms: S_17  and  C_20
REMARK                            x       y       z     vdW  Elec       q    Type
REMARK                         _______ _______ _______ _____ _____    ______ ____
ROOT
ATOM     12  C   UNL     1      -0.426   1.877  24.808  0.00  0.00    +0.157 C 
ATOM     13  O   UNL     1      -1.058   1.348  24.853  0.00  0.00    -0.351 OA
ATOM     14  C   UNL     1      -0.837   0.652  24.469  0.00  0.00    +0.167 C 
ATOM     26  C   UNL     1      -0.067   0.750  24.187  0.00  0.00    +0.213 C 
ATOM     27  O   UNL     1       0.370   0.190  23.770  0.00  0.00    -0.218 OA
ATOM     28  C   UNL     1       0.187   1.507  24.397  0.00  0.00    +0.212 C 
ATOM     29  O   UNL     1       0.923   1.836  24.225  0.00  0.00    -0.218 OA
ENDROOT
BRANCH  12  11
ATOM     11  C   UNL     1      -0.409   2.641  25.120  0.00  0.00    +0.117 C 
BRANCH  11   9
ATOM      4  C   UNL     1      -1.892   4.226  25.522  0.00  0.00    +0.105 C 
ATOM      5  C   UNL     1      -1.783   5.013  25.304  0.00  0.00    +0.024 C 
ATOM      6  C   UNL     1      -1.050   5.075  24.929  0.00  0.00    +0.023 C 
ATOM      7  C   UNL     1      -0.706   4.325  24.916  0.00  0.00    +0.093 C 
ATOM      8  N   UNL     1      -1.227   3.800  25.283  0.00  0.00    -0.279 N 
ATOM      9  C   UNL     1      -1.104   2.991  25.390  0.00  0.00    +0.228 C 
ATOM     10  O   UNL     1      -1.677   2.533  25.768  0.00  0.00    -0.275 OA
BRANCH   4   3
ATOM      3  C   UNL     1      -2.551   3.917  25.911  0.00  0.00    +0.162 C 
BRANCH   3   2
ATOM      1  C   UNL     1      -3.950   3.991  26.188  0.00  0.00    +0.174 C 
ATOM      2  O   UNL     1      -3.249   4.354  25.950  0.00  0.00    -0.349 OA
ENDBRANCH   3   2
ENDBRANCH   4   3
ENDBRANCH  11   9
ENDBRANCH  12  11
BRANCH  14  15
ATOM     15  C   UNL     1      -1.303  -0.023  24.383  0.00  0.00    +0.148 C 
BRANCH  15  16
ATOM     16  N   UNL     1      -1.997  -0.104  24.822  0.00  0.00    -0.075 NA
BRANCH  16  17
ATOM     17  S   UNL     1      -2.513  -0.729  24.665  0.00  0.00    +0.077 S 
ATOM     18  O   UNL     1      -2.886  -0.276  24.085  0.00  0.00    -0.152 OA
ATOM     19  O   UNL     1      -2.140  -1.182  25.246  0.00  0.00    -0.152 OA
BRANCH  17  20
ATOM     20  C   UNL     1      -3.028  -1.353  24.509  0.00  0.00    +0.124 A 
ATOM     21  C   UNL     1      -2.841  -2.116  24.761  0.00  0.00    +0.020 A 
ATOM     22  C   UNL     1      -3.357  -2.741  24.605  0.00  0.00    +0.001 A 
ATOM     23  C   UNL     1      -4.061  -2.603  24.197  0.00  0.00    +0.000 A 
ATOM     24  C   UNL     1      -4.248  -1.840  23.946  0.00  0.00    +0.001 A 
ATOM     25  C   UNL     1      -3.733  -1.215  24.102  0.00  0.00    +0.020 A 
ENDBRANCH  17  20
ENDBRANCH  16  17
ENDBRANCH  15  16
ENDBRANCH  14  15
TORSDOF 8
ENDMDL
MODEL 4
REMARK VINA RESULT:      -9.3      2.174      6.037
REMARK  Name = 
REMARK  8 active torsions:
REMARK  status: ('A' for Active; 'I' for Inactive)
REMARK    1  A    between atoms: O_2  and  C_3
REMARK    2  A    between atoms: C_3  and  C_4
REMARK    3  A    between atoms: C_9  and  C_11
REMARK    4  A    between atoms: C_11  and  C_12
REMARK    5  A    between atoms: C_14  and  C_15
REMARK    6  A    between atoms: C_15  and  N_16
REMARK    7  A    between atoms: N_16  and  S_17
REMARK    8  A    between atoms: S_17  and  C_20
REMARK                            x       y       z     vdW  Elec       q    Type
REMARK                         _______ _______ _______ _____ _____    ______ ____
ROOT
ATOM     12  C   UNL     1      -0.566  -0.139  24.346  0.00  0.00    +0.157 C 
ATOM     13  O   UNL     1      -0.807   0.587  24.655  0.00  0.00    -0.351 OA
ATOM     14  C   UNL     1      -0.273   1.162  24.402  0.00  0.00    +0.167 C 
ATOM     26  C   UNL     1       0.300   0.792  23.937  0.00  0.00    +0.213 C 
ATOM     27  O   UNL     1       0.940   1.161  23.571  0.00  0.00    -0.218 OA
ATOM     28  C   UNL     1       0.119  -0.012  23.902  0.00  0.00    +0.212 C 
ATOM     29  O   UNL     1       0.546  -0.589  23.496  0.00  0.00    -0.218 OA
ENDROOT
BRANCH  12  11
ATOM     11  C   UNL     1      -0.942  -0.865  24.461  0.00  0.00    +0.117 C 
BRANCH  11   9
ATOM      4  C   UNL     1      -2.954  -1.774  24.501  0.00  0.00    +0.105 C 
ATOM      5  C   UNL     1      -3.084  -2.578  24.630  0.00  0.00    +0.024 C 
ATOM      6  C   UNL     1      -2.351  -2.942  24.734  0.00  0.00    +0.023 C 
ATOM      7  C   UNL     1      -1.767  -2.363  24.668  0.00  0.00    +0.093 C 
ATOM      8  N   UNL     1      -2.140  -1.640  24.525  0.00  0.00    -0.279 N 
ATOM      9  C   UNL     1      -1.765  -0.913  24.422  0.00  0.00    +0.228 C 
ATOM     10  O   UNL     1      -2.212  -0.234  24.282  0.00  0.00    -0.275 OA
BRANCH   4   3
ATOM      3  C   UNL     1      -3.535  -1.203  24.371  0.00  0.00    +0.162 C 
BRANCH   3   2
ATOM      1  C   UNL     1      -4.911  -0.853  24.217  0.00  0.00    +0.174 C 
ATOM      2  O   UNL     1      -4.326  -1.427  24.309  0.00  0.00    -0.349 OA
ENDBRANCH   3   2
ENDBRANCH   4   3
ENDBRANCH  11   9
ENDBRANCH  12  11
BRANCH  14  15
ATOM     15  C   UNL     1      -0.304   1.967  24.583  0.00  0.00    +0.148 C 
BRANCH  15  16
ATOM     16  N   UNL     1      -0.918   2.260  25.051  0.00  0.00    -0.075 NA
BRANCH  16  17
ATOM     17  S   UNL     1      -1.067   3.071  25.073  0.00  0.00    +0.077 S 
ATOM     18  O   UNL     1      -1.594   2.992  24.443  0.00  0.00    -0.152 OA
ATOM     19  O   UNL     1      -0.540   3.151  25.704  0.00  0.00    -0.152 OA
BRANCH  17  20
ATOM     20  C   UNL     1      -1.216   3.882  25.096  0.00  0.00    +0.124 A 
ATOM     21  C   UNL     1      -1.914   4.165  25.432  0.00  0.00    +0.020 A 
ATOM     22  C   UNL     1      -2.063   4.976  25.455  0.00  0.00    +0.001 A 
ATOM     23  C   UNL     1      -1.513   5.505  25.142  0.00  0.00    +0.000 A 
ATOM     24  C   UNL     1      -0.814   5.223  24.806  0.00  0.00    +0.001 A 
ATOM     25  C   UNL     1      -0.666   4.412  24.783  0.00  0.00    +0.020 A 
ENDBRANCH  17  20
ENDBRANCH  16  17
ENDBRANCH  15  16
ENDBRANCH  14  15
TORSDOF 8
ENDMDL
MODEL 5
REMARK VINA RESULT:      -8.8      2.197      4.308
REMARK  Name = 
REMARK  8 active torsions:
REMARK  status: ('A' for Active; 'I' for Inactive)
REMARK    1  A    between atoms: O_2  and  C_3
REMARK    2  A    between atoms: C_3  and  C_4
REMARK    3  A    between atoms: C_9  and  C_11
REMARK    4  A    between atoms: C_11  and  C_12
REMARK    5  A    between atoms: C_14  and  C_15
REMARK    6  A    between atoms: C_15  and  N_16
REMARK    7  A    between atoms: N_16  and  S_17
REMARK    8  A    between atoms: S_17  and  C_20
REMARK                            x       y       z     vdW  Elec       q    Type
REMARK                         _______ _______ _______ _____ _____    ______ ____
ROOT
ATOM     12  C   UNL     1      -0.770   2.493  24.812  0.00  0.00    +0.157 C 
ATOM     13  O   UNL     1      -1.584   2.364  24.772  0.00  0.00    -0.351 OA
ATOM     14  C   UNL     1      -1.964   3.048  25.032  0.00  0.00    +0.167 C 
ATOM     26  C   UNL     1      -1.385   3.601  25.233  0.00  0.00    +0.213 C 
ATOM     27  O   UNL     1      -1.520   4.362  25.520  0.00  0.00    -0.218 OA
ATOM     28  C   UNL     1      -0.647   3.258  25.097  0.00  0.00    +0.212 C 
ATOM     29  O   UNL     1       0.085   3.616  25.224  0.00  0.00    -0.218 OA
ENDROOT
BRANCH  12  11
ATOM     11  C   UNL     1      -0.182   1.953  24.604  0.00  0.00    +0.117 C 
BRANCH  11   9
ATOM      4  C   UNL     1      -0.095  -0.208  24.157  0.00  0.00    +0.105 C 
ATOM      5  C   UNL     1       0.301  -0.519  23.504  0.00  0.00    +0.024 C 
ATOM      6  C   UNL     1       0.633   0.109  23.084  0.00  0.00    +0.023 C 
ATOM      7  C   UNL     1       0.443   0.808  23.478  0.00  0.00    +0.093 C 
ATOM      8  N   UNL     1      -0.008   0.613  24.142  0.00  0.00    -0.279 N 
ATOM      9  C   UNL     1      -0.316   1.143  24.692  0.00  0.00    +0.228 C 
ATOM     10  O   UNL     1      -0.758   0.866  25.331  0.00  0.00    -0.275 OA
BRANCH   4   3
ATOM      3  C   UNL     1      -0.506  -0.641  24.726  0.00  0.00    +0.162 C 
BRANCH   3   2
ATOM      1  C   UNL     1      -1.073  -1.877  25.164  0.00  0.00    +0.174 C 
ATOM      2  O   UNL     1      -0.597  -1.456  24.639  0.00  0.00    -0.349 OA
ENDBRANCH   3   2
ENDBRANCH   4   3
ENDBRANCH  11   9
ENDBRANCH  12  11
BRANCH  14  15
ATOM     15  C   UNL     1      -2.780   3.161  25.083  0.00  0.00    +0.148 C 
BRANCH  15  16
ATOM     16  N   UNL     1      -3.287   2.720  24.604  0.00  0.00    -0.075 NA
BRANCH  16  17
ATOM     17  S   UNL     1      -4.074   2.609  24.829  0.00  0.00    +0.077 S 
ATOM     18  O   UNL     1      -3.887   1.855  25.109  0.00  0.00    -0.152 OA
ATOM     19  O   UNL     1      -4.260   3.363  24.549  0.00  0.00    -0.152 OA
BRANCH  17  20
ATOM     20  C   UNL     1      -4.859   2.498  25.054  0.00  0.00    +0.124 A 
ATOM     21  C   UNL     1      -5.272   1.832  24.798  0.00  0.00    +0.020 A 
ATOM     22  C   UNL     1      -6.059   1.721  25.023  0.00  0.00    +0.001 A 
ATOM     23  C   UNL     1      -6.432   2.278  25.504  0.00  0.00    +0.000 A 
ATOM     24  C   UNL     1      -6.019   2.944  25.760  0.00  0.00    +0.001 A 
ATOM     25  C   UNL     1      -5.233   3.055  25.536  0.00  0.00    +0.020 A 
ENDBRANCH  17  20
ENDBRANCH  16  17
ENDBRANCH  15  16
ENDBRANCH  14  15
TORSDOF 8
ENDMDL
MODEL 6
REMARK VINA RESULT:      -8.4      2.116      4.139
REMARK  Name = 
REMARK  8 active torsions:
REMARK  status: ('A' for Active; 'I' for Inactive)
REMARK    1  A    between atoms: O_2  and  C_3
REMARK    2  A    between atoms: C_3  and  C_4
REMARK    3  A    between atoms: C_9  and  C_11
REMARK    4  A    between atoms: C_11  and  C_12
REMARK    5  A    between atoms: C_14  and  C_15
REMARK    6  A    between atoms: C_15  and  N_16
REMARK    7  A    between atoms: N_16  and  S_17
REMARK    8  A    between atoms: S_17  and  C_20
REMARK                            x       y       z     vdW  Elec       q    Type
REMARK                         _______ _______ _______ _____ _____    ______ ____
ROOT
ATOM     12  C   UNL     1      -1.933  -1.018  24.779  0.00  0.00    +0.157 C 
ATOM     13  O   UNL     1      -2.464  -0.396  24.891  0.00  0.00    -0.351 OA
ATOM     14  C   UNL     1      -3.211  -0.719  25.023  0.00  0.00    +0.167 C 
ATOM     26  C   UNL     1      -3.143  -1.541  24.992  0.00  0.00    +0.213 C 
ATOM     27  O   UNL     1      -3.756  -2.083  25.095  0.00  0.00    -0.218 OA
ATOM     28  C   UNL     1      -2.353  -1.726  24.842  0.00  0.00    +0.212 C 
ATOM     29  O   UNL     1      -2.038  -2.484  24.767  0.00  0.00    -0.218 OA
ENDROOT
BRANCH  12  11
ATOM     11  C   UNL     1      -1.125  -0.945  24.630  0.00  0.00    +0.117 C 
BRANCH  11   9
ATOM      4  C   UNL     1       0.221   0.703  24.038  0.00  0.00    +0.105 C 
ATOM      5  C   UNL     1       0.754   0.648  23.411  0.00  0.00    +0.024 C 
ATOM      6  C   UNL     1       0.681  -0.104  23.078  0.00  0.00    +0.023 C 
ATOM      7  C   UNL     1       0.101  -0.514  23.499  0.00  0.00    +0.093 C 
ATOM      8  N   UNL     1      -0.183  -0.015  24.092  0.00  0.00    -0.279 N 
ATOM      9  C   UNL     1      -0.768  -0.201  24.643  0.00  0.00    +0.228 C 
ATOM     10  O   UNL     1      -0.997   0.356  25.207  0.00  0.00    -0.275 OA
BRANCH   4   3
ATOM      3  C   UNL     1       0.110   1.360  24.524  0.00  0.00    +0.162 C 
BRANCH   3   2
ATOM      1  C   UNL     1       0.238   2.766  24.737  0.00  0.00    +0.174 C 
ATOM      2  O   UNL     1       0.445   2.085  24.321  0.00  0.00    -0.349 OA
ENDBRANCH   3   2
ENDBRANCH   4   3
ENDBRANCH  11   9
ENDBRANCH  12  11
BRANCH  14  15
ATOM     15  C   UNL     1      -3.906  -0.295  25.161  0.00  0.00    +0.148 C 
BRANCH  15  16
ATOM     16  N   UNL     1      -4.177   0.245  24.600  0.00  0.00    -0.075 NA
BRANCH  16  17
ATOM     17  S   UNL     1      -4.563   0.933  24.843  0.00  0.00    +0.077 S 
ATOM     18  O   UNL     1      -4.233   1.343  24.207  0.00  0.00    -0.152 OA
ATOM     19  O   UNL     1      -4.893   0.523  25.480  0.00  0.00    -0.152 OA
BRANCH  17  20
ATOM     20  C   UNL     1      -4.949   1.620  25.087  0.00  0.00    +0.124 A 
ATOM     21  C   UNL     1      -4.525   2.323  25.174  0.00  0.00    +0.020 A 
ATOM     22  C   UNL     1      -4.911   3.010  25.417  0.00  0.00    +0.001 A 
ATOM     23  C   UNL     1      -5.721   2.995  25.573  0.00  0.00    +0.000 A 
ATOM     24  C   UNL     1      -6.145   2.292  25.486  0.00  0.00    +0.001 A 
ATOM     25  C   UNL     1      -5.759   1.605  25.243  0.00  0.00    +0.020 A 
ENDBRANCH  17  20
ENDBRANCH  16  17
ENDBRANCH  15  16
ENDBRANCH  14  15
TORSDOF 8
ENDMDL
MODEL 7
REMARK VINA RESULT:      -8.0      3.210      4.795
REMARK  Name = 
REMARK  8 active torsions:
REMARK  status: ('A' for Active; 'I' for Inactive)
REMARK    1  A    between atoms: O_2  and  C_3
REMARK    2  A    between atoms: C_3  and  C_4
REMARK    3  A    between atoms: C_9  and  C_11
REMARK    4  A    between atoms: C_11  and  C_12
REMARK    5  A    between atoms: C_14  and  C_15
REMARK    6  A    between atoms: C_15  and  N_16
REMARK    7  A    between atoms: N_16  and  S_17
REMARK    8  A    between atoms: S_17  and  C_20
REMARK                            x       y       z     vdW  Elec       q    Type
REMARK                         _______ _______ _______ _____ _____    ______ ____
ROOT
ATOM     12  C   UNL     1      -1.929   0.186  24.795  0.00  0.00    +0.157 C 
ATOM     13  O   UNL     1      -1.281   0.353  24.311  0.00  0.00    -0.351 OA
ATOM     14  C   UNL     1      -0.714  -0.233  24.433  0.00  0.00    +0.167 C 
ATOM     26  C   UNL     1      -1.010  -0.763  24.993  0.00  0.00    +0.213 C 
ATOM     27  O   UNL     1      -0.623  -1.433  25.278  0.00  0.00    -0.218 OA
ATOM     28  C   UNL     1      -1.761  -0.504  25.216  0.00  0.00    +0.212 C 
ATOM     29  O   UNL     1      -2.257  -0.870  25.764  0.00  0.00    -0.218 OA
ENDROOT
BRANCH  12  11
ATOM     11  C   UNL     1      -2.622   0.630  24.849  0.00  0.00    +0.117 C 
BRANCH  11   9
ATOM      4  C   UNL     1      -3.262   2.743  24.810  0.00  0.00    +0.105 C 
ATOM      5  C   UNL     1      -4.000   2.987  24.535  0.00  0.00    +0.024 C 
ATOM      6  C   UNL     1      -4.417   2.317  24.295  0.00  0.00    +0.023 C 
ATOM      7  C   UNL     1      -3.937   1.658  24.421  0.00  0.00    +0.093 C 
ATOM      8  N   UNL     1      -3.222   1.922  24.740  0.00  0.00    -0.279 N 
ATOM      9  C   UNL     1      -2.582   1.447  24.951  0.00  0.00    +0.228 C 
ATOM     10  O   UNL     1      -1.900   1.790  25.265  0.00  0.00    -0.275 OA
BRANCH   4   3
ATOM      3  C   UNL     1      -2.667   3.234  25.104  0.00  0.00    +0.162 C 
BRANCH   3   2
ATOM      1  C   UNL     1      -2.168   4.543  25.381  0.00  0.00    +0.174 C 
ATOM      2  O   UNL     1      -2.770   4.052  25.103  0.00  0.00    -0.349 OA
ENDBRANCH   3   2
ENDBRANCH   4   3
ENDBRANCH  11   9
ENDBRANCH  12  11
BRANCH  14  15
ATOM     15  C   UNL     1       0.021  -0.281  24.061  0.00  0.00    +0.148 C 
BRANCH  15  16
ATOM     16  N   UNL     1       0.210   0.242  23.452  0.00  0.00    -0.075 NA
BRANCH  16  17
ATOM     17  S   UNL     1       0.983   0.281  23.167  0.00  0.00    +0.077 S 
ATOM     18  O   UNL     1       0.839  -0.372  22.683  0.00  0.00    -0.152 OA
ATOM     19  O   UNL     1       1.128   0.934  23.651  0.00  0.00    -0.152 OA
BRANCH  17  20
ATOM     20  C   UNL     1       1.756   0.321  22.883  0.00  0.00    +0.124 A 
ATOM     21  C   UNL     1       1.978  -0.125  22.225  0.00  0.00    +0.020 A 
ATOM     22  C   UNL     1       2.752  -0.085  21.941  0.00  0.00    +0.001 A 
ATOM     23  C   UNL     1       3.304   0.401  22.314  0.00  0.00    +0.000 A 
ATOM     24  C   UNL     1       3.082   0.848  22.972  0.00  0.00    +0.001 A 
ATOM     25  C   UNL     1       2.309   0.808  23.256  0.00  0.00    +0.020 A 
ENDBRANCH  17  20
ENDBRANCH  16  17
ENDBRANCH  15  16
ENDBRANCH  14  15
TORSDOF 8
ENDMDL
