MODEL 1
REMARK VINA RESULT:     -10.7      0.000      0.000
REMARK  Name = 
REMARK  5 active torsions:
REMARK  status: ('A' for Active; 'I' for Inactive)
REMARK    1  A    between atoms: N_6  and  C_7
REMARK    2  A    between atoms: C_7  and  C_8
REMARK    3  A    between atoms: C_20  and  C_21
REMARK    4  A    between atoms: C_21  and  C_22
REMARK    5  A    between atoms: C_22  and  C_23
REMARK                            x       y       z     vdW  Elec       q    Type
REMARK                         _______ _______ _______ _____ _____    ______ ____
ROOT
ATOM      1  C   UNL     1      -2.786   2.290  23.406  0.00  0.00    +0.090 C 
ATOM      2  N   UNL     1      -3.318   2.029  23.982  0.00  0.00    -0.271 NA
ATOM      3  C   UNL     1      -3.498   1.224  23.964  0.00  0.00    +0.083 C 
ATOM      4  C   UNL     1      -3.177   0.699  23.415  0.00  0.00    +0.035 C 
ATOM      5  C   UNL     1      -3.483  -0.051  23.570  0.00  0.00    +0.074 C 
ATOM      6  N   UNL     1      -3.995   0.011  24.215  0.00  0.00    -0.262 NA
ATOM     15  C   UNL     1      -4.003   0.799  24.459  0.00  0.00    +0.151 C 
ATOM     16  C   UNL     1      -4.454   1.075  25.092  0.00  0.00    +0.257 C 
ATOM     17  O   UNL     1      -4.908   0.506  25.482  0.00  0.00    -0.272 OA
ATOM     18  N   UNL     1      -4.510   1.842  25.389  0.00  0.00    -0.203 NA
ATOM     19  C   UNL     1      -4.130   2.525  25.123  0.00  0.00    +0.131 C 
ATOM     20  C   UNL     1      -3.599   2.608  24.497  0.00  0.00    +0.080 C 
ENDROOT
BRANCH   6   7
ATOM      7  C   UNL     1      -4.422  -0.607  24.557  0.00  0.00    +0.100 C 
BRANCH   7   8
ATOM      8  C   UNL     1      -4.139  -1.380  24.507  0.00  0.00    -0.006 A 
ATOM      9  C   UNL     1      -4.372  -1.866  23.882  0.00  0.00    -0.003 A 
ATOM     10  C   UNL     1      -4.089  -2.638  23.833  0.00  0.00    -0.005 A 
ATOM     11  C   UNL     1      -3.573  -2.927  24.408  0.00  0.00    -0.022 A 
ATOM     12  C   UNL     1      -3.290  -3.700  24.359  0.00  0.00    +0.031 C 
ATOM     13  C   UNL     1      -3.341  -2.441  25.034  0.00  0.00    -0.005 A 
ATOM     14  C   UNL     1      -3.623  -1.669  25.083  0.00  0.00    -0.003 A 
ENDBRANCH   7   8
ENDBRANCH   6   7
BRANCH  20  21
ATOM     21  C   UNL     1      -3.312   3.372  24.371  0.00  0.00    +0.027 C 
BRANCH  21  22
ATOM     22  C   UNL     1      -2.775   3.703  24.903  0.00  0.00    +0.087 C 
BRANCH  22  23
ATOM     23  C   UNL     1      -2.593   4.507  24.857  0.00  0.00    +0.226 C 
ATOM     24  O   UNL     1      -3.193   5.060  24.736  0.00  0.00    -0.275 OA
ATOM     25  N   UNL     1      -1.810   4.756  24.931  0.00  0.00    -0.280 N 
ATOM     26  C   UNL     1      -1.544   5.536  24.897  0.00  0.00    +0.093 C 
ATOM     27  C   UNL     1      -0.726   5.531  24.998  0.00  0.00    +0.023 C 
ATOM     28  C   UNL     1      -0.485   4.749  25.094  0.00  0.00    +0.023 C 
ATOM     29  C   UNL     1      -1.156   4.269  25.053  0.00  0.00    +0.093 C 
ENDBRANCH  22  23
ENDBRANCH  21  22
ENDBRANCH  20  21
TORSDOF 5
ENDMDL
MODEL 2
REMARK VINA RESULT:     -10.6      2.227      6.142
REMARK  Name = 
REMARK  5 active torsions:
REMARK  status: ('A' for Active; 'I' for Inactive)
REMARK    1  A    between atoms: N_6  and  C_7
REMARK    2  A    between atoms: C_7  and  C_8
REMARK    3  A    between atoms: C_20  and  C_21
REMARK    4  A    between atoms: C_21  and  C_22
REMARK    5  A    between atoms: C_22  and  C_23
REMARK                            x       y       z     vdW  Elec       q    Type
REMARK                         _______ _______ _______ _____ _____    ______ ____
ROOT
ATOM      1  C   UNL     1      -1.269   0.281  23.410  0.00  0.00    +0.090 C 
ATOM      2  N   UNL     1      -1.104   0.507  24.186  0.00  0.00    -0.271 NA
ATOM      3  C   UNL     1      -0.988   1.315  24.307  0.00  0.00    +0.083 C 
ATOM      4  C   UNL     1      -1.031   1.876  23.703  0.00  0.00    +0.035 C 
ATOM      5  C   UNL     1      -0.886   2.618  24.032  0.00  0.00    +0.074 C 
ATOM      6  N   UNL     1      -0.753   2.516  24.841  0.00  0.00    -0.262 NA
ATOM     15  C   UNL     1      -0.817   1.711  25.010  0.00  0.00    +0.151 C 
ATOM     16  C   UNL     1      -0.719   1.396  25.766  0.00  0.00    +0.257 C 
ATOM     17  O   UNL     1      -0.549   1.942  26.362  0.00  0.00    -0.272 OA
ATOM     18  N   UNL     1      -0.768   0.609  26.006  0.00  0.00    -0.203 NA
ATOM     19  C   UNL     1      -0.927  -0.059  25.548  0.00  0.00    +0.131 C 
ATOM     20  C   UNL     1      -1.077  -0.104  24.739  0.00  0.00    +0.080 C 
ENDROOT
BRANCH   6   7
ATOM      7  C   UNL     1      -0.587   3.115  25.384  0.00  0.00    +0.100 C 
BRANCH   7   8
ATOM      8  C   UNL     1      -0.890   3.873  25.268  0.00  0.00    -0.006 A 
ATOM      9  C   UNL     1      -0.431   4.449  24.897  0.00  0.00    -0.003 A 
ATOM     10  C   UNL     1      -0.735   5.206  24.782  0.00  0.00    -0.005 A 
ATOM     11  C   UNL     1      -1.498   5.389  25.036  0.00  0.00    -0.022 A 
ATOM     12  C   UNL     1      -1.802   6.146  24.921  0.00  0.00    +0.031 C 
ATOM     13  C   UNL     1      -1.957   4.812  25.407  0.00  0.00    -0.005 A 
ATOM     14  C   UNL     1      -1.654   4.055  25.523  0.00  0.00    -0.003 A 
ENDBRANCH   7   8
ENDBRANCH   6   7
BRANCH  20  21
ATOM     21  C   UNL     1      -1.218  -0.862  24.443  0.00  0.00    +0.027 C 
BRANCH  21  22
ATOM     22  C   UNL     1      -1.806  -1.333  24.779  0.00  0.00    +0.087 C 
BRANCH  22  23
ATOM     23  C   UNL     1      -1.946  -2.090  24.484  0.00  0.00    +0.226 C 
ATOM     24  O   UNL     1      -1.316  -2.556  24.226  0.00  0.00    -0.275 OA
ATOM     25  N   UNL     1      -2.717  -2.382  24.448  0.00  0.00    -0.280 N 
ATOM     26  C   UNL     1      -2.941  -3.125  24.168  0.00  0.00    +0.093 C 
ATOM     27  C   UNL     1      -3.762  -3.184  24.231  0.00  0.00    +0.023 C 
ATOM     28  C   UNL     1      -4.044  -2.478  24.550  0.00  0.00    +0.023 C 
ATOM     29  C   UNL     1      -3.398  -1.982  24.684  0.00  0.00    +0.093 C 
ENDBRANCH  22  23
ENDBRANCH  21  22
ENDBRANCH  20  21
TORSDOF 5
ENDMDL
MODEL 3
REMARK VINA RESULT:     -10.4      1.466      1.654
REMARK  Name = 
REMARK  5 active torsions:
REMARK  status: ('A' for Active; 'I' for Inactive)
REMARK    1  A    between atoms: N_6  and  C_7
REMARK    2  A    between atoms: C_7  and  C_8
REMARK    3  A    between atoms: C_20  and  C_21
REMARK    4  A    between atoms: C_21  and  C_22
REMARK    5  A    between atoms: C_22  and  C_23
REMARK                            x       y       z     vdW  Elec       q    Type
REMARK                         _______ _______ _______ _____ _____    ______ ____
ROOT
ATOM      1  C   UNL     1      -0.608   1.009  25.004  0.00  0.00    +0.090 C 
ATOM      2  N   UNL     1      -1.429   1.094  25.033  0.00  0.00    -0.271 NA
ATOM      3  C   UNL     1      -1.861   0.392  25.046  0.00  0.00    +0.083 C 
ATOM      4  C   UNL     1      -1.513  -0.356  25.031  0.00  0.00    +0.035 C 
ATOM      5  C   UNL     1      -2.116  -0.919  25.050  0.00  0.00    +0.074 C 
ATOM      6  N   UNL     1      -2.838  -0.518  25.077  0.00  0.00    -0.262 NA
ATOM     15  C   UNL     1      -2.680   0.292  25.075  0.00  0.00    +0.151 C 
ATOM     16  C   UNL     1      -3.268   0.870  25.098  0.00  0.00    +0.257 C 
ATOM     17  O   UNL     1      -4.044   0.590  25.125  0.00  0.00    -0.272 OA
ATOM     18  N   UNL     1      -3.183   1.690  25.098  0.00  0.00    -0.203 NA
ATOM     19  C   UNL     1      -2.489   2.136  25.075  0.00  0.00    +0.131 C 
ATOM     20  C   UNL     1      -1.708   1.870  25.046  0.00  0.00    +0.080 C 
ENDROOT
BRANCH   6   7
ATOM      7  C   UNL     1      -3.585  -0.867  25.103  0.00  0.00    +0.100 C 
BRANCH   7   8
ATOM      8  C   UNL     1      -3.709  -1.603  24.752  0.00  0.00    -0.006 A 
ATOM      9  C   UNL     1      -4.074  -1.653  24.014  0.00  0.00    -0.003 A 
ATOM     10  C   UNL     1      -4.197  -2.389  23.664  0.00  0.00    -0.005 A 
ATOM     11  C   UNL     1      -3.956  -3.076  24.051  0.00  0.00    -0.022 A 
ATOM     12  C   UNL     1      -4.079  -3.812  23.702  0.00  0.00    +0.031 C 
ATOM     13  C   UNL     1      -3.591  -3.026  24.790  0.00  0.00    -0.005 A 
ATOM     14  C   UNL     1      -3.468  -2.290  25.140  0.00  0.00    -0.003 A 
ENDBRANCH   7   8
ENDBRANCH   6   7
BRANCH  20  21
ATOM     21  C   UNL     1      -1.131   2.460  25.028  0.00  0.00    +0.027 C 
BRANCH  21  22
ATOM     22  C   UNL     1      -1.346   3.250  25.124  0.00  0.00    +0.087 C 
BRANCH  22  23
ATOM     23  C   UNL     1      -0.830   3.850  24.888  0.00  0.00    +0.226 C 
ATOM     24  O   UNL     1      -0.080   3.659  24.600  0.00  0.00    -0.275 OA
ATOM     25  N   UNL     1      -1.065   4.639  24.939  0.00  0.00    -0.280 N 
ATOM     26  C   UNL     1      -0.611   5.294  24.725  0.00  0.00    +0.093 C 
ATOM     27  C   UNL     1      -1.060   5.972  24.867  0.00  0.00    +0.023 C 
ATOM     28  C   UNL     1      -1.789   5.736  25.169  0.00  0.00    +0.023 C 
ATOM     29  C   UNL     1      -1.793   4.912  25.214  0.00  0.00    +0.093 C 
ENDBRANCH  22  23
ENDBRANCH  21  22
ENDBRANCH  20  21
TORSDOF 5
ENDMDL
MODEL 4
REMARK VINA RESULT:     -10.4      0.994      5.716
REMARK  Name = 
REMARK  5 active torsions:
REMARK  status: ('A' for Active; 'I' for Inactive)
REMARK    1  A    between atoms: N_6  and  C_7
REMARK    2  A    between atoms: C_7  and  C_8
REMARK    3  A    between atoms: C_20  and  C_21
REMARK    4  A    between atoms: C_21  and  C_22
REMARK    5  A    between atoms: C_22  and  C_23
REMARK                            x       y       z     vdW  Elec       q    Type
REMARK                         _______ _______ _______ _____ _____    ______ ____
ROOT
ATOM      1  C   UNL     1      -3.133   0.589  23.142  0.00  0.00    +0.090 C 
ATOM      2  N   UNL     1      -3.457   0.952  23.810  0.00  0.00    -0.271 NA
ATOM      3  C   UNL     1      -3.176   1.710  23.976  0.00  0.00    +0.083 C 
ATOM      4  C   UNL     1      -2.608   2.095  23.516  0.00  0.00    +0.035 C 
ATOM      5  C   UNL     1      -2.469   2.836  23.852  0.00  0.00    +0.074 C 
ATOM      6  N   UNL     1      -2.950   2.908  24.519  0.00  0.00    -0.262 NA
ATOM     15  C   UNL     1      -3.387   2.212  24.595  0.00  0.00    +0.151 C 
ATOM     16  C   UNL     1      -3.931   2.081  25.201  0.00  0.00    +0.257 C 
ATOM     17  O   UNL     1      -4.019   2.698  25.742  0.00  0.00    -0.272 OA
ATOM     18  N   UNL     1      -4.398   1.416  25.337  0.00  0.00    -0.203 NA
ATOM     19  C   UNL     1      -4.437   0.716  24.901  0.00  0.00    +0.131 C 
ATOM     20  C   UNL     1      -4.018   0.510  24.221  0.00  0.00    +0.080 C 
ENDROOT
BRANCH   6   7
ATOM      7  C   UNL     1      -2.988   3.562  25.021  0.00  0.00    +0.100 C 
BRANCH   7   8
ATOM      8  C   UNL     1      -2.386   4.126  25.009  0.00  0.00    -0.006 A 
ATOM      9  C   UNL     1      -1.645   3.947  25.324  0.00  0.00    -0.003 A 
ATOM     10  C   UNL     1      -1.045   4.511  25.311  0.00  0.00    -0.005 A 
ATOM     11  C   UNL     1      -1.183   5.256  24.984  0.00  0.00    -0.022 A 
ATOM     12  C   UNL     1      -0.583   5.820  24.971  0.00  0.00    +0.031 C 
ATOM     13  C   UNL     1      -1.925   5.435  24.669  0.00  0.00    -0.005 A 
ATOM     14  C   UNL     1      -2.526   4.871  24.681  0.00  0.00    -0.003 A 
ENDBRANCH   7   8
ENDBRANCH   6   7
BRANCH  20  21
ATOM     21  C   UNL     1      -4.182  -0.238  23.912  0.00  0.00    +0.027 C 
BRANCH  21  22
ATOM     22  C   UNL     1      -4.153  -0.901  24.402  0.00  0.00    +0.087 C 
BRANCH  22  23
ATOM     23  C   UNL     1      -4.172  -1.658  24.073  0.00  0.00    +0.226 C 
ATOM     24  O   UNL     1      -4.563  -1.787  23.358  0.00  0.00    -0.275 OA
ATOM     25  N   UNL     1      -3.800  -2.285  24.459  0.00  0.00    -0.280 N 
ATOM     26  C   UNL     1      -3.773  -3.067  24.199  0.00  0.00    +0.093 C 
ATOM     27  C   UNL     1      -3.347  -3.505  24.752  0.00  0.00    +0.023 C 
ATOM     28  C   UNL     1      -3.110  -2.995  25.354  0.00  0.00    +0.023 C 
ATOM     29  C   UNL     1      -3.391  -2.239  25.173  0.00  0.00    +0.093 C 
ENDBRANCH  22  23
ENDBRANCH  21  22
ENDBRANCH  20  21
TORSDOF 5
ENDMDL
MODEL 5
REMARK VINA RESULT:      -9.9      3.356      4.669
REMARK  Name = 
REMARK  5 active torsions:
REMARK  status: ('A' for Active; 'I' for Inactive)
REMARK    1  A    between atoms: N_6  and  C_7
REMARK    2  A    between atoms: C_7  and  C_8
REMARK    3  A    between atoms: C_20  and  C_21
REMARK    4  A    between atoms: C_21  and  C_22
REMARK    5  A    between atoms: C_22  and  C_23
REMARK                            x       y       z     vdW  Elec       q    Type
REMARK                         _______ _______ _______ _____ _____    ______ ____
ROOT
ATOM      1  C   UNL     1      -0.904  -0.242  24.734  0.00  0.00    +0.090 C 
ATOM      2  N   UNL     1      -1.142   0.396  24.266  0.00  0.00    -0.271 NA
ATOM      3  C   UNL     1      -1.889   0.703  24.434  0.00  0.00    +0.083 C 
ATOM      4  C   UNL     1      -2.381   0.405  25.026  0.00  0.00    +0.035 C 
ATOM      5  C   UNL     1      -3.075   0.850  25.028  0.00  0.00    +0.074 C 
ATOM      6  N   UNL     1      -3.013   1.423  24.437  0.00  0.00    -0.262 NA
ATOM     15  C   UNL     1      -2.280   1.332  24.070  0.00  0.00    +0.151 C 
ATOM     16  C   UNL     1      -2.020   1.808  23.449  0.00  0.00    +0.257 C 
ATOM     17  O   UNL     1      -2.544   2.398  23.206  0.00  0.00    -0.272 OA
ATOM     18  N   UNL     1      -1.305   1.774  23.038  0.00  0.00    -0.203 NA
ATOM     19  C   UNL     1      -0.673   1.254  23.148  0.00  0.00    +0.131 C 
ATOM     20  C   UNL     1      -0.601   0.641  23.694  0.00  0.00    +0.080 C 
ENDROOT
BRANCH   6   7
ATOM      7  C   UNL     1      -3.584   1.988  24.247  0.00  0.00    +0.100 C 
BRANCH   7   8
ATOM      8  C   UNL     1      -4.264   2.057  24.708  0.00  0.00    -0.006 A 
ATOM      9  C   UNL     1      -4.898   1.542  24.590  0.00  0.00    -0.003 A 
ATOM     10  C   UNL     1      -5.577   1.612  25.051  0.00  0.00    -0.005 A 
ATOM     11  C   UNL     1      -5.625   2.197  25.630  0.00  0.00    -0.022 A 
ATOM     12  C   UNL     1      -6.305   2.268  26.091  0.00  0.00    +0.031 C 
ATOM     13  C   UNL     1      -4.991   2.713  25.748  0.00  0.00    -0.005 A 
ATOM     14  C   UNL     1      -4.312   2.643  25.287  0.00  0.00    -0.003 A 
ENDBRANCH   7   8
ENDBRANCH   6   7
BRANCH  20  21
ATOM     21  C   UNL     1       0.107   0.217  23.664  0.00  0.00    +0.027 C 
BRANCH  21  22
ATOM     22  C   UNL     1       0.773   0.552  23.311  0.00  0.00    +0.087 C 
BRANCH  22  23
ATOM     23  C   UNL     1       1.334   0.068  22.947  0.00  0.00    +0.226 C 
ATOM     24  O   UNL     1       1.118  -0.679  22.672  0.00  0.00    -0.275 OA
ATOM     25  N   UNL     1       2.111   0.333  22.859  0.00  0.00    -0.280 N 
ATOM     26  C   UNL     1       2.728  -0.087  22.509  0.00  0.00    +0.093 C 
ATOM     27  C   UNL     1       3.405   0.384  22.539  0.00  0.00    +0.023 C 
ATOM     28  C   UNL     1       3.206   1.094  22.907  0.00  0.00    +0.023 C 
ATOM     29  C   UNL     1       2.405   1.063  23.105  0.00  0.00    +0.093 C 
ENDBRANCH  22  23
ENDBRANCH  21  22
ENDBRANCH  20  21
TORSDOF 5
ENDMDL
