MODEL 1
REMARK VINA RESULT:     -15.7      0.000      0.000
REMARK  Name = 
REMARK  1 active torsions:
REMARK  status: ('A' for Active; 'I' for Inactive)
REMARK    1  A    between atoms: N_13  and  C_14
REMARK                            x       y       z     vdW  Elec       q    Type
REMARK                         _______ _______ _______ _____ _____    ______ ____
ROOT
ATOM      1  C   UNL     1      -1.336   5.147  25.144  0.00  0.00    +0.012 C 
ATOM      2  C   UNL     1      -1.507   4.342  25.087  0.00  0.00    +0.103 C 
ATOM      3  C   UNL     1      -2.261   4.007  25.059  0.00  0.00    +0.051 C 
ATOM      4  C   UNL     1      -3.015   4.342  25.077  0.00  0.00    +0.004 C 
ATOM      5  C   UNL     1      -3.682   3.858  25.039  0.00  0.00    +0.001 C 
ATOM      6  C   UNL     1      -3.594   3.038  24.983  0.00  0.00    +0.008 C 
ATOM      7  C   UNL     1      -4.349   3.374  25.001  0.00  0.00    +0.000 C 
ATOM      8  C   UNL     1      -4.262   2.554  24.945  0.00  0.00    +0.034 C 
ATOM      9  C   UNL     1      -4.174   1.736  24.889  0.00  0.00    +0.023 A 
ATOM     10  C   UNL     1      -3.421   1.402  24.870  0.00  0.00    +0.063 A 
ATOM     11  N   UNL     1      -3.506   0.583  24.813  0.00  0.00    -0.227 NA
ATOM     12  C   UNL     1      -4.313   0.411  24.796  0.00  0.00    +0.183 A 
ATOM     13  N   UNL     1      -4.648  -0.340  24.741  0.00  0.00    -0.189 NA
ATOM     21  S   UNL     1      -4.726   1.124  24.842  0.00  0.00    -0.054 S 
ATOM     22  C   UNL     1      -2.754   1.886  24.908  0.00  0.00    +0.044 C 
ATOM     23  C   UNL     1      -2.000   1.551  24.890  0.00  0.00    +0.006 C 
ATOM     24  C   UNL     1      -2.841   2.704  24.964  0.00  0.00    +0.046 C 
ATOM     25  C   UNL     1      -2.173   3.189  25.002  0.00  0.00    +0.170 C 
ATOM     26  O   UNL     1      -1.366   3.018  24.996  0.00  0.00    -0.452 OA
ATOM     27  C   UNL     1      -0.954   3.730  25.048  0.00  0.00    +0.316 C 
ATOM     28  O   UNL     1      -0.135   3.817  25.059  0.00  0.00    -0.250 OA
ENDROOT
BRANCH  13  14
ATOM     14  C   UNL     1      -4.162  -1.006  24.698  0.00  0.00    +0.073 A 
ATOM     15  C   UNL     1      -4.014  -1.362  23.969  0.00  0.00    +0.019 A 
ATOM     16  C   UNL     1      -3.529  -2.027  23.925  0.00  0.00    +0.031 A 
ATOM     17  C   UNL     1      -3.191  -2.337  24.612  0.00  0.00    +0.140 A 
ATOM     18  F   UNL     1      -2.706  -3.003  24.568  0.00  0.00    -0.204 F 
ATOM     19  C   UNL     1      -3.340  -1.982  25.341  0.00  0.00    +0.031 A 
ATOM     20  C   UNL     1      -3.825  -1.316  25.384  0.00  0.00    +0.019 A 
ENDBRANCH  13  14
TORSDOF 1
ENDMDL
MODEL 2
REMARK VINA RESULT:     -15.6      2.217      4.872
REMARK  Name = 
REMARK  1 active torsions:
REMARK  status: ('A' for Active; 'I' for Inactive)
REMARK    1  A    between atoms: N_13  and  C_14
REMARK                            x       y       z     vdW  Elec       q    Type
REMARK                         _______ _______ _______ _____ _____    ______ ____
ROOT
ATOM      1  C   UNL     1      -2.221  -3.086  24.480  0.00  0.00    +0.012 C 
ATOM      2  C   UNL     1      -2.195  -2.269  24.597  0.00  0.00    +0.103 C 
ATOM      3  C   UNL     1      -2.834  -1.750  24.535  0.00  0.00    +0.051 C 
ATOM      4  C   UNL     1      -3.629  -1.873  24.353  0.00  0.00    +0.004 C 
ATOM      5  C   UNL     1      -4.151  -1.234  24.333  0.00  0.00    +0.001 C 
ATOM      6  C   UNL     1      -3.877  -0.472  24.494  0.00  0.00    +0.008 C 
ATOM      7  C   UNL     1      -4.672  -0.595  24.312  0.00  0.00    +0.000 C 
ATOM      8  C   UNL     1      -4.398   0.167  24.473  0.00  0.00    +0.034 C 
ATOM      9  C   UNL     1      -4.124   0.928  24.634  0.00  0.00    +0.023 A 
ATOM     10  C   UNL     1      -3.329   1.051  24.816  0.00  0.00    +0.063 A 
ATOM     11  N   UNL     1      -3.219   1.858  24.949  0.00  0.00    -0.227 NA
ATOM     12  C   UNL     1      -3.946   2.234  24.849  0.00  0.00    +0.183 A 
ATOM     13  N   UNL     1      -4.089   3.042  24.930  0.00  0.00    -0.189 NA
ATOM     21  S   UNL     1      -4.505   1.659  24.655  0.00  0.00    -0.054 S 
ATOM     22  C   UNL     1      -2.808   0.412  24.836  0.00  0.00    +0.044 C 
ATOM     23  C   UNL     1      -2.012   0.534  25.018  0.00  0.00    +0.006 C 
ATOM     24  C   UNL     1      -3.082  -0.349  24.675  0.00  0.00    +0.046 C 
ATOM     25  C   UNL     1      -2.560  -0.989  24.696  0.00  0.00    +0.170 C 
ATOM     26  O   UNL     1      -1.752  -1.037  24.857  0.00  0.00    -0.452 OA
ATOM     27  C   UNL     1      -1.527  -1.828  24.796  0.00  0.00    +0.316 C 
ATOM     28  O   UNL     1      -0.767  -2.127  24.913  0.00  0.00    -0.250 OA
ENDROOT
BRANCH  13  14
ATOM     14  C   UNL     1      -3.472   3.552  25.128  0.00  0.00    +0.073 A 
ATOM     15  C   UNL     1      -3.332   3.745  25.918  0.00  0.00    +0.019 A 
ATOM     16  C   UNL     1      -2.716   4.254  26.116  0.00  0.00    +0.031 A 
ATOM     17  C   UNL     1      -2.237   4.573  25.524  0.00  0.00    +0.140 A 
ATOM     18  F   UNL     1      -1.620   5.083  25.722  0.00  0.00    -0.204 F 
ATOM     19  C   UNL     1      -2.376   4.381  24.734  0.00  0.00    +0.031 A 
ATOM     20  C   UNL     1      -2.994   3.871  24.536  0.00  0.00    +0.019 A 
ENDBRANCH  13  14
TORSDOF 1
ENDMDL
MODEL 3
REMARK VINA RESULT:     -14.8      2.655      5.407
REMARK  Name = 
REMARK  1 active torsions:
REMARK  status: ('A' for Active; 'I' for Inactive)
REMARK    1  A    between atoms: N_13  and  C_14
REMARK                            x       y       z     vdW  Elec       q    Type
REMARK                         _______ _______ _______ _____ _____    ______ ____
ROOT
ATOM      1  C   UNL     1      -3.722  -2.902  24.189  0.00  0.00    +0.012 C 
ATOM      2  C   UNL     1      -3.548  -2.102  24.293  0.00  0.00    +0.103 C 
ATOM      3  C   UNL     1      -2.832  -1.792  24.563  0.00  0.00    +0.051 C 
ATOM      4  C   UNL     1      -2.127  -2.153  24.793  0.00  0.00    +0.004 C 
ATOM      5  C   UNL     1      -1.491  -1.691  25.043  0.00  0.00    +0.001 C 
ATOM      6  C   UNL     1      -1.560  -0.869  25.063  0.00  0.00    +0.008 C 
ATOM      7  C   UNL     1      -0.854  -1.230  25.293  0.00  0.00    +0.000 C 
ATOM      8  C   UNL     1      -0.923  -0.407  25.313  0.00  0.00    +0.034 C 
ATOM      9  C   UNL     1      -0.993   0.414  25.332  0.00  0.00    +0.023 A 
ATOM     10  C   UNL     1      -1.698   0.775  25.102  0.00  0.00    +0.063 A 
ATOM     11  N   UNL     1      -1.604   1.591  25.179  0.00  0.00    -0.227 NA
ATOM     12  C   UNL     1      -0.841   1.735  25.457  0.00  0.00    +0.183 A 
ATOM     13  N   UNL     1      -0.513   2.476  25.613  0.00  0.00    -0.189 NA
ATOM     21  S   UNL     1      -0.463   1.008  25.552  0.00  0.00    -0.054 S 
ATOM     22  C   UNL     1      -2.334   0.313  24.852  0.00  0.00    +0.044 C 
ATOM     23  C   UNL     1      -3.039   0.674  24.622  0.00  0.00    +0.006 C 
ATOM     24  C   UNL     1      -2.265  -0.508  24.833  0.00  0.00    +0.046 C 
ATOM     25  C   UNL     1      -2.902  -0.970  24.582  0.00  0.00    +0.170 C 
ATOM     26  O   UNL     1      -3.660  -0.772  24.325  0.00  0.00    -0.452 OA
ATOM     27  C   UNL     1      -4.060  -1.471  24.146  0.00  0.00    +0.316 C 
ATOM     28  O   UNL     1      -4.834  -1.530  23.869  0.00  0.00    -0.250 OA
ENDROOT
BRANCH  13  14
ATOM     14  C   UNL     1      -0.960   3.159  25.491  0.00  0.00    +0.073 A 
ATOM     15  C   UNL     1      -0.836   3.619  24.818  0.00  0.00    +0.019 A 
ATOM     16  C   UNL     1      -1.283   4.301  24.696  0.00  0.00    +0.031 A 
ATOM     17  C   UNL     1      -1.855   4.524  25.247  0.00  0.00    +0.140 A 
ATOM     18  F   UNL     1      -2.302   5.206  25.126  0.00  0.00    -0.204 F 
ATOM     19  C   UNL     1      -1.980   4.064  25.921  0.00  0.00    +0.031 A 
ATOM     20  C   UNL     1      -1.532   3.381  26.042  0.00  0.00    +0.019 A 
ENDBRANCH  13  14
TORSDOF 1
ENDMDL
MODEL 4
REMARK VINA RESULT:     -14.5      1.490      2.357
REMARK  Name = 
REMARK  1 active torsions:
REMARK  status: ('A' for Active; 'I' for Inactive)
REMARK    1  A    between atoms: N_13  and  C_14
REMARK                            x       y       z     vdW  Elec       q    Type
REMARK                         _______ _______ _______ _____ _____    ______ ____
ROOT
ATOM      1  C   UNL     1      -1.907   5.017  25.197  0.00  0.00    +0.012 C 
ATOM      2  C   UNL     1      -2.119   4.224  25.113  0.00  0.00    +0.103 C 
ATOM      3  C   UNL     1      -1.638   3.574  25.278  0.00  0.00    +0.051 C 
ATOM      4  C   UNL     1      -0.863   3.516  25.553  0.00  0.00    +0.004 C 
ATOM      5  C   UNL     1      -0.521   2.774  25.668  0.00  0.00    +0.001 C 
ATOM      6  C   UNL     1      -0.954   2.090  25.506  0.00  0.00    +0.008 C 
ATOM      7  C   UNL     1      -0.178   2.033  25.782  0.00  0.00    +0.000 C 
ATOM      8  C   UNL     1      -0.611   1.348  25.621  0.00  0.00    +0.034 C 
ATOM      9  C   UNL     1      -1.044   0.665  25.459  0.00  0.00    +0.023 A 
ATOM     10  C   UNL     1      -1.819   0.723  25.183  0.00  0.00    +0.063 A 
ATOM     11  N   UNL     1      -2.108  -0.042  25.072  0.00  0.00    -0.227 NA
ATOM     12  C   UNL     1      -1.511  -0.573  25.279  0.00  0.00    +0.183 A 
ATOM     13  N   UNL     1      -1.563  -1.395  25.252  0.00  0.00    -0.189 NA
ATOM     21  S   UNL     1      -0.854  -0.135  25.518  0.00  0.00    -0.054 S 
ATOM     22  C   UNL     1      -2.161   1.465  25.069  0.00  0.00    +0.044 C 
ATOM     23  C   UNL     1      -2.937   1.522  24.793  0.00  0.00    +0.006 C 
ATOM     24  C   UNL     1      -1.729   2.148  25.230  0.00  0.00    +0.046 C 
ATOM     25  C   UNL     1      -2.072   2.890  25.116  0.00  0.00    +0.170 C 
ATOM     26  O   UNL     1      -2.819   3.118  24.852  0.00  0.00    -0.452 OA
ATOM     27  C   UNL     1      -2.849   3.942  24.850  0.00  0.00    +0.316 C 
ATOM     28  O   UNL     1      -3.494   4.404  24.625  0.00  0.00    -0.250 OA
ENDROOT
BRANCH  13  14
ATOM     14  C   UNL     1      -2.260  -1.757  25.000  0.00  0.00    +0.073 A 
ATOM     15  C   UNL     1      -2.890  -1.850  25.524  0.00  0.00    +0.019 A 
ATOM     16  C   UNL     1      -3.587  -2.211  25.272  0.00  0.00    +0.031 A 
ATOM     17  C   UNL     1      -3.655  -2.479  24.495  0.00  0.00    +0.140 A 
ATOM     18  F   UNL     1      -4.353  -2.841  24.242  0.00  0.00    -0.204 F 
ATOM     19  C   UNL     1      -3.026  -2.386  23.970  0.00  0.00    +0.031 A 
ATOM     20  C   UNL     1      -2.328  -2.025  24.222  0.00  0.00    +0.019 A 
ENDBRANCH  13  14
TORSDOF 1
ENDMDL
MODEL 5
REMARK VINA RESULT:     -13.2      1.662      2.465
REMARK  Name = 
REMARK  1 active torsions:
REMARK  status: ('A' for Active; 'I' for Inactive)
REMARK    1  A    between atoms: N_13  and  C_14
REMARK                            x       y       z     vdW  Elec       q    Type
REMARK                         _______ _______ _______ _____ _____    ______ ____
ROOT
ATOM      1  C   UNL     1      -5.039   4.654  25.439  0.00  0.00    +0.012 C 
ATOM      2  C   UNL     1      -4.912   3.842  25.371  0.00  0.00    +0.103 C 
ATOM      3  C   UNL     1      -4.204   3.479  25.148  0.00  0.00    +0.051 C 
ATOM      4  C   UNL     1      -3.467   3.787  24.941  0.00  0.00    +0.004 C 
ATOM      5  C   UNL     1      -2.850   3.278  24.739  0.00  0.00    +0.001 C 
ATOM      6  C   UNL     1      -2.970   2.461  24.744  0.00  0.00    +0.008 C 
ATOM      7  C   UNL     1      -2.232   2.770  24.538  0.00  0.00    +0.000 C 
ATOM      8  C   UNL     1      -2.352   1.953  24.543  0.00  0.00    +0.034 C 
ATOM      9  C   UNL     1      -2.472   1.137  24.548  0.00  0.00    +0.023 A 
ATOM     10  C   UNL     1      -3.209   0.829  24.754  0.00  0.00    +0.063 A 
ATOM     11  N   UNL     1      -3.163   0.006  24.710  0.00  0.00    -0.227 NA
ATOM     12  C   UNL     1      -2.398  -0.195  24.476  0.00  0.00    +0.183 A 
ATOM     13  N   UNL     1      -2.110  -0.959  24.363  0.00  0.00    -0.189 NA
ATOM     21  S   UNL     1      -1.971   0.504  24.376  0.00  0.00    -0.054 S 
ATOM     22  C   UNL     1      -3.826   1.338  24.956  0.00  0.00    +0.044 C 
ATOM     23  C   UNL     1      -4.563   1.030  25.163  0.00  0.00    +0.006 C 
ATOM     24  C   UNL     1      -3.706   2.153  24.951  0.00  0.00    +0.046 C 
ATOM     25  C   UNL     1      -4.324   2.663  25.153  0.00  0.00    +0.170 C 
ATOM     26  O   UNL     1      -5.105   2.521  25.379  0.00  0.00    -0.452 OA
ATOM     27  C   UNL     1      -5.468   3.249  25.513  0.00  0.00    +0.316 C 
ATOM     28  O   UNL     1      -6.249   3.365  25.749  0.00  0.00    -0.250 OA
ENDROOT
BRANCH  13  14
ATOM     14  C   UNL     1      -2.605  -1.608  24.485  0.00  0.00    +0.073 A 
ATOM     15  C   UNL     1      -2.619  -1.984  25.219  0.00  0.00    +0.019 A 
ATOM     16  C   UNL     1      -3.113  -2.632  25.342  0.00  0.00    +0.031 A 
ATOM     17  C   UNL     1      -3.594  -2.906  24.730  0.00  0.00    +0.140 A 
ATOM     18  F   UNL     1      -4.089  -3.555  24.852  0.00  0.00    -0.204 F 
ATOM     19  C   UNL     1      -3.581  -2.531  23.995  0.00  0.00    +0.031 A 
ATOM     20  C   UNL     1      -3.086  -1.882  23.873  0.00  0.00    +0.019 A 
ENDBRANCH  13  14
TORSDOF 1
ENDMDL
MODEL 6
REMARK VINA RESULT:     -13.1      1.979      2.937
REMARK  Name = 
REMARK  1 active torsions:
REMARK  status: ('A' for Active; 'I' for Inactive)
REMARK    1  A    between atoms: N_13  and  C_14
REMARK                            x       y       z     vdW  Elec       q    Type
REMARK                         _______ _______ _______ _____ _____    ______ ____
ROOT
ATOM      1  C   UNL     1      -5.580   4.135  25.422  0.00  0.00    +0.012 C 
ATOM      2  C   UNL     1      -5.128   3.450  25.335  0.00  0.00    +0.103 C 
ATOM      3  C   UNL     1      -4.303   3.412  25.326  0.00  0.00    +0.051 C 
ATOM      4  C   UNL     1      -3.723   3.993  25.396  0.00  0.00    +0.004 C 
ATOM      5  C   UNL     1      -2.925   3.785  25.367  0.00  0.00    +0.001 C 
ATOM      6  C   UNL     1      -2.708   2.994  25.268  0.00  0.00    +0.008 C 
ATOM      7  C   UNL     1      -2.127   3.577  25.337  0.00  0.00    +0.000 C 
ATOM      8  C   UNL     1      -1.910   2.786  25.239  0.00  0.00    +0.034 C 
ATOM      9  C   UNL     1      -1.694   1.997  25.140  0.00  0.00    +0.023 A 
ATOM     10  C   UNL     1      -2.274   1.415  25.070  0.00  0.00    +0.063 A 
ATOM     11  N   UNL     1      -1.897   0.687  24.978  0.00  0.00    -0.227 NA
ATOM     12  C   UNL     1      -1.082   0.819  24.991  0.00  0.00    +0.183 A 
ATOM     13  N   UNL     1      -0.497   0.243  24.917  0.00  0.00    -0.189 NA
ATOM     21  S   UNL     1      -0.957   1.628  25.091  0.00  0.00    -0.054 S 
ATOM     22  C   UNL     1      -3.072   1.623  25.099  0.00  0.00    +0.044 C 
ATOM     23  C   UNL     1      -3.653   1.042  25.030  0.00  0.00    +0.006 C 
ATOM     24  C   UNL     1      -3.288   2.413  25.198  0.00  0.00    +0.046 C 
ATOM     25  C   UNL     1      -4.087   2.621  25.227  0.00  0.00    +0.170 C 
ATOM     26  O   UNL     1      -4.777   2.172  25.175  0.00  0.00    -0.452 OA
ATOM     27  C   UNL     1      -5.420   2.684  25.241  0.00  0.00    +0.316 C 
ATOM     28  O   UNL     1      -6.216   2.469  25.218  0.00  0.00    -0.250 OA
ENDROOT
BRANCH  13  14
ATOM     14  C   UNL     1      -0.707  -0.549  24.820  0.00  0.00    +0.073 A 
ATOM     15  C   UNL     1      -0.820  -1.031  25.480  0.00  0.00    +0.019 A 
ATOM     16  C   UNL     1      -1.030  -1.822  25.383  0.00  0.00    +0.031 A 
ATOM     17  C   UNL     1      -1.127  -2.133  24.625  0.00  0.00    +0.140 A 
ATOM     18  F   UNL     1      -1.338  -2.925  24.528  0.00  0.00    -0.204 F 
ATOM     19  C   UNL     1      -1.014  -1.652  23.964  0.00  0.00    +0.031 A 
ATOM     20  C   UNL     1      -0.804  -0.861  24.062  0.00  0.00    +0.019 A 
ENDBRANCH  13  14
TORSDOF 1
ENDMDL
MODEL 7
REMARK VINA RESULT:     -12.4      1.728      2.536
REMARK  Name = 
REMARK  1 active torsions:
REMARK  status: ('A' for Active; 'I' for Inactive)
REMARK    1  A    between atoms: N_13  and  C_14
REMARK                            x       y       z     vdW  Elec       q    Type
REMARK                         _______ _______ _______ _____ _____    ______ ____
ROOT
ATOM      1  C   UNL     1      -5.293   4.318  25.362  0.00  0.00    +0.012 C 
ATOM      2  C   UNL     1      -4.728   3.720  25.300  0.00  0.00    +0.103 C 
ATOM      3  C   UNL     1      -4.882   2.917  25.188  0.00  0.00    +0.051 C 
ATOM      4  C   UNL     1      -5.587   2.496  25.111  0.00  0.00    +0.004 C 
ATOM      5  C   UNL     1      -5.569   1.678  25.002  0.00  0.00    +0.001 C 
ATOM      6  C   UNL     1      -4.845   1.281  24.972  0.00  0.00    +0.008 C 
ATOM      7  C   UNL     1      -5.551   0.860  24.894  0.00  0.00    +0.000 C 
ATOM      8  C   UNL     1      -4.827   0.464  24.863  0.00  0.00    +0.034 C 
ATOM      9  C   UNL     1      -4.105   0.068  24.832  0.00  0.00    +0.023 A 
ATOM     10  C   UNL     1      -3.400   0.489  24.910  0.00  0.00    +0.063 A 
ATOM     11  N   UNL     1      -2.775  -0.047  24.857  0.00  0.00    -0.227 NA
ATOM     12  C   UNL     1      -3.093  -0.800  24.747  0.00  0.00    +0.183 A 
ATOM     13  N   UNL     1      -2.666  -1.501  24.667  0.00  0.00    -0.189 NA
ATOM     21  S   UNL     1      -3.915  -0.729  24.732  0.00  0.00    -0.054 S 
ATOM     22  C   UNL     1      -3.418   1.307  25.018  0.00  0.00    +0.044 C 
ATOM     23  C   UNL     1      -2.713   1.728  25.095  0.00  0.00    +0.006 C 
ATOM     24  C   UNL     1      -4.140   1.703  25.049  0.00  0.00    +0.046 C 
ATOM     25  C   UNL     1      -4.158   2.521  25.157  0.00  0.00    +0.170 C 
ATOM     26  O   UNL     1      -3.558   3.079  25.250  0.00  0.00    -0.452 OA
ATOM     27  C   UNL     1      -3.909   3.820  25.338  0.00  0.00    +0.316 C 
ATOM     28  O   UNL     1      -3.513   4.535  25.445  0.00  0.00    -0.250 OA
ENDROOT
BRANCH  13  14
ATOM     14  C   UNL     1      -1.841  -1.486  24.694  0.00  0.00    +0.073 A 
ATOM     15  C   UNL     1      -1.407  -1.390  23.999  0.00  0.00    +0.019 A 
ATOM     16  C   UNL     1      -0.584  -1.375  24.025  0.00  0.00    +0.031 A 
ATOM     17  C   UNL     1      -0.192  -1.457  24.747  0.00  0.00    +0.140 A 
ATOM     18  F   UNL     1       0.632  -1.443  24.774  0.00  0.00    -0.204 F 
ATOM     19  C   UNL     1      -0.626  -1.554  25.442  0.00  0.00    +0.031 A 
ATOM     20  C   UNL     1      -1.450  -1.568  25.415  0.00  0.00    +0.019 A 
ENDBRANCH  13  14
TORSDOF 1
ENDMDL
MODEL 8
REMARK VINA RESULT:     -12.0      2.414      3.618
REMARK  Name = 
REMARK  1 active torsions:
REMARK  status: ('A' for Active; 'I' for Inactive)
REMARK    1  A    between atoms: N_13  and  C_14
REMARK                            x       y       z     vdW  Elec       q    Type
REMARK                         _______ _______ _______ _____ _____    ______ ____
ROOT
ATOM      1  C   UNL     1       1.266   1.162  23.870  0.00  0.00    +0.012 C 
ATOM      2  C   UNL     1       0.454   1.217  24.009  0.00  0.00    +0.103 C 
ATOM      3  C   UNL     1       0.059   1.872  24.318  0.00  0.00    +0.051 C 
ATOM      4  C   UNL     1       0.326   2.613  24.565  0.00  0.00    +0.004 C 
ATOM      5  C   UNL     1      -0.210   3.168  24.856  0.00  0.00    +0.001 C 
ATOM      6  C   UNL     1      -1.014   2.982  24.901  0.00  0.00    +0.008 C 
ATOM      7  C   UNL     1      -0.746   3.724  25.148  0.00  0.00    +0.000 C 
ATOM      8  C   UNL     1      -1.549   3.538  25.193  0.00  0.00    +0.034 C 
ATOM      9  C   UNL     1      -2.352   3.353  25.238  0.00  0.00    +0.023 A 
ATOM     10  C   UNL     1      -2.619   2.612  24.991  0.00  0.00    +0.063 A 
ATOM     11  N   UNL     1      -3.436   2.587  25.100  0.00  0.00    -0.227 NA
ATOM     12  C   UNL     1      -3.675   3.311  25.413  0.00  0.00    +0.183 A 
ATOM     13  N   UNL     1      -4.447   3.525  25.608  0.00  0.00    -0.189 NA
ATOM     21  S   UNL     1      -3.004   3.785  25.498  0.00  0.00    -0.054 S 
ATOM     22  C   UNL     1      -2.083   2.057  24.700  0.00  0.00    +0.044 C 
ATOM     23  C   UNL     1      -2.350   1.316  24.453  0.00  0.00    +0.006 C 
ATOM     24  C   UNL     1      -1.281   2.242  24.655  0.00  0.00    +0.046 C 
ATOM     25  C   UNL     1      -0.744   1.686  24.363  0.00  0.00    +0.170 C 
ATOM     26  O   UNL     1      -0.845   0.918  24.082  0.00  0.00    -0.452 OA
ATOM     27  C   UNL     1      -0.104   0.627  23.863  0.00  0.00    +0.316 C 
ATOM     28  O   UNL     1       0.051  -0.120  23.552  0.00  0.00    -0.250 OA
ENDROOT
BRANCH  13  14
ATOM     14  C   UNL     1      -5.065   2.991  25.491  0.00  0.00    +0.073 A 
ATOM     15  C   UNL     1      -5.361   2.860  24.732  0.00  0.00    +0.019 A 
ATOM     16  C   UNL     1      -5.978   2.326  24.616  0.00  0.00    +0.031 A 
ATOM     17  C   UNL     1      -6.300   1.921  25.258  0.00  0.00    +0.140 A 
ATOM     18  F   UNL     1      -6.917   1.387  25.142  0.00  0.00    -0.204 F 
ATOM     19  C   UNL     1      -6.005   2.051  26.017  0.00  0.00    +0.031 A 
ATOM     20  C   UNL     1      -5.387   2.586  26.134  0.00  0.00    +0.019 A 
ENDBRANCH  13  14
TORSDOF 1
ENDMDL
MODEL 9
REMARK VINA RESULT:     -11.8      2.387      4.208
REMARK  Name = 
REMARK  1 active torsions:
REMARK  status: ('A' for Active; 'I' for Inactive)
REMARK    1  A    between atoms: N_13  and  C_14
REMARK                            x       y       z     vdW  Elec       q    Type
REMARK                         _______ _______ _______ _____ _____    ______ ____
ROOT
ATOM      1  C   UNL     1       0.648  -0.920  23.872  0.00  0.00    +0.012 C 
ATOM      2  C   UNL     1       0.004  -0.428  24.029  0.00  0.00    +0.103 C 
ATOM      3  C   UNL     1      -0.754  -0.675  24.243  0.00  0.00    +0.051 C 
ATOM      4  C   UNL     1      -1.078  -1.425  24.359  0.00  0.00    +0.004 C 
ATOM      5  C   UNL     1      -1.870  -1.502  24.577  0.00  0.00    +0.001 C 
ATOM      6  C   UNL     1      -2.338  -0.830  24.679  0.00  0.00    +0.008 C 
ATOM      7  C   UNL     1      -2.662  -1.580  24.795  0.00  0.00    +0.000 C 
ATOM      8  C   UNL     1      -3.130  -0.907  24.897  0.00  0.00    +0.034 C 
ATOM      9  C   UNL     1      -3.597  -0.236  24.999  0.00  0.00    +0.023 A 
ATOM     10  C   UNL     1      -3.273   0.514  24.883  0.00  0.00    +0.063 A 
ATOM     11  N   UNL     1      -3.864   1.072  25.023  0.00  0.00    -0.227 NA
ATOM     12  C   UNL     1      -4.554   0.668  25.225  0.00  0.00    +0.183 A 
ATOM     13  N   UNL     1      -5.281   1.010  25.410  0.00  0.00    -0.189 NA
ATOM     21  S   UNL     1      -4.389  -0.141  25.210  0.00  0.00    -0.054 S 
ATOM     22  C   UNL     1      -2.481   0.592  24.665  0.00  0.00    +0.044 C 
ATOM     23  C   UNL     1      -2.157   1.341  24.550  0.00  0.00    +0.006 C 
ATOM     24  C   UNL     1      -2.014  -0.080  24.563  0.00  0.00    +0.046 C 
ATOM     25  C   UNL     1      -1.221  -0.002  24.345  0.00  0.00    +0.170 C 
ATOM     26  O   UNL     1      -0.753   0.660  24.194  0.00  0.00    -0.452 OA
ATOM     27  C   UNL     1       0.004   0.397  23.998  0.00  0.00    +0.316 C 
ATOM     28  O   UNL     1       0.648   0.874  23.806  0.00  0.00    -0.250 OA
ENDROOT
BRANCH  13  14
ATOM     14  C   UNL     1      -5.364   1.831  25.402  0.00  0.00    +0.073 A 
ATOM     15  C   UNL     1      -5.338   2.256  26.109  0.00  0.00    +0.019 A 
ATOM     16  C   UNL     1      -5.421   3.076  26.101  0.00  0.00    +0.031 A 
ATOM     17  C   UNL     1      -5.529   3.473  25.386  0.00  0.00    +0.140 A 
ATOM     18  F   UNL     1      -5.612   4.294  25.378  0.00  0.00    -0.204 F 
ATOM     19  C   UNL     1      -5.555   3.049  24.679  0.00  0.00    +0.031 A 
ATOM     20  C   UNL     1      -5.472   2.228  24.687  0.00  0.00    +0.019 A 
ENDBRANCH  13  14
TORSDOF 1
ENDMDL
