MODEL 1
REMARK VINA RESULT:     -13.2      0.000      0.000
REMARK  Name = 
REMARK  8 active torsions:
REMARK  status: ('A' for Active; 'I' for Inactive)
REMARK    1  A    between atoms: O_2  and  C_3
REMARK    2  A    between atoms: C_7  and  C_8
REMARK    3  A    between atoms: C_8  and  N_9
REMARK    4  A    between atoms: N_9  and  C_10
REMARK    5  A    between atoms: C_10  and  C_11
REMARK    6  A    between atoms: C_13  and  C_14
REMARK    7  A    between atoms: C_14  and  C_15
REMARK    8  A    between atoms: C_18  and  C_20
REMARK                            x       y       z     vdW  Elec       q    Type
REMARK                         _______ _______ _______ _____ _____    ______ ____
ROOT
ATOM     11  C   UNL     1      -4.607   2.967  25.506  0.00  0.00    +0.163 C 
ATOM     12  O   UNL     1      -4.321   2.489  24.898  0.00  0.00    -0.354 OA
ATOM     13  C   UNL     1      -4.776   1.863  24.614  0.00  0.00    +0.121 C 
ATOM     26  C   UNL     1      -5.520   1.714  24.940  0.00  0.00    +0.033 C 
ATOM     27  C   UNL     1      -5.807   2.191  25.548  0.00  0.00    +0.038 C 
ATOM     28  C   UNL     1      -5.351   2.818  25.832  0.00  0.00    +0.180 C 
ATOM     29  O   UNL     1      -5.638   3.295  26.440  0.00  0.00    -0.220 OA
ENDROOT
BRANCH  11  10
ATOM     10  C   UNL     1      -4.152   3.593  25.790  0.00  0.00    +0.121 C 
BRANCH  10   9
ATOM      9  N   UNL     1      -3.414   3.752  25.455  0.00  0.00    -0.211 NA
BRANCH   9   8
ATOM      8  C   UNL     1      -2.843   4.159  25.888  0.00  0.00    +0.115 C 
BRANCH   8   7
ATOM      3  C   UNL     1      -0.782   3.651  25.383  0.00  0.00    +0.138 A 
ATOM      4  C   UNL     1      -0.533   4.351  25.022  0.00  0.00    +0.037 A 
ATOM      5  C   UNL     1      -1.054   4.987  24.950  0.00  0.00    +0.003 A 
ATOM      6  C   UNL     1      -1.824   4.922  25.239  0.00  0.00    -0.003 A 
ATOM      7  C   UNL     1      -2.073   4.224  25.599  0.00  0.00    -0.002 A 
ATOM     30  C   UNL     1      -1.552   3.588  25.671  0.00  0.00    +0.034 A 
BRANCH   3   2
ATOM      1  C   UNL     1      -0.053   2.576  24.788  0.00  0.00    +0.252 C 
ATOM      2  O   UNL     1      -0.261   3.017  25.455  0.00  0.00    -0.471 OA
ENDBRANCH   3   2
ENDBRANCH   8   7
ENDBRANCH   9   8
ENDBRANCH  10   9
ENDBRANCH  11  10
BRANCH  13  14
ATOM     14  C   UNL     1      -4.489   1.386  24.006  0.00  0.00    +0.079 C 
BRANCH  14  15
ATOM     15  C   UNL     1      -4.025   0.727  24.183  0.00  0.00    +0.103 A 
ATOM     16  N   UNL     1      -3.221   0.736  24.366  0.00  0.00    -0.081 NA
ATOM     17  O   UNL     1      -2.982  -0.042  24.504  0.00  0.00    -0.354 OA
ATOM     18  C   UNL     1      -3.639  -0.531  24.406  0.00  0.00    +0.177 A 
ATOM     19  C   UNL     1      -4.284  -0.056  24.207  0.00  0.00    +0.058 A 
BRANCH  18  20
ATOM     20  C   UNL     1      -3.649  -1.352  24.491  0.00  0.00    +0.037 A 
ATOM     21  C   UNL     1      -3.995  -1.822  23.909  0.00  0.00    +0.003 A 
ATOM     22  C   UNL     1      -4.005  -2.643  23.994  0.00  0.00    +0.000 A 
ATOM     23  C   UNL     1      -3.669  -2.992  24.663  0.00  0.00    +0.000 A 
ATOM     24  C   UNL     1      -3.323  -2.522  25.244  0.00  0.00    +0.000 A 
ATOM     25  C   UNL     1      -3.313  -1.701  25.159  0.00  0.00    +0.003 A 
ENDBRANCH  18  20
ENDBRANCH  14  15
ENDBRANCH  13  14
TORSDOF 8
ENDMDL
MODEL 2
REMARK VINA RESULT:     -12.6      1.178      4.946
REMARK  Name = 
REMARK  8 active torsions:
REMARK  status: ('A' for Active; 'I' for Inactive)
REMARK    1  A    between atoms: O_2  and  C_3
REMARK    2  A    between atoms: C_7  and  C_8
REMARK    3  A    between atoms: C_8  and  N_9
REMARK    4  A    between atoms: N_9  and  C_10
REMARK    5  A    between atoms: C_10  and  C_11
REMARK    6  A    between atoms: C_13  and  C_14
REMARK    7  A    between atoms: C_14  and  C_15
REMARK    8  A    between atoms: C_18  and  C_20
REMARK                            x       y       z     vdW  Elec       q    Type
REMARK                         _______ _______ _______ _____ _____    ______ ____
ROOT
ATOM     11  C   UNL     1      -0.671   1.747  25.032  0.00  0.00    +0.163 C 
ATOM     12  O   UNL     1      -1.271   2.209  25.359  0.00  0.00    -0.354 OA
ATOM     13  C   UNL     1      -1.257   3.028  25.268  0.00  0.00    +0.121 C 
ATOM     26  C   UNL     1      -0.644   3.386  24.849  0.00  0.00    +0.033 C 
ATOM     27  C   UNL     1      -0.044   2.925  24.521  0.00  0.00    +0.038 C 
ATOM     28  C   UNL     1      -0.058   2.105  24.612  0.00  0.00    +0.180 C 
ATOM     29  O   UNL     1       0.542   1.643  24.284  0.00  0.00    -0.220 OA
ENDROOT
BRANCH  11  10
ATOM     10  C   UNL     1      -0.685   0.927  25.123  0.00  0.00    +0.121 C 
BRANCH  10   9
ATOM      9  N   UNL     1      -1.406   0.528  25.160  0.00  0.00    -0.211 NA
BRANCH   9   8
ATOM      8  C   UNL     1      -1.420  -0.286  25.291  0.00  0.00    +0.115 C 
BRANCH   8   7
ATOM      3  C   UNL     1      -3.149  -1.441  24.625  0.00  0.00    +0.138 A 
ATOM      4  C   UNL     1      -3.579  -1.498  25.327  0.00  0.00    +0.037 A 
ATOM      5  C   UNL     1      -3.289  -1.151  26.017  0.00  0.00    +0.003 A 
ATOM      6  C   UNL     1      -2.569  -0.747  26.005  0.00  0.00    -0.003 A 
ATOM      7  C   UNL     1      -2.140  -0.690  25.304  0.00  0.00    -0.002 A 
ATOM     30  C   UNL     1      -2.430  -1.037  24.613  0.00  0.00    +0.034 A 
BRANCH   3   2
ATOM      1  C   UNL     1      -4.251  -1.888  23.833  0.00  0.00    +0.252 C 
ATOM      2  O   UNL     1      -3.438  -1.787  23.935  0.00  0.00    -0.471 OA
ENDBRANCH   3   2
ENDBRANCH   8   7
ENDBRANCH   9   8
ENDBRANCH  10   9
ENDBRANCH  11  10
BRANCH  13  14
ATOM     14  C   UNL     1      -1.856   3.490  25.596  0.00  0.00    +0.079 C 
BRANCH  14  15
ATOM     15  C   UNL     1      -2.622   3.451  25.289  0.00  0.00    +0.103 A 
ATOM     16  N   UNL     1      -2.917   3.904  24.666  0.00  0.00    -0.081 NA
ATOM     17  O   UNL     1      -3.704   3.685  24.543  0.00  0.00    -0.354 OA
ATOM     18  C   UNL     1      -3.894   3.098  25.091  0.00  0.00    +0.177 A 
ATOM     19  C   UNL     1      -3.225   2.953  25.552  0.00  0.00    +0.058 A 
BRANCH  18  20
ATOM     20  C   UNL     1      -4.624   2.721  25.164  0.00  0.00    +0.037 A 
ATOM     21  C   UNL     1      -5.185   3.009  25.696  0.00  0.00    +0.003 A 
ATOM     22  C   UNL     1      -5.915   2.632  25.769  0.00  0.00    +0.000 A 
ATOM     23  C   UNL     1      -6.085   1.968  25.309  0.00  0.00    +0.000 A 
ATOM     24  C   UNL     1      -5.524   1.681  24.777  0.00  0.00    +0.000 A 
ATOM     25  C   UNL     1      -4.793   2.058  24.704  0.00  0.00    +0.003 A 
ENDBRANCH  18  20
ENDBRANCH  14  15
ENDBRANCH  13  14
TORSDOF 8
ENDMDL
MODEL 3
REMARK VINA RESULT:     -12.6      1.797      2.827
REMARK  Name = 
REMARK  8 active torsions:
REMARK  status: ('A' for Active; 'I' for Inactive)
REMARK    1  A    between atoms: O_2  and  C_3
REMARK    2  A    between atoms: C_7  and  C_8
REMARK    3  A    between atoms: C_8  and  N_9
REMARK    4  A    between atoms: N_9  and  C_10
REMARK    5  A    between atoms: C_10  and  C_11
REMARK    6  A    between atoms: C_13  and  C_14
REMARK    7  A    between atoms: C_14  and  C_15
REMARK    8  A    between atoms: C_18  and  C_20
REMARK                            x       y       z     vdW  Elec       q    Type
REMARK                         _______ _______ _______ _____ _____    ______ ____
ROOT
ATOM     11  C   UNL     1      -2.440   2.921  24.963  0.00  0.00    +0.163 C 
ATOM     12  O   UNL     1      -2.981   2.394  24.630  0.00  0.00    -0.354 OA
ATOM     13  C   UNL     1      -3.789   2.549  24.674  0.00  0.00    +0.121 C 
ATOM     26  C   UNL     1      -4.058   3.232  25.052  0.00  0.00    +0.033 C 
ATOM     27  C   UNL     1      -3.519   3.759  25.385  0.00  0.00    +0.038 C 
ATOM     28  C   UNL     1      -2.709   3.604  25.340  0.00  0.00    +0.180 C 
ATOM     29  O   UNL     1      -2.169   4.131  25.674  0.00  0.00    -0.220 OA
ENDROOT
BRANCH  11  10
ATOM     10  C   UNL     1      -1.632   2.766  24.919  0.00  0.00    +0.121 C 
BRANCH  10   9
ATOM      9  N   UNL     1      -1.364   2.065  24.576  0.00  0.00    -0.211 NA
BRANCH   9   8
ATOM      8  C   UNL     1      -0.619   1.768  24.771  0.00  0.00    +0.115 C 
BRANCH   8   7
ATOM      3  C   UNL     1       0.238   0.181  23.541  0.00  0.00    +0.138 A 
ATOM      4  C   UNL     1       0.060  -0.483  23.998  0.00  0.00    +0.037 A 
ATOM      5  C   UNL     1      -0.345  -0.397  24.712  0.00  0.00    +0.003 A 
ATOM      6  C   UNL     1      -0.571   0.354  24.970  0.00  0.00    -0.003 A 
ATOM      7  C   UNL     1      -0.393   1.018  24.514  0.00  0.00    -0.002 A 
ATOM     30  C   UNL     1       0.011   0.931  23.800  0.00  0.00    +0.034 A 
BRANCH   3   2
ATOM      1  C   UNL     1       1.437  -0.124  22.828  0.00  0.00    +0.252 C 
ATOM      2  O   UNL     1       0.641   0.095  22.828  0.00  0.00    -0.471 OA
ENDBRANCH   3   2
ENDBRANCH   8   7
ENDBRANCH   9   8
ENDBRANCH  10   9
ENDBRANCH  11  10
BRANCH  13  14
ATOM     14  C   UNL     1      -4.329   2.023  24.341  0.00  0.00    +0.079 C 
BRANCH  14  15
ATOM     15  C   UNL     1      -4.404   1.259  24.647  0.00  0.00    +0.103 A 
ATOM     16  N   UNL     1      -4.800   1.052  25.340  0.00  0.00    -0.081 NA
ATOM     17  O   UNL     1      -4.736   0.234  25.435  0.00  0.00    -0.354 OA
ATOM     18  C   UNL     1      -4.300  -0.062  24.800  0.00  0.00    +0.177 A 
ATOM     19  C   UNL     1      -4.094   0.571  24.313  0.00  0.00    +0.058 A 
BRANCH  18  20
ATOM     20  C   UNL     1      -4.104  -0.854  24.675  0.00  0.00    +0.037 A 
ATOM     21  C   UNL     1      -3.713  -1.280  25.264  0.00  0.00    +0.003 A 
ATOM     22  C   UNL     1      -3.517  -2.072  25.138  0.00  0.00    +0.000 A 
ATOM     23  C   UNL     1      -3.712  -2.437  24.424  0.00  0.00    +0.000 A 
ATOM     24  C   UNL     1      -4.102  -2.011  23.836  0.00  0.00    +0.000 A 
ATOM     25  C   UNL     1      -4.298  -1.219  23.961  0.00  0.00    +0.003 A 
ENDBRANCH  18  20
ENDBRANCH  14  15
ENDBRANCH  13  14
TORSDOF 8
ENDMDL
MODEL 4
REMARK VINA RESULT:     -12.5      1.439      4.318
REMARK  Name = 
REMARK  8 active torsions:
REMARK  status: ('A' for Active; 'I' for Inactive)
REMARK    1  A    between atoms: O_2  and  C_3
REMARK    2  A    between atoms: C_7  and  C_8
REMARK    3  A    between atoms: C_8  and  N_9
REMARK    4  A    between atoms: N_9  and  C_10
REMARK    5  A    between atoms: C_10  and  C_11
REMARK    6  A    between atoms: C_13  and  C_14
REMARK    7  A    between atoms: C_14  and  C_15
REMARK    8  A    between atoms: C_18  and  C_20
REMARK                            x       y       z     vdW  Elec       q    Type
REMARK                         _______ _______ _______ _____ _____    ______ ____
ROOT
ATOM     11  C   UNL     1      -3.747  -0.872  24.676  0.00  0.00    +0.163 C 
ATOM     12  O   UNL     1      -3.041  -0.712  25.072  0.00  0.00    -0.354 OA
ATOM     13  C   UNL     1      -2.458  -1.291  25.127  0.00  0.00    +0.121 C 
ATOM     26  C   UNL     1      -2.580  -2.032  24.786  0.00  0.00    +0.033 C 
ATOM     27  C   UNL     1      -3.285  -2.194  24.389  0.00  0.00    +0.038 C 
ATOM     28  C   UNL     1      -3.869  -1.613  24.335  0.00  0.00    +0.180 C 
ATOM     29  O   UNL     1      -4.574  -1.774  23.939  0.00  0.00    -0.220 OA
ENDROOT
BRANCH  11  10
ATOM     10  C   UNL     1      -4.330  -0.292  24.621  0.00  0.00    +0.121 C 
BRANCH  10   9
ATOM      9  N   UNL     1      -4.122   0.490  24.456  0.00  0.00    -0.211 NA
BRANCH   9   8
ATOM      8  C   UNL     1      -4.653   1.101  24.616  0.00  0.00    +0.115 C 
BRANCH   8   7
ATOM      3  C   UNL     1      -4.146   3.135  25.222  0.00  0.00    +0.138 A 
ATOM      4  C   UNL     1      -3.901   3.456  24.502  0.00  0.00    +0.037 A 
ATOM      5  C   UNL     1      -3.907   2.992  23.820  0.00  0.00    +0.003 A 
ATOM      6  C   UNL     1      -4.158   2.207  23.858  0.00  0.00    -0.003 A 
ATOM      7  C   UNL     1      -4.402   1.886  24.577  0.00  0.00    -0.002 A 
ATOM     30  C   UNL     1      -4.396   2.350  25.259  0.00  0.00    +0.034 A 
BRANCH   3   2
ATOM      1  C   UNL     1      -3.486   4.075  26.073  0.00  0.00    +0.252 C 
ATOM      2  O   UNL     1      -4.140   3.599  25.903  0.00  0.00    -0.471 OA
ENDBRANCH   3   2
ENDBRANCH   8   7
ENDBRANCH   9   8
ENDBRANCH  10   9
ENDBRANCH  11  10
BRANCH  13  14
ATOM     14  C   UNL     1      -1.753  -1.131  25.523  0.00  0.00    +0.079 C 
BRANCH  14  15
ATOM     15  C   UNL     1      -1.260  -0.523  25.259  0.00  0.00    +0.103 A 
ATOM     16  N   UNL     1      -0.679  -0.589  24.678  0.00  0.00    -0.081 NA
ATOM     17  O   UNL     1      -0.322   0.150  24.589  0.00  0.00    -0.354 OA
ATOM     18  C   UNL     1      -0.683   0.672  25.116  0.00  0.00    +0.177 A 
ATOM     19  C   UNL     1      -1.263   0.256  25.530  0.00  0.00    +0.058 A 
BRANCH  18  20
ATOM     20  C   UNL     1      -0.497   1.470  25.212  0.00  0.00    +0.037 A 
ATOM     21  C   UNL     1      -0.421   1.958  24.552  0.00  0.00    +0.003 A 
ATOM     22  C   UNL     1      -0.234   2.756  24.648  0.00  0.00    +0.000 A 
ATOM     23  C   UNL     1      -0.124   3.065  25.405  0.00  0.00    +0.000 A 
ATOM     24  C   UNL     1      -0.201   2.577  26.065  0.00  0.00    +0.000 A 
ATOM     25  C   UNL     1      -0.387   1.779  25.969  0.00  0.00    +0.003 A 
ENDBRANCH  18  20
ENDBRANCH  14  15
ENDBRANCH  13  14
TORSDOF 8
ENDMDL
MODEL 5
REMARK VINA RESULT:     -12.5      1.328      3.595
REMARK  Name = 
REMARK  8 active torsions:
REMARK  status: ('A' for Active; 'I' for Inactive)
REMARK    1  A    between atoms: O_2  and  C_3
REMARK    2  A    between atoms: C_7  and  C_8
REMARK    3  A    between atoms: C_8  and  N_9
REMARK    4  A    between atoms: N_9  and  C_10
REMARK    5  A    between atoms: C_10  and  C_11
REMARK    6  A    between atoms: C_13  and  C_14
REMARK    7  A    between atoms: C_14  and  C_15
REMARK    8  A    between atoms: C_18  and  C_20
REMARK                            x       y       z     vdW  Elec       q    Type
REMARK                         _______ _______ _______ _____ _____    ______ ____
ROOT
ATOM     11  C   UNL     1      -1.264   2.488  24.782  0.00  0.00    +0.163 C 
ATOM     12  O   UNL     1      -1.443   1.778  25.162  0.00  0.00    -0.354 OA
ATOM     13  C   UNL     1      -0.853   1.216  25.286  0.00  0.00    +0.121 C 
ATOM     26  C   UNL     1      -0.083   1.363  25.030  0.00  0.00    +0.033 C 
ATOM     27  C   UNL     1       0.098   2.072  24.650  0.00  0.00    +0.038 C 
ATOM     28  C   UNL     1      -0.493   2.635  24.526  0.00  0.00    +0.180 C 
ATOM     29  O   UNL     1      -0.313   3.345  24.146  0.00  0.00    -0.220 OA
ENDROOT
BRANCH  11  10
ATOM     10  C   UNL     1      -1.853   3.050  24.657  0.00  0.00    +0.121 C 
BRANCH  10   9
ATOM      9  N   UNL     1      -2.627   2.899  24.902  0.00  0.00    -0.211 NA
BRANCH   9   8
ATOM      8  C   UNL     1      -3.246   3.369  24.627  0.00  0.00    +0.115 C 
BRANCH   8   7
ATOM      3  C   UNL     1      -5.213   2.467  24.913  0.00  0.00    +0.138 A 
ATOM      4  C   UNL     1      -5.549   2.992  25.454  0.00  0.00    +0.037 A 
ATOM      5  C   UNL     1      -5.116   3.642  25.720  0.00  0.00    +0.003 A 
ATOM      6  C   UNL     1      -4.349   3.768  25.444  0.00  0.00    -0.003 A 
ATOM      7  C   UNL     1      -4.014   3.243  24.903  0.00  0.00    -0.002 A 
ATOM     30  C   UNL     1      -4.446   2.593  24.637  0.00  0.00    +0.034 A 
BRANCH   3   2
ATOM      1  C   UNL     1      -6.338   1.594  25.038  0.00  0.00    +0.252 C 
ATOM      2  O   UNL     1      -5.645   1.817  24.647  0.00  0.00    -0.471 OA
ENDBRANCH   3   2
ENDBRANCH   8   7
ENDBRANCH   9   8
ENDBRANCH  10   9
ENDBRANCH  11  10
BRANCH  13  14
ATOM     14  C   UNL     1      -1.033   0.506  25.666  0.00  0.00    +0.079 C 
BRANCH  14  15
ATOM     15  C   UNL     1      -1.330  -0.130  25.232  0.00  0.00    +0.103 A 
ATOM     16  N   UNL     1      -0.891  -0.634  24.750  0.00  0.00    -0.081 NA
ATOM     17  O   UNL     1      -1.409  -1.190  24.425  0.00  0.00    -0.354 OA
ATOM     18  C   UNL     1      -2.167  -1.028  24.707  0.00  0.00    +0.177 A 
ATOM     19  C   UNL     1      -2.118  -0.373  25.207  0.00  0.00    +0.058 A 
BRANCH  18  20
ATOM     20  C   UNL     1      -2.853  -1.448  24.522  0.00  0.00    +0.037 A 
ATOM     21  C   UNL     1      -2.896  -2.256  24.679  0.00  0.00    +0.003 A 
ATOM     22  C   UNL     1      -3.582  -2.676  24.495  0.00  0.00    +0.000 A 
ATOM     23  C   UNL     1      -4.224  -2.286  24.153  0.00  0.00    +0.000 A 
ATOM     24  C   UNL     1      -4.181  -1.478  23.996  0.00  0.00    +0.000 A 
ATOM     25  C   UNL     1      -3.494  -1.058  24.181  0.00  0.00    +0.003 A 
ENDBRANCH  18  20
ENDBRANCH  14  15
ENDBRANCH  13  14
TORSDOF 8
ENDMDL
MODEL 6
REMARK VINA RESULT:     -12.5      1.207      4.307
REMARK  Name = 
REMARK  8 active torsions:
REMARK  status: ('A' for Active; 'I' for Inactive)
REMARK    1  A    between atoms: O_2  and  C_3
REMARK    2  A    between atoms: C_7  and  C_8
REMARK    3  A    between atoms: C_8  and  N_9
REMARK    4  A    between atoms: N_9  and  C_10
REMARK    5  A    between atoms: C_10  and  C_11
REMARK    6  A    between atoms: C_13  and  C_14
REMARK    7  A    between atoms: C_14  and  C_15
REMARK    8  A    between atoms: C_18  and  C_20
REMARK                            x       y       z     vdW  Elec       q    Type
REMARK                         _______ _______ _______ _____ _____    ______ ____
ROOT
ATOM     11  C   UNL     1      -5.077   2.030  25.050  0.00  0.00    +0.163 C 
ATOM     12  O   UNL     1      -4.455   2.525  24.826  0.00  0.00    -0.354 OA
ATOM     13  C   UNL     1      -4.477   3.326  25.017  0.00  0.00    +0.121 C 
ATOM     26  C   UNL     1      -5.120   3.634  25.431  0.00  0.00    +0.033 C 
ATOM     27  C   UNL     1      -5.742   3.141  25.656  0.00  0.00    +0.038 C 
ATOM     28  C   UNL     1      -5.720   2.338  25.465  0.00  0.00    +0.180 C 
ATOM     29  O   UNL     1      -6.341   1.844  25.689  0.00  0.00    -0.220 OA
ENDROOT
BRANCH  11  10
ATOM     10  C   UNL     1      -5.055   1.228  24.859  0.00  0.00    +0.121 C 
BRANCH  10   9
ATOM      9  N   UNL     1      -4.412   0.765  25.090  0.00  0.00    -0.211 NA
BRANCH   9   8
ATOM      8  C   UNL     1      -4.262   0.048  24.713  0.00  0.00    +0.115 C 
BRANCH   8   7
ATOM      3  C   UNL     1      -2.232  -0.752  24.739  0.00  0.00    +0.138 A 
ATOM      4  C   UNL     1      -2.289  -1.303  25.352  0.00  0.00    +0.037 A 
ATOM      5  C   UNL     1      -3.004  -1.403  25.751  0.00  0.00    +0.003 A 
ATOM      6  C   UNL     1      -3.662  -0.952  25.538  0.00  0.00    -0.003 A 
ATOM      7  C   UNL     1      -3.605  -0.403  24.926  0.00  0.00    -0.002 A 
ATOM     30  C   UNL     1      -2.890  -0.302  24.527  0.00  0.00    +0.034 A 
BRANCH   3   2
ATOM      1  C   UNL     1      -0.848  -1.070  24.582  0.00  0.00    +0.252 C 
ATOM      2  O   UNL     1      -1.518  -0.652  24.341  0.00  0.00    -0.471 OA
ENDBRANCH   3   2
ENDBRANCH   8   7
ENDBRANCH   9   8
ENDBRANCH  10   9
ENDBRANCH  11  10
BRANCH  13  14
ATOM     14  C   UNL     1      -3.856   3.820  24.793  0.00  0.00    +0.079 C 
BRANCH  14  15
ATOM     15  C   UNL     1      -3.124   3.759  25.170  0.00  0.00    +0.103 A 
ATOM     16  N   UNL     1      -2.885   4.181  25.837  0.00  0.00    -0.081 NA
ATOM     17  O   UNL     1      -2.116   3.947  26.024  0.00  0.00    -0.354 OA
ATOM     18  C   UNL     1      -1.880   3.382  25.472  0.00  0.00    +0.177 A 
ATOM     19  C   UNL     1      -2.503   3.265  24.943  0.00  0.00    +0.058 A 
BRANCH  18  20
ATOM     20  C   UNL     1      -1.148   3.000  25.452  0.00  0.00    +0.037 A 
ATOM     21  C   UNL     1      -0.728   2.950  24.744  0.00  0.00    +0.003 A 
ATOM     22  C   UNL     1       0.003   2.568  24.724  0.00  0.00    +0.000 A 
ATOM     23  C   UNL     1       0.313   2.236  25.413  0.00  0.00    +0.000 A 
ATOM     24  C   UNL     1      -0.107   2.286  26.120  0.00  0.00    +0.000 A 
ATOM     25  C   UNL     1      -0.838   2.668  26.140  0.00  0.00    +0.003 A 
ENDBRANCH  18  20
ENDBRANCH  14  15
ENDBRANCH  13  14
TORSDOF 8
ENDMDL
MODEL 7
REMARK VINA RESULT:     -12.4      1.547      3.865
REMARK  Name = 
REMARK  8 active torsions:
REMARK  status: ('A' for Active; 'I' for Inactive)
REMARK    1  A    between atoms: O_2  and  C_3
REMARK    2  A    between atoms: C_7  and  C_8
REMARK    3  A    between atoms: C_8  and  N_9
REMARK    4  A    between atoms: N_9  and  C_10
REMARK    5  A    between atoms: C_10  and  C_11
REMARK    6  A    between atoms: C_13  and  C_14
REMARK    7  A    between atoms: C_14  and  C_15
REMARK    8  A    between atoms: C_18  and  C_20
REMARK                            x       y       z     vdW  Elec       q    Type
REMARK                         _______ _______ _______ _____ _____    ______ ____
ROOT
ATOM     11  C   UNL     1      -1.247  -0.692  25.249  0.00  0.00    +0.163 C 
ATOM     12  O   UNL     1      -2.045  -0.651  25.455  0.00  0.00    -0.354 OA
ATOM     13  C   UNL     1      -2.554  -1.269  25.258  0.00  0.00    +0.121 C 
ATOM     26  C   UNL     1      -2.266  -1.929  24.855  0.00  0.00    +0.033 C 
ATOM     27  C   UNL     1      -1.468  -1.971  24.649  0.00  0.00    +0.038 C 
ATOM     28  C   UNL     1      -0.958  -1.352  24.846  0.00  0.00    +0.180 C 
ATOM     29  O   UNL     1      -0.161  -1.394  24.640  0.00  0.00    -0.220 OA
ENDROOT
BRANCH  11  10
ATOM     10  C   UNL     1      -0.738  -0.074  25.446  0.00  0.00    +0.121 C 
BRANCH  10   9
ATOM      9  N   UNL     1      -0.924   0.700  25.230  0.00  0.00    -0.211 NA
BRANCH   9   8
ATOM      8  C   UNL     1      -0.511   1.332  25.561  0.00  0.00    +0.115 C 
BRANCH   8   7
ATOM      3  C   UNL     1      -1.304   3.364  25.498  0.00  0.00    +0.138 A 
ATOM      4  C   UNL     1      -0.963   3.644  24.800  0.00  0.00    +0.037 A 
ATOM      5  C   UNL     1      -0.471   3.152  24.356  0.00  0.00    +0.003 A 
ATOM      6  C   UNL     1      -0.321   2.381  24.610  0.00  0.00    -0.003 A 
ATOM      7  C   UNL     1      -0.661   2.102  25.307  0.00  0.00    -0.002 A 
ATOM     30  C   UNL     1      -1.153   2.594  25.751  0.00  0.00    +0.034 A 
BRANCH   3   2
ATOM      1  C   UNL     1      -2.087   4.554  25.613  0.00  0.00    +0.252 C 
ATOM      2  O   UNL     1      -1.795   3.855  25.942  0.00  0.00    -0.471 OA
ENDBRANCH   3   2
ENDBRANCH   8   7
ENDBRANCH   9   8
ENDBRANCH  10   9
ENDBRANCH  11  10
BRANCH  13  14
ATOM     14  C   UNL     1      -3.351  -1.228  25.463  0.00  0.00    +0.079 C 
BRANCH  14  15
ATOM     15  C   UNL     1      -3.844  -0.674  25.097  0.00  0.00    +0.103 A 
ATOM     16  N   UNL     1      -4.246  -0.780  24.386  0.00  0.00    -0.081 NA
ATOM     17  O   UNL     1      -4.671  -0.090  24.229  0.00  0.00    -0.354 OA
ATOM     18  C   UNL     1      -4.530   0.442  24.844  0.00  0.00    +0.177 A 
ATOM     19  C   UNL     1      -4.019   0.080  25.381  0.00  0.00    +0.058 A 
BRANCH  18  20
ATOM     20  C   UNL     1      -4.846   1.202  24.910  0.00  0.00    +0.037 A 
ATOM     21  C   UNL     1      -4.511   1.825  24.486  0.00  0.00    +0.003 A 
ATOM     22  C   UNL     1      -4.827   2.585  24.551  0.00  0.00    +0.000 A 
ATOM     23  C   UNL     1      -5.477   2.720  25.042  0.00  0.00    +0.000 A 
ATOM     24  C   UNL     1      -5.810   2.096  25.466  0.00  0.00    +0.000 A 
ATOM     25  C   UNL     1      -5.495   1.336  25.400  0.00  0.00    +0.003 A 
ENDBRANCH  18  20
ENDBRANCH  14  15
ENDBRANCH  13  14
TORSDOF 8
ENDMDL
MODEL 8
REMARK VINA RESULT:     -12.2      1.421      5.258
REMARK  Name = 
REMARK  8 active torsions:
REMARK  status: ('A' for Active; 'I' for Inactive)
REMARK    1  A    between atoms: O_2  and  C_3
REMARK    2  A    between atoms: C_7  and  C_8
REMARK    3  A    between atoms: C_8  and  N_9
REMARK    4  A    between atoms: N_9  and  C_10
REMARK    5  A    between atoms: C_10  and  C_11
REMARK    6  A    between atoms: C_13  and  C_14
REMARK    7  A    between atoms: C_14  and  C_15
REMARK    8  A    between atoms: C_18  and  C_20
REMARK                            x       y       z     vdW  Elec       q    Type
REMARK                         _______ _______ _______ _____ _____    ______ ____
ROOT
ATOM     11  C   UNL     1      -1.952  -0.497  24.612  0.00  0.00    +0.163 C 
ATOM     12  O   UNL     1      -1.509   0.184  24.467  0.00  0.00    -0.354 OA
ATOM     13  C   UNL     1      -0.693   0.178  24.584  0.00  0.00    +0.121 C 
ATOM     26  C   UNL     1      -0.319  -0.508  24.847  0.00  0.00    +0.033 C 
ATOM     27  C   UNL     1      -0.760  -1.189  24.993  0.00  0.00    +0.038 C 
ATOM     28  C   UNL     1      -1.577  -1.184  24.875  0.00  0.00    +0.180 C 
ATOM     29  O   UNL     1      -2.019  -1.865  25.021  0.00  0.00    -0.220 OA
ENDROOT
BRANCH  11  10
ATOM     10  C   UNL     1      -2.768  -0.492  24.495  0.00  0.00    +0.121 C 
BRANCH  10   9
ATOM      9  N   UNL     1      -3.214   0.163  24.723  0.00  0.00    -0.211 NA
BRANCH   9   8
ATOM      8  C   UNL     1      -3.965   0.283  24.404  0.00  0.00    +0.115 C 
BRANCH   8   7
ATOM      3  C   UNL     1      -5.238   1.861  25.211  0.00  0.00    +0.138 A 
ATOM      4  C   UNL     1      -5.093   2.470  24.672  0.00  0.00    +0.037 A 
ATOM      5  C   UNL     1      -4.571   2.349  24.045  0.00  0.00    +0.003 A 
ATOM      6  C   UNL     1      -4.195   1.620  23.956  0.00  0.00    -0.003 A 
ATOM      7  C   UNL     1      -4.341   1.012  24.493  0.00  0.00    -0.002 A 
ATOM     30  C   UNL     1      -4.862   1.133  25.121  0.00  0.00    +0.034 A 
BRANCH   3   2
ATOM      1  C   UNL     1      -5.823   2.728  26.185  0.00  0.00    +0.252 C 
ATOM      2  O   UNL     1      -5.759   1.981  25.838  0.00  0.00    -0.471 OA
ENDBRANCH   3   2
ENDBRANCH   8   7
ENDBRANCH   9   8
ENDBRANCH  10   9
ENDBRANCH  11  10
BRANCH  13  14
ATOM     14  C   UNL     1      -0.251   0.859  24.439  0.00  0.00    +0.079 C 
BRANCH  14  15
ATOM     15  C   UNL     1      -0.370   1.535  24.899  0.00  0.00    +0.103 A 
ATOM     16  N   UNL     1      -0.150   1.628  25.688  0.00  0.00    -0.081 NA
ATOM     17  O   UNL     1      -0.375   2.386  25.926  0.00  0.00    -0.354 OA
ATOM     18  C   UNL     1      -0.733   2.760  25.284  0.00  0.00    +0.177 A 
ATOM     19  C   UNL     1      -0.731   2.233  24.649  0.00  0.00    +0.058 A 
BRANCH  18  20
ATOM     20  C   UNL     1      -1.040   3.526  25.279  0.00  0.00    +0.037 A 
ATOM     21  C   UNL     1      -1.740   3.692  25.682  0.00  0.00    +0.003 A 
ATOM     22  C   UNL     1      -2.048   4.458  25.676  0.00  0.00    +0.000 A 
ATOM     23  C   UNL     1      -1.654   5.057  25.267  0.00  0.00    +0.000 A 
ATOM     24  C   UNL     1      -0.954   4.890  24.864  0.00  0.00    +0.000 A 
ATOM     25  C   UNL     1      -0.647   4.124  24.870  0.00  0.00    +0.003 A 
ENDBRANCH  18  20
ENDBRANCH  14  15
ENDBRANCH  13  14
TORSDOF 8
ENDMDL
MODEL 9
REMARK VINA RESULT:      -9.2     15.811     18.615
REMARK  Name = 
REMARK  8 active torsions:
REMARK  status: ('A' for Active; 'I' for Inactive)
REMARK    1  A    between atoms: O_2  and  C_3
REMARK    2  A    between atoms: C_7  and  C_8
REMARK    3  A    between atoms: C_8  and  N_9
REMARK    4  A    between atoms: N_9  and  C_10
REMARK    5  A    between atoms: C_10  and  C_11
REMARK    6  A    between atoms: C_13  and  C_14
REMARK    7  A    between atoms: C_14  and  C_15
REMARK    8  A    between atoms: C_18  and  C_20
REMARK                            x       y       z     vdW  Elec       q    Type
REMARK                         _______ _______ _______ _____ _____    ______ ____
ROOT
ATOM     11  C   UNL     1      11.559   8.718  17.895  0.00  0.00    +0.163 C 
ATOM     12  O   UNL     1      12.373   8.781  18.018  0.00  0.00    -0.354 OA
ATOM     13  C   UNL     1      12.887   8.802  17.374  0.00  0.00    +0.121 C 
ATOM     26  C   UNL     1      12.589   8.759  16.607  0.00  0.00    +0.033 C 
ATOM     27  C   UNL     1      11.776   8.696  16.482  0.00  0.00    +0.038 C 
ATOM     28  C   UNL     1      11.261   8.675  17.128  0.00  0.00    +0.180 C 
ATOM     29  O   UNL     1      10.448   8.611  17.004  0.00  0.00    -0.220 OA
ENDROOT
BRANCH  11  10
ATOM     10  C   UNL     1      11.045   8.697  18.539  0.00  0.00    +0.121 C 
BRANCH  10   9
ATOM      9  N   UNL     1      11.305   8.408  19.267  0.00  0.00    -0.211 NA
BRANCH   9   8
ATOM      8  C   UNL     1      10.869   8.557  19.951  0.00  0.00    +0.115 C 
BRANCH   8   7
ATOM      3  C   UNL     1      11.064   7.153  21.611  0.00  0.00    +0.138 A 
ATOM      4  C   UNL     1      11.572   7.571  22.110  0.00  0.00    +0.037 A 
ATOM      5  C   UNL     1      11.845   8.318  21.889  0.00  0.00    +0.003 A 
ATOM      6  C   UNL     1      11.610   8.646  21.169  0.00  0.00    -0.003 A 
ATOM      7  C   UNL     1      11.103   8.229  20.670  0.00  0.00    -0.002 A 
ATOM     30  C   UNL     1      10.830   7.482  20.891  0.00  0.00    +0.034 A 
BRANCH   3   2
ATOM      1  C   UNL     1      11.226   5.734  21.637  0.00  0.00    +0.252 C 
ATOM      2  O   UNL     1      10.790   6.408  21.831  0.00  0.00    -0.471 OA
ENDBRANCH   3   2
ENDBRANCH   8   7
ENDBRANCH   9   8
ENDBRANCH  10   9
ENDBRANCH  11  10
BRANCH  13  14
ATOM     14  C   UNL     1      13.700   8.866  17.497  0.00  0.00    +0.079 C 
BRANCH  14  15
ATOM     15  C   UNL     1      14.125   8.221  17.791  0.00  0.00    +0.103 A 
ATOM     16  N   UNL     1      14.365   7.562  17.357  0.00  0.00    -0.081 NA
ATOM     17  O   UNL     1      14.772   7.057  17.867  0.00  0.00    -0.354 OA
ATOM     18  C   UNL     1      14.782   7.404  18.616  0.00  0.00    +0.177 A 
ATOM     19  C   UNL     1      14.382   8.124  18.569  0.00  0.00    +0.058 A 
BRANCH  18  20
ATOM     20  C   UNL     1      15.132   7.086  19.293  0.00  0.00    +0.037 A 
ATOM     21  C   UNL     1      14.659   6.823  19.915  0.00  0.00    +0.003 A 
ATOM     22  C   UNL     1      15.009   6.505  20.593  0.00  0.00    +0.000 A 
ATOM     23  C   UNL     1      15.831   6.452  20.645  0.00  0.00    +0.000 A 
ATOM     24  C   UNL     1      16.302   6.715  20.023  0.00  0.00    +0.000 A 
ATOM     25  C   UNL     1      15.953   7.033  19.346  0.00  0.00    +0.003 A 
ENDBRANCH  18  20
ENDBRANCH  14  15
ENDBRANCH  13  14
TORSDOF 8
ENDMDL
