MODEL 1
REMARK VINA RESULT:     -14.7      0.000      0.000
REMARK  Name = 
REMARK  2 active torsions:
REMARK  status: ('A' for Active; 'I' for Inactive)
REMARK    1  A    between atoms: C_13  and  N_14
REMARK    2  A    between atoms: N_17  and  C_18
REMARK                            x       y       z     vdW  Elec       q    Type
REMARK                         _______ _______ _______ _____ _____    ______ ____
ROOT
ATOM      1  C   UNL     1      -3.700   2.755  25.251  0.00  0.00    +0.095 C 
ATOM      2  C   UNL     1      -3.692   3.547  25.485  0.00  0.00    +0.226 C 
ATOM      3  O   UNL     1      -4.392   3.918  25.714  0.00  0.00    -0.275 OA
ATOM      4  N   UNL     1      -2.982   3.968  25.489  0.00  0.00    -0.279 N 
ATOM      5  C   UNL     1      -2.457   4.611  25.590  0.00  0.00    +0.095 C 
ATOM      6  C   UNL     1      -1.611   4.179  25.318  0.00  0.00    +0.043 C 
ATOM      7  C   UNL     1      -0.846   3.975  25.127  0.00  0.00    +0.011 C 
ATOM      8  C   UNL     1      -1.476   3.667  25.143  0.00  0.00    +0.058 C 
ATOM      9  C   UNL     1      -2.286   4.098  25.409  0.00  0.00    +0.099 C 
ATOM     10  C   UNL     1      -1.891   2.864  24.975  0.00  0.00    +0.041 A 
ATOM     11  C   UNL     1      -1.723   2.098  24.719  0.00  0.00    +0.014 A 
ATOM     12  C   UNL     1      -2.329   1.542  24.657  0.00  0.00    +0.023 A 
ATOM     13  C   UNL     1      -3.103   1.752  24.851  0.00  0.00    +0.131 A 
ATOM     24  C   UNL     1      -3.271   2.518  25.107  0.00  0.00    +0.276 A 
ATOM     25  O   UNL     1      -4.085   2.482  25.235  0.00  0.00    -0.266 OA
ATOM     26  N   UNL     1      -2.665   3.074  25.169  0.00  0.00    -0.298 N 
ATOM     27  C   UNL     1      -2.053   3.344  25.145  0.00  0.00    +0.110 C 
ENDROOT
BRANCH  13  14
ATOM     14  N   UNL     1      -3.708   1.195  24.789  0.00  0.00    -0.156 NA
ATOM     15  C   UNL     1      -3.529   0.391  24.763  0.00  0.00    +0.348 C 
ATOM     16  O   UNL     1      -2.743   0.142  24.798  0.00  0.00    -0.248 OA
ATOM     17  N   UNL     1      -4.135  -0.166  24.701  0.00  0.00    -0.161 NA
BRANCH  17  18
ATOM     18  C   UNL     1      -3.956  -0.970  24.674  0.00  0.00    +0.075 A 
ATOM     19  C   UNL     1      -4.087  -1.399  23.982  0.00  0.00    +0.017 A 
ATOM     20  C   UNL     1      -3.907  -2.204  23.955  0.00  0.00    +0.001 A 
ATOM     21  C   UNL     1      -3.596  -2.579  24.621  0.00  0.00    +0.000 A 
ATOM     22  C   UNL     1      -3.465  -2.150  25.313  0.00  0.00    +0.001 A 
ATOM     23  C   UNL     1      -3.645  -1.346  25.340  0.00  0.00    +0.017 A 
ENDBRANCH  17  18
ENDBRANCH  13  14
TORSDOF 2
ENDMDL
MODEL 2
REMARK VINA RESULT:     -14.5      1.306      5.060
REMARK  Name = 
REMARK  2 active torsions:
REMARK  status: ('A' for Active; 'I' for Inactive)
REMARK    1  A    between atoms: C_13  and  N_14
REMARK    2  A    between atoms: N_17  and  C_18
REMARK                            x       y       z     vdW  Elec       q    Type
REMARK                         _______ _______ _______ _____ _____    ______ ____
ROOT
ATOM      1  C   UNL     1      -1.708  -0.623  25.117  0.00  0.00    +0.095 C 
ATOM      2  C   UNL     1      -1.712  -1.444  25.027  0.00  0.00    +0.226 C 
ATOM      3  O   UNL     1      -1.049  -1.886  25.242  0.00  0.00    -0.275 OA
ATOM      4  N   UNL     1      -2.379  -1.822  24.722  0.00  0.00    -0.279 N 
ATOM      5  C   UNL     1      -2.870  -2.446  24.460  0.00  0.00    +0.095 C 
ATOM      6  C   UNL     1      -3.670  -1.928  24.199  0.00  0.00    +0.043 C 
ATOM      7  C   UNL     1      -4.392  -1.654  23.942  0.00  0.00    +0.011 C 
ATOM      8  C   UNL     1      -3.800  -1.386  24.206  0.00  0.00    +0.058 C 
ATOM      9  C   UNL     1      -3.034  -1.900  24.454  0.00  0.00    +0.099 C 
ATOM     10  C   UNL     1      -3.414  -0.587  24.445  0.00  0.00    +0.041 A 
ATOM     11  C   UNL     1      -3.576   0.222  24.468  0.00  0.00    +0.014 A 
ATOM     12  C   UNL     1      -3.007   0.749  24.750  0.00  0.00    +0.023 A 
ATOM     13  C   UNL     1      -2.276   0.467  25.009  0.00  0.00    +0.131 A 
ATOM     24  C   UNL     1      -2.114  -0.341  24.986  0.00  0.00    +0.276 A 
ATOM     25  O   UNL     1      -1.347  -0.371  25.287  0.00  0.00    -0.266 OA
ATOM     26  N   UNL     1      -2.683  -0.868  24.704  0.00  0.00    -0.298 N 
ATOM     27  C   UNL     1      -3.258  -1.098  24.451  0.00  0.00    +0.110 C 
ENDROOT
BRANCH  13  14
ATOM     14  N   UNL     1      -1.709   0.994  25.291  0.00  0.00    -0.156 NA
ATOM     15  C   UNL     1      -1.816   1.807  25.196  0.00  0.00    +0.348 C 
ATOM     16  O   UNL     1      -2.492   2.092  24.819  0.00  0.00    -0.248 OA
ATOM     17  N   UNL     1      -1.247   2.334  25.478  0.00  0.00    -0.161 NA
BRANCH  17  18
ATOM     18  C   UNL     1      -1.355   3.147  25.383  0.00  0.00    +0.075 A 
ATOM     19  C   UNL     1      -0.885   3.565  24.850  0.00  0.00    +0.017 A 
ATOM     20  C   UNL     1      -0.993   4.377  24.755  0.00  0.00    +0.001 A 
ATOM     21  C   UNL     1      -1.570   4.771  25.194  0.00  0.00    +0.000 A 
ATOM     22  C   UNL     1      -2.040   4.353  25.727  0.00  0.00    +0.001 A 
ATOM     23  C   UNL     1      -1.932   3.540  25.822  0.00  0.00    +0.017 A 
ENDBRANCH  17  18
ENDBRANCH  13  14
TORSDOF 2
ENDMDL
MODEL 3
REMARK VINA RESULT:     -14.3      1.293      2.166
REMARK  Name = 
REMARK  2 active torsions:
REMARK  status: ('A' for Active; 'I' for Inactive)
REMARK    1  A    between atoms: C_13  and  N_14
REMARK    2  A    between atoms: N_17  and  C_18
REMARK                            x       y       z     vdW  Elec       q    Type
REMARK                         _______ _______ _______ _____ _____    ______ ____
ROOT
ATOM      1  C   UNL     1      -3.269   2.256  24.615  0.00  0.00    +0.095 C 
ATOM      2  C   UNL     1      -3.141   3.056  24.774  0.00  0.00    +0.226 C 
ATOM      3  O   UNL     1      -2.402   3.393  24.632  0.00  0.00    -0.275 OA
ATOM      4  N   UNL     1      -3.754   3.520  25.077  0.00  0.00    -0.279 N 
ATOM      5  C   UNL     1      -4.149   4.197  25.365  0.00  0.00    +0.095 C 
ATOM      6  C   UNL     1      -5.040   3.806  25.541  0.00  0.00    +0.043 C 
ATOM      7  C   UNL     1      -5.813   3.642  25.736  0.00  0.00    +0.011 C 
ATOM      8  C   UNL     1      -5.258   3.297  25.481  0.00  0.00    +0.058 C 
ATOM      9  C   UNL     1      -4.403   3.689  25.317  0.00  0.00    +0.099 C 
ATOM     10  C   UNL     1      -4.997   2.463  25.195  0.00  0.00    +0.041 A 
ATOM     11  C   UNL     1      -5.290   1.699  25.095  0.00  0.00    +0.014 A 
ATOM     12  C   UNL     1      -4.801   1.105  24.798  0.00  0.00    +0.023 A 
ATOM     13  C   UNL     1      -4.018   1.275  24.601  0.00  0.00    +0.131 A 
ATOM     24  C   UNL     1      -3.724   2.039  24.701  0.00  0.00    +0.276 A 
ATOM     25  O   UNL     1      -2.945   1.959  24.443  0.00  0.00    -0.266 OA
ATOM     26  N   UNL     1      -4.214   2.634  24.998  0.00  0.00    -0.298 N 
ATOM     27  C   UNL     1      -4.758   2.939  25.240  0.00  0.00    +0.110 C 
ENDROOT
BRANCH  13  14
ATOM     14  N   UNL     1      -3.529   0.681  24.305  0.00  0.00    -0.156 NA
ATOM     15  C   UNL     1      -3.714  -0.112  24.440  0.00  0.00    +0.348 C 
ATOM     16  O   UNL     1      -4.388  -0.310  24.873  0.00  0.00    -0.248 OA
ATOM     17  N   UNL     1      -3.225  -0.707  24.143  0.00  0.00    -0.161 NA
BRANCH  17  18
ATOM     18  C   UNL     1      -3.409  -1.499  24.279  0.00  0.00    +0.075 A 
ATOM     19  C   UNL     1      -3.057  -1.903  24.906  0.00  0.00    +0.017 A 
ATOM     20  C   UNL     1      -3.242  -2.695  25.041  0.00  0.00    +0.001 A 
ATOM     21  C   UNL     1      -3.779  -3.083  24.550  0.00  0.00    +0.000 A 
ATOM     22  C   UNL     1      -4.131  -2.679  23.923  0.00  0.00    +0.001 A 
ATOM     23  C   UNL     1      -3.947  -1.887  23.787  0.00  0.00    +0.017 A 
ENDBRANCH  17  18
ENDBRANCH  13  14
TORSDOF 2
ENDMDL
