REMARK  Name = 
REMARK  7 active torsions:
REMARK  status: ('A' for Active; 'I' for Inactive)
REMARK    1  A    between atoms: O_2  and  C_3
REMARK    2  A    between atoms: C_3  and  C_4
REMARK    3  A    between atoms: C_6  and  C_7
REMARK    4  A    between atoms: C_7  and  C_8
REMARK    5  A    between atoms: C_13  and  C_14
REMARK    6  A    between atoms: C_14  and  N_15
REMARK    7  A    between atoms: N_15  and  C_16
REMARK                            x       y       z     vdW  Elec       q    Type
REMARK                         _______ _______ _______ _____ _____    ______ ____
ROOT
ATOM      8  C   UNL     1       1.110  -3.150   0.000  0.00  0.00    +0.121 C 
ATOM      9  C   UNL     1       1.446  -2.396   0.000  0.00  0.00    +0.033 C 
ATOM     10  C   UNL     1       2.266  -2.310   0.000  0.00  0.00    +0.038 C 
ATOM     11  C   UNL     1       2.751  -2.977   0.000  0.00  0.00    +0.180 C 
ATOM     12  O   UNL     1       3.572  -2.891   0.000  0.00  0.00    -0.220 OA
ATOM     13  C   UNL     1       2.416  -3.731   0.000  0.00  0.00    +0.163 C 
ATOM     19  O   UNL     1       1.595  -3.817   0.000  0.00  0.00    -0.354 OA
ENDROOT
BRANCH   8   7
ATOM      7  C   UNL     1       0.290  -3.236   0.000  0.00  0.00    +0.079 C 
BRANCH   7   6
ATOM      4  C   UNL     1      -0.608  -1.299   0.000  0.00  0.00    +0.184 A 
ATOM      5  C   UNL     1       0.060  -1.784   0.000  0.00  0.00    +0.056 A 
ATOM      6  C   UNL     1      -0.195  -2.569   0.000  0.00  0.00    +0.103 A 
ATOM     20  N   UNL     1      -1.020  -2.569   0.000  0.00  0.00    -0.082 NA
ATOM     21  O   UNL     1      -1.275  -1.784   0.000  0.00  0.00    -0.356 OA
BRANCH   4   3
ATOM      3  C   UNL     1      -0.608  -0.474   0.000  0.00  0.00    +0.209 C 
BRANCH   3   2
ATOM      1  C   UNL     1      -1.322   0.763   0.000  0.00  0.00    +0.175 C 
ATOM      2  O   UNL     1      -1.322  -0.062   0.000  0.00  0.00    -0.343 OA
ENDBRANCH   3   2
ENDBRANCH   4   3
ENDBRANCH   7   6
ENDBRANCH   8   7
BRANCH  13  14
ATOM     14  C   UNL     1       2.901  -4.399   0.000  0.00  0.00    +0.121 C 
BRANCH  14  15
ATOM     15  N   UNL     1       3.721  -4.312   0.000  0.00  0.00    -0.217 NA
BRANCH  15  16
ATOM     16  C   UNL     1       4.206  -4.980   0.000  0.00  0.00    +0.073 C 
ATOM     17  C   UNL     1       5.026  -4.894   0.000  0.00  0.00    +0.019 C 
ATOM     18  C   UNL     1       3.870  -5.733   0.000  0.00  0.00    +0.019 C 
ENDBRANCH  15  16
ENDBRANCH  14  15
ENDBRANCH  13  14
TORSDOF 7
