MODEL 1
REMARK VINA RESULT:     -13.2      0.000      0.000
REMARK  Name = 
REMARK  6 active torsions:
REMARK  status: ('A' for Active; 'I' for Inactive)
REMARK    1  A    between atoms: C_4  and  C_27
REMARK    2  A    between atoms: C_6  and  C_8
REMARK    3  A    between atoms: C_15  and  C_16
REMARK    4  A    between atoms: C_16  and  O_17
REMARK    5  A    between atoms: O_17  and  C_18
REMARK    6  A    between atoms: N_20  and  C_21
REMARK                            x       y       z     vdW  Elec       q    Type
REMARK                         _______ _______ _______ _____ _____    ______ ____
ROOT
ATOM      8  C   UNL     1      -3.827   0.476  24.366  0.00  0.00    +0.056 C 
ATOM      9  C   UNL     1      -3.466   0.952  23.867  0.00  0.00    +0.078 C 
ATOM     10  N   UNL     1      -4.036   1.170  24.423  0.00  0.00    -0.270 NA
ATOM     11  C   UNL     1      -4.319   0.300  24.934  0.00  0.00    +0.072 C 
ATOM     12  C   UNL     1      -4.678   0.000  25.390  0.00  0.00    +0.018 C 
ATOM     13  C   UNL     1      -4.385   0.698  24.909  0.00  0.00    +0.010 C 
ATOM     14  C   UNL     1      -4.740   1.477  25.103  0.00  0.00    +0.020 C 
ATOM     15  C   UNL     1      -4.410   1.977  24.629  0.00  0.00    +0.102 C 
ENDROOT
BRANCH   8   6
ATOM      1  C   UNL     1      -4.496  -2.230  23.735  0.00  0.00    +0.074 C 
ATOM      2  C   UNL     1      -3.958  -1.676  24.025  0.00  0.00    +0.139 A 
ATOM      3  N   UNL     1      -3.216  -1.921  24.288  0.00  0.00    -0.231 NA
ATOM      4  C   UNL     1      -2.677  -1.368  24.578  0.00  0.00    +0.084 A 
ATOM      5  C   UNL     1      -2.880  -0.569  24.604  0.00  0.00    +0.034 A 
ATOM      6  C   UNL     1      -3.623  -0.324  24.340  0.00  0.00    +0.063 A 
ATOM      7  N   UNL     1      -4.161  -0.877  24.051  0.00  0.00    -0.235 NA
BRANCH   4  27
ATOM     27  C   UNL     1      -1.934  -1.613  24.842  0.00  0.00    +0.018 A 
ATOM     28  C   UNL     1      -1.533  -1.171  25.411  0.00  0.00    +0.004 A 
ATOM     29  C   UNL     1      -0.790  -1.416  25.675  0.00  0.00    +0.030 A 
ATOM     30  C   UNL     1      -0.450  -2.103  25.369  0.00  0.00    +0.140 A 
ATOM     31  F   UNL     1       0.292  -2.347  25.633  0.00  0.00    -0.204 F 
ATOM     32  C   UNL     1      -0.852  -2.544  24.800  0.00  0.00    +0.030 A 
ATOM     33  C   UNL     1      -1.594  -2.299  24.536  0.00  0.00    +0.004 A 
ENDBRANCH   4  27
ENDBRANCH   8   6
BRANCH  15  16
ATOM     16  C   UNL     1      -4.398   2.775  24.425  0.00  0.00    +0.226 C 
BRANCH  16  17
ATOM     17  O   UNL     1      -4.152   3.339  24.976  0.00  0.00    -0.432 OA
BRANCH  17  18
ATOM     18  C   UNL     1      -3.483   3.797  24.824  0.00  0.00    +0.421 C 
ATOM     19  O   UNL     1      -3.417   4.208  24.112  0.00  0.00    -0.225 OA
ATOM     20  N   UNL     1      -2.881   3.845  25.386  0.00  0.00    -0.170 NA
BRANCH  20  21
ATOM     21  C   UNL     1      -2.212   4.304  25.235  0.00  0.00    +0.099 C 
ATOM     22  C   UNL     1      -2.258   5.127  25.273  0.00  0.00    +0.022 C 
ATOM     23  C   UNL     1      -1.589   5.586  25.122  0.00  0.00    +0.002 C 
ATOM     24  C   UNL     1      -0.874   5.221  24.934  0.00  0.00    +0.000 C 
ATOM     25  C   UNL     1      -0.827   4.398  24.896  0.00  0.00    +0.002 C 
ATOM     26  C   UNL     1      -1.495   3.940  25.047  0.00  0.00    +0.022 C 
ENDBRANCH  20  21
ENDBRANCH  17  18
ENDBRANCH  16  17
ENDBRANCH  15  16
TORSDOF 6
ENDMDL
MODEL 2
REMARK VINA RESULT:     -13.0      2.563      5.988
REMARK  Name = 
REMARK  6 active torsions:
REMARK  status: ('A' for Active; 'I' for Inactive)
REMARK    1  A    between atoms: C_4  and  C_27
REMARK    2  A    between atoms: C_6  and  C_8
REMARK    3  A    between atoms: C_15  and  C_16
REMARK    4  A    between atoms: C_16  and  O_17
REMARK    5  A    between atoms: O_17  and  C_18
REMARK    6  A    between atoms: N_20  and  C_21
REMARK                            x       y       z     vdW  Elec       q    Type
REMARK                         _______ _______ _______ _____ _____    ______ ____
ROOT
ATOM      8  C   UNL     1      -1.321   1.863  24.860  0.00  0.00    +0.056 C 
ATOM      9  C   UNL     1      -1.548   1.465  24.231  0.00  0.00    +0.078 C 
ATOM     10  N   UNL     1      -1.076   1.179  24.845  0.00  0.00    -0.270 NA
ATOM     11  C   UNL     1      -0.955   1.961  25.532  0.00  0.00    +0.072 C 
ATOM     12  C   UNL     1      -0.707   2.193  26.090  0.00  0.00    +0.018 C 
ATOM     13  C   UNL     1      -0.857   1.576  25.458  0.00  0.00    +0.010 C 
ATOM     14  C   UNL     1      -0.487   0.791  25.590  0.00  0.00    +0.020 C 
ATOM     15  C   UNL     1      -0.689   0.365  24.989  0.00  0.00    +0.102 C 
ENDROOT
BRANCH   8   6
ATOM      1  C   UNL     1      -0.737   4.661  24.852  0.00  0.00    +0.074 C 
ATOM      2  C   UNL     1      -1.282   4.045  24.918  0.00  0.00    +0.139 A 
ATOM      3  N   UNL     1      -2.079   4.212  25.047  0.00  0.00    -0.231 NA
ATOM      4  C   UNL     1      -2.624   3.596  25.114  0.00  0.00    +0.084 A 
ATOM      5  C   UNL     1      -2.371   2.814  25.051  0.00  0.00    +0.034 A 
ATOM      6  C   UNL     1      -1.574   2.647  24.922  0.00  0.00    +0.063 A 
ATOM      7  N   UNL     1      -1.029   3.262  24.856  0.00  0.00    -0.235 NA
BRANCH   4  27
ATOM     27  C   UNL     1      -3.422   3.763  25.243  0.00  0.00    +0.018 A 
ATOM     28  C   UNL     1      -3.698   3.889  26.010  0.00  0.00    +0.004 A 
ATOM     29  C   UNL     1      -4.496   4.055  26.139  0.00  0.00    +0.030 A 
ATOM     30  C   UNL     1      -5.017   4.096  25.500  0.00  0.00    +0.140 A 
ATOM     31  F   UNL     1      -5.814   4.263  25.630  0.00  0.00    -0.204 F 
ATOM     32  C   UNL     1      -4.741   3.971  24.733  0.00  0.00    +0.030 A 
ATOM     33  C   UNL     1      -3.943   3.804  24.604  0.00  0.00    +0.004 A 
ENDBRANCH   4  27
ENDBRANCH   8   6
BRANCH  15  16
ATOM     16  C   UNL     1      -0.605  -0.387  24.662  0.00  0.00    +0.226 C 
BRANCH  16  17
ATOM     17  O   UNL     1      -0.907  -1.045  25.058  0.00  0.00    -0.432 OA
BRANCH  17  18
ATOM     18  C   UNL     1      -1.504  -1.496  24.711  0.00  0.00    +0.421 C 
ATOM     19  O   UNL     1      -1.369  -1.879  23.993  0.00  0.00    -0.225 OA
ATOM     20  N   UNL     1      -2.238  -1.564  25.083  0.00  0.00    -0.170 NA
BRANCH  20  21
ATOM     21  C   UNL     1      -2.836  -2.014  24.737  0.00  0.00    +0.099 C 
ATOM     22  C   UNL     1      -2.829  -2.836  24.811  0.00  0.00    +0.022 C 
ATOM     23  C   UNL     1      -3.428  -3.286  24.465  0.00  0.00    +0.002 C 
ATOM     24  C   UNL     1      -4.032  -2.915  24.044  0.00  0.00    +0.000 C 
ATOM     25  C   UNL     1      -4.039  -2.093  23.970  0.00  0.00    +0.002 C 
ATOM     26  C   UNL     1      -3.441  -1.643  24.316  0.00  0.00    +0.022 C 
ENDBRANCH  20  21
ENDBRANCH  17  18
ENDBRANCH  16  17
ENDBRANCH  15  16
TORSDOF 6
ENDMDL
MODEL 3
REMARK VINA RESULT:     -12.9      3.600      5.148
REMARK  Name = 
REMARK  6 active torsions:
REMARK  status: ('A' for Active; 'I' for Inactive)
REMARK    1  A    between atoms: C_4  and  C_27
REMARK    2  A    between atoms: C_6  and  C_8
REMARK    3  A    between atoms: C_15  and  C_16
REMARK    4  A    between atoms: C_16  and  O_17
REMARK    5  A    between atoms: O_17  and  C_18
REMARK    6  A    between atoms: N_20  and  C_21
REMARK                            x       y       z     vdW  Elec       q    Type
REMARK                         _______ _______ _______ _____ _____    ______ ____
ROOT
ATOM      8  C   UNL     1      -1.984   0.614  24.116  0.00  0.00    +0.056 C 
ATOM      9  C   UNL     1      -1.767   1.033  23.498  0.00  0.00    +0.078 C 
ATOM     10  N   UNL     1      -1.264   0.693  24.057  0.00  0.00    -0.270 NA
ATOM     11  C   UNL     1      -1.868   0.199  24.757  0.00  0.00    +0.072 C 
ATOM     12  C   UNL     1      -1.932  -0.161  25.298  0.00  0.00    +0.018 C 
ATOM     13  C   UNL     1      -1.484   0.283  24.661  0.00  0.00    +0.010 C 
ATOM     14  C   UNL     1      -0.609   0.285  24.734  0.00  0.00    +0.020 C 
ATOM     15  C   UNL     1      -0.355   0.691  24.139  0.00  0.00    +0.102 C 
ENDROOT
BRANCH   8   6
ATOM      1  C   UNL     1      -4.270  -1.100  24.030  0.00  0.00    +0.074 C 
ATOM      2  C   UNL     1      -3.936  -0.361  24.184  0.00  0.00    +0.139 A 
ATOM      3  N   UNL     1      -4.411   0.258  24.448  0.00  0.00    -0.231 NA
ATOM      4  C   UNL     1      -4.078   0.997  24.602  0.00  0.00    +0.084 A 
ATOM      5  C   UNL     1      -3.269   1.116  24.492  0.00  0.00    +0.034 A 
ATOM      6  C   UNL     1      -2.794   0.495  24.227  0.00  0.00    +0.063 A 
ATOM      7  N   UNL     1      -3.127  -0.243  24.073  0.00  0.00    -0.235 NA
BRANCH   4  27
ATOM     27  C   UNL     1      -4.553   1.618  24.867  0.00  0.00    +0.018 A 
ATOM     28  C   UNL     1      -5.109   1.487  25.462  0.00  0.00    +0.004 A 
ATOM     29  C   UNL     1      -5.584   2.107  25.726  0.00  0.00    +0.030 A 
ATOM     30  C   UNL     1      -5.503   2.859  25.396  0.00  0.00    +0.140 A 
ATOM     31  F   UNL     1      -5.978   3.479  25.661  0.00  0.00    -0.204 F 
ATOM     32  C   UNL     1      -4.946   2.990  24.801  0.00  0.00    +0.030 A 
ATOM     33  C   UNL     1      -4.471   2.370  24.536  0.00  0.00    +0.004 A 
ENDBRANCH   4  27
ENDBRANCH   8   6
BRANCH  15  16
ATOM     16  C   UNL     1       0.336   0.965  23.782  0.00  0.00    +0.226 C 
BRANCH  16  17
ATOM     17  O   UNL     1       0.834   0.438  23.388  0.00  0.00    -0.432 OA
BRANCH  17  18
ATOM     18  C   UNL     1       1.642   0.596  23.337  0.00  0.00    +0.421 C 
ATOM     19  O   UNL     1       1.951   1.282  23.676  0.00  0.00    -0.225 OA
ATOM     20  N   UNL     1       2.141   0.067  22.948  0.00  0.00    -0.170 NA
BRANCH  20  21
ATOM     21  C   UNL     1       2.950   0.224  22.896  0.00  0.00    +0.099 C 
ATOM     22  C   UNL     1       3.487  -0.235  23.322  0.00  0.00    +0.022 C 
ATOM     23  C   UNL     1       4.295  -0.078  23.271  0.00  0.00    +0.002 C 
ATOM     24  C   UNL     1       4.566   0.538  22.794  0.00  0.00    +0.000 C 
ATOM     25  C   UNL     1       4.029   0.997  22.369  0.00  0.00    +0.002 C 
ATOM     26  C   UNL     1       3.221   0.840  22.420  0.00  0.00    +0.022 C 
ENDBRANCH  20  21
ENDBRANCH  17  18
ENDBRANCH  16  17
ENDBRANCH  15  16
TORSDOF 6
ENDMDL
MODEL 4
REMARK VINA RESULT:     -12.5      3.616      4.794
REMARK  Name = 
REMARK  6 active torsions:
REMARK  status: ('A' for Active; 'I' for Inactive)
REMARK    1  A    between atoms: C_4  and  C_27
REMARK    2  A    between atoms: C_6  and  C_8
REMARK    3  A    between atoms: C_15  and  C_16
REMARK    4  A    between atoms: C_16  and  O_17
REMARK    5  A    between atoms: O_17  and  C_18
REMARK    6  A    between atoms: N_20  and  C_21
REMARK                            x       y       z     vdW  Elec       q    Type
REMARK                         _______ _______ _______ _____ _____    ______ ____
ROOT
ATOM      8  C   UNL     1      -1.443   0.701  24.307  0.00  0.00    +0.056 C 
ATOM      9  C   UNL     1      -0.878   0.424  24.764  0.00  0.00    +0.078 C 
ATOM     10  N   UNL     1      -0.777   0.903  24.099  0.00  0.00    -0.270 NA
ATOM     11  C   UNL     1      -1.731   1.100  23.712  0.00  0.00    +0.072 C 
ATOM     12  C   UNL     1      -2.116   1.383  23.267  0.00  0.00    +0.018 C 
ATOM     13  C   UNL     1      -1.337   1.171  23.656  0.00  0.00    +0.010 C 
ATOM     14  C   UNL     1      -0.615   1.497  23.279  0.00  0.00    +0.020 C 
ATOM     15  C   UNL     1      -0.030   1.245  23.701  0.00  0.00    +0.102 C 
ENDROOT
BRANCH   8   6
ATOM      1  C   UNL     1      -4.021   1.444  25.295  0.00  0.00    +0.074 C 
ATOM      2  C   UNL     1      -3.507   0.871  24.997  0.00  0.00    +0.139 A 
ATOM      3  N   UNL     1      -3.771   0.096  24.894  0.00  0.00    -0.231 NA
ATOM      4  C   UNL     1      -3.259  -0.478  24.596  0.00  0.00    +0.084 A 
ATOM      5  C   UNL     1      -2.483  -0.276  24.401  0.00  0.00    +0.034 A 
ATOM      6  C   UNL     1      -2.220   0.499  24.503  0.00  0.00    +0.063 A 
ATOM      7  N   UNL     1      -2.732   1.073  24.801  0.00  0.00    -0.235 NA
BRANCH   4  27
ATOM     27  C   UNL     1      -3.522  -1.253  24.493  0.00  0.00    +0.018 A 
ATOM     28  C   UNL     1      -4.048  -1.432  23.885  0.00  0.00    +0.004 A 
ATOM     29  C   UNL     1      -4.311  -2.208  23.782  0.00  0.00    +0.030 A 
ATOM     30  C   UNL     1      -4.047  -2.803  24.288  0.00  0.00    +0.140 A 
ATOM     31  F   UNL     1      -4.311  -3.578  24.185  0.00  0.00    -0.204 F 
ATOM     32  C   UNL     1      -3.521  -2.624  24.897  0.00  0.00    +0.030 A 
ATOM     33  C   UNL     1      -3.258  -1.848  25.000  0.00  0.00    +0.004 A 
ENDBRANCH   4  27
ENDBRANCH   8   6
BRANCH  15  16
ATOM     16  C   UNL     1       0.791   1.269  23.761  0.00  0.00    +0.226 C 
BRANCH  16  17
ATOM     17  O   UNL     1       1.258   0.900  23.190  0.00  0.00    -0.432 OA
BRANCH  17  18
ATOM     18  C   UNL     1       2.078   0.882  23.277  0.00  0.00    +0.421 C 
ATOM     19  O   UNL     1       2.451   1.411  23.788  0.00  0.00    -0.225 OA
ATOM     20  N   UNL     1       2.526   0.333  22.853  0.00  0.00    -0.170 NA
BRANCH  20  21
ATOM     21  C   UNL     1       3.346   0.315  22.940  0.00  0.00    +0.099 C 
ATOM     22  C   UNL     1       3.810   0.910  22.608  0.00  0.00    +0.022 C 
ATOM     23  C   UNL     1       4.630   0.891  22.694  0.00  0.00    +0.002 C 
ATOM     24  C   UNL     1       4.986   0.277  23.114  0.00  0.00    +0.000 C 
ATOM     25  C   UNL     1       4.522  -0.319  23.447  0.00  0.00    +0.002 C 
ATOM     26  C   UNL     1       3.703  -0.300  23.360  0.00  0.00    +0.022 C 
ENDBRANCH  20  21
ENDBRANCH  17  18
ENDBRANCH  16  17
ENDBRANCH  15  16
TORSDOF 6
ENDMDL
MODEL 5
REMARK VINA RESULT:     -12.1      2.120      3.277
REMARK  Name = 
REMARK  6 active torsions:
REMARK  status: ('A' for Active; 'I' for Inactive)
REMARK    1  A    between atoms: C_4  and  C_27
REMARK    2  A    between atoms: C_6  and  C_8
REMARK    3  A    between atoms: C_15  and  C_16
REMARK    4  A    between atoms: C_16  and  O_17
REMARK    5  A    between atoms: O_17  and  C_18
REMARK    6  A    between atoms: N_20  and  C_21
REMARK                            x       y       z     vdW  Elec       q    Type
REMARK                         _______ _______ _______ _____ _____    ______ ____
ROOT
ATOM      8  C   UNL     1      -0.660  -0.087  24.838  0.00  0.00    +0.056 C 
ATOM      9  C   UNL     1      -0.850   0.395  25.419  0.00  0.00    +0.078 C 
ATOM     10  N   UNL     1      -0.377   0.579  24.768  0.00  0.00    -0.270 NA
ATOM     11  C   UNL     1      -0.318  -0.284  24.175  0.00  0.00    +0.072 C 
ATOM     12  C   UNL     1      -0.098  -0.594  23.643  0.00  0.00    +0.018 C 
ATOM     13  C   UNL     1      -0.196   0.101  24.202  0.00  0.00    +0.010 C 
ATOM     14  C   UNL     1       0.213   0.842  23.971  0.00  0.00    +0.020 C 
ATOM     15  C   UNL     1       0.051   1.346  24.522  0.00  0.00    +0.102 C 
ENDROOT
BRANCH   8   6
ATOM      1  C   UNL     1      -0.299  -2.857  25.444  0.00  0.00    +0.074 C 
ATOM      2  C   UNL     1      -0.777  -2.240  25.176  0.00  0.00    +0.139 A 
ATOM      3  N   UNL     1      -1.554  -2.393  24.943  0.00  0.00    -0.231 NA
ATOM      4  C   UNL     1      -2.033  -1.777  24.675  0.00  0.00    +0.084 A 
ATOM      5  C   UNL     1      -1.735  -1.009  24.640  0.00  0.00    +0.034 A 
ATOM      6  C   UNL     1      -0.958  -0.857  24.873  0.00  0.00    +0.063 A 
ATOM      7  N   UNL     1      -0.480  -1.472  25.141  0.00  0.00    -0.235 NA
BRANCH   4  27
ATOM     27  C   UNL     1      -2.810  -1.930  24.441  0.00  0.00    +0.018 A 
ATOM     28  C   UNL     1      -3.378  -1.334  24.488  0.00  0.00    +0.004 A 
ATOM     29  C   UNL     1      -4.155  -1.487  24.255  0.00  0.00    +0.030 A 
ATOM     30  C   UNL     1      -4.362  -2.235  23.974  0.00  0.00    +0.140 A 
ATOM     31  F   UNL     1      -5.139  -2.386  23.741  0.00  0.00    -0.204 F 
ATOM     32  C   UNL     1      -3.793  -2.830  23.927  0.00  0.00    +0.030 A 
ATOM     33  C   UNL     1      -3.016  -2.678  24.161  0.00  0.00    +0.004 A 
ENDBRANCH   4  27
ENDBRANCH   8   6
BRANCH  15  16
ATOM     16  C   UNL     1       0.185   2.125  24.756  0.00  0.00    +0.226 C 
BRANCH  16  17
ATOM     17  O   UNL     1      -0.158   2.747  24.336  0.00  0.00    -0.432 OA
BRANCH  17  18
ATOM     18  C   UNL     1      -0.540   3.356  24.741  0.00  0.00    +0.421 C 
ATOM     19  O   UNL     1      -0.183   3.701  25.400  0.00  0.00    -0.225 OA
ATOM     20  N   UNL     1      -1.279   3.620  24.487  0.00  0.00    -0.170 NA
BRANCH  20  21
ATOM     21  C   UNL     1      -1.662   4.229  24.892  0.00  0.00    +0.099 C 
ATOM     22  C   UNL     1      -1.406   5.008  24.801  0.00  0.00    +0.022 C 
ATOM     23  C   UNL     1      -1.789   5.617  25.206  0.00  0.00    +0.002 C 
ATOM     24  C   UNL     1      -2.426   5.446  25.701  0.00  0.00    +0.000 C 
ATOM     25  C   UNL     1      -2.682   4.667  25.791  0.00  0.00    +0.002 C 
ATOM     26  C   UNL     1      -2.299   4.059  25.387  0.00  0.00    +0.022 C 
ENDBRANCH  20  21
ENDBRANCH  17  18
ENDBRANCH  16  17
ENDBRANCH  15  16
TORSDOF 6
ENDMDL
MODEL 6
REMARK VINA RESULT:     -11.5      3.775      5.924
REMARK  Name = 
REMARK  6 active torsions:
REMARK  status: ('A' for Active; 'I' for Inactive)
REMARK    1  A    between atoms: C_4  and  C_27
REMARK    2  A    between atoms: C_6  and  C_8
REMARK    3  A    between atoms: C_15  and  C_16
REMARK    4  A    between atoms: C_16  and  O_17
REMARK    5  A    between atoms: O_17  and  C_18
REMARK    6  A    between atoms: N_20  and  C_21
REMARK                            x       y       z     vdW  Elec       q    Type
REMARK                         _______ _______ _______ _____ _____    ______ ____
ROOT
ATOM      8  C   UNL     1      -1.037   2.669  24.585  0.00  0.00    +0.056 C 
ATOM      9  C   UNL     1      -0.933   2.517  23.829  0.00  0.00    +0.078 C 
ATOM     10  N   UNL     1      -0.468   2.238  24.451  0.00  0.00    -0.270 NA
ATOM     11  C   UNL     1      -0.872   2.624  25.338  0.00  0.00    +0.072 C 
ATOM     12  C   UNL     1      -0.863   2.682  25.989  0.00  0.00    +0.018 C 
ATOM     13  C   UNL     1      -0.576   2.391  25.190  0.00  0.00    +0.010 C 
ATOM     14  C   UNL     1       0.131   1.872  25.199  0.00  0.00    +0.020 C 
ATOM     15  C   UNL     1       0.268   1.698  24.469  0.00  0.00    +0.102 C 
ENDROOT
BRANCH   8   6
ATOM      1  C   UNL     1      -2.044   5.227  25.371  0.00  0.00    +0.074 C 
ATOM      2  C   UNL     1      -2.175   4.435  25.181  0.00  0.00    +0.139 A 
ATOM      3  N   UNL     1      -2.941   4.130  25.195  0.00  0.00    -0.231 NA
ATOM      4  C   UNL     1      -3.073   3.337  25.006  0.00  0.00    +0.084 A 
ATOM      5  C   UNL     1      -2.439   2.851  24.803  0.00  0.00    +0.034 A 
ATOM      6  C   UNL     1      -1.673   3.157  24.789  0.00  0.00    +0.063 A 
ATOM      7  N   UNL     1      -1.540   3.948  24.978  0.00  0.00    -0.235 NA
BRANCH   4  27
ATOM     27  C   UNL     1      -3.840   3.032  25.019  0.00  0.00    +0.018 A 
ATOM     28  C   UNL     1      -4.295   3.091  25.705  0.00  0.00    +0.004 A 
ATOM     29  C   UNL     1      -5.061   2.785  25.718  0.00  0.00    +0.030 A 
ATOM     30  C   UNL     1      -5.371   2.420  25.047  0.00  0.00    +0.140 A 
ATOM     31  F   UNL     1      -6.138   2.115  25.061  0.00  0.00    -0.204 F 
ATOM     32  C   UNL     1      -4.916   2.361  24.361  0.00  0.00    +0.030 A 
ATOM     33  C   UNL     1      -4.150   2.667  24.348  0.00  0.00    +0.004 A 
ENDBRANCH   4  27
ENDBRANCH   8   6
BRANCH  15  16
ATOM     16  C   UNL     1       0.780   1.273  23.982  0.00  0.00    +0.226 C 
BRANCH  16  17
ATOM     17  O   UNL     1       1.486   1.615  23.726  0.00  0.00    -0.432 OA
BRANCH  17  18
ATOM     18  C   UNL     1       2.081   1.141  23.408  0.00  0.00    +0.421 C 
ATOM     19  O   UNL     1       1.908   0.375  23.155  0.00  0.00    -0.225 OA
ATOM     20  N   UNL     1       2.849   1.434  23.341  0.00  0.00    -0.170 NA
BRANCH  20  21
ATOM     21  C   UNL     1       3.445   0.960  23.022  0.00  0.00    +0.099 C 
ATOM     22  C   UNL     1       3.405   0.722  22.233  0.00  0.00    +0.022 C 
ATOM     23  C   UNL     1       4.001   0.249  21.914  0.00  0.00    +0.002 C 
ATOM     24  C   UNL     1       4.637   0.014  22.385  0.00  0.00    +0.000 C 
ATOM     25  C   UNL     1       4.677   0.252  23.174  0.00  0.00    +0.002 C 
ATOM     26  C   UNL     1       4.081   0.725  23.492  0.00  0.00    +0.022 C 
ENDBRANCH  20  21
ENDBRANCH  17  18
ENDBRANCH  16  17
ENDBRANCH  15  16
TORSDOF 6
ENDMDL
MODEL 7
REMARK VINA RESULT:     -11.2      2.062      3.370
REMARK  Name = 
REMARK  6 active torsions:
REMARK  status: ('A' for Active; 'I' for Inactive)
REMARK    1  A    between atoms: C_4  and  C_27
REMARK    2  A    between atoms: C_6  and  C_8
REMARK    3  A    between atoms: C_15  and  C_16
REMARK    4  A    between atoms: C_16  and  O_17
REMARK    5  A    between atoms: O_17  and  C_18
REMARK    6  A    between atoms: N_20  and  C_21
REMARK                            x       y       z     vdW  Elec       q    Type
REMARK                         _______ _______ _______ _____ _____    ______ ____
ROOT
ATOM      8  C   UNL     1      -0.805   1.686  24.124  0.00  0.00    +0.056 C 
ATOM      9  C   UNL     1      -1.448   1.848  23.716  0.00  0.00    +0.078 C 
ATOM     10  N   UNL     1      -1.095   2.333  24.284  0.00  0.00    -0.270 NA
ATOM     11  C   UNL     1      -0.251   1.826  24.643  0.00  0.00    +0.072 C 
ATOM     12  C   UNL     1       0.271   1.797  25.035  0.00  0.00    +0.018 C 
ATOM     13  C   UNL     1      -0.465   2.167  24.679  0.00  0.00    +0.010 C 
ATOM     14  C   UNL     1      -0.684   2.960  24.983  0.00  0.00    +0.020 C 
ATOM     15  C   UNL     1      -1.317   3.158  24.605  0.00  0.00    +0.102 C 
ENDROOT
BRANCH   8   6
ATOM      1  C   UNL     1       1.323   0.181  22.951  0.00  0.00    +0.074 C 
ATOM      2  C   UNL     1       0.626   0.209  23.391  0.00  0.00    +0.139 A 
ATOM      3  N   UNL     1       0.296  -0.487  23.684  0.00  0.00    -0.231 NA
ATOM      4  C   UNL     1      -0.401  -0.460  24.124  0.00  0.00    +0.084 A 
ATOM      5  C   UNL     1      -0.768   0.264  24.271  0.00  0.00    +0.034 A 
ATOM      6  C   UNL     1      -0.437   0.961  23.977  0.00  0.00    +0.063 A 
ATOM      7  N   UNL     1       0.259   0.933  23.537  0.00  0.00    -0.235 NA
BRANCH   4  27
ATOM     27  C   UNL     1      -0.732  -1.157  24.418  0.00  0.00    +0.018 A 
ATOM     28  C   UNL     1      -0.445  -1.486  25.118  0.00  0.00    +0.004 A 
ATOM     29  C   UNL     1      -0.775  -2.183  25.411  0.00  0.00    +0.030 A 
ATOM     30  C   UNL     1      -1.393  -2.549  25.005  0.00  0.00    +0.140 A 
ATOM     31  F   UNL     1      -1.723  -3.245  25.300  0.00  0.00    -0.204 F 
ATOM     32  C   UNL     1      -1.680  -2.220  24.306  0.00  0.00    +0.030 A 
ATOM     33  C   UNL     1      -1.350  -1.523  24.012  0.00  0.00    +0.004 A 
ENDBRANCH   4  27
ENDBRANCH   8   6
BRANCH  15  16
ATOM     16  C   UNL     1      -1.873   3.762  24.530  0.00  0.00    +0.226 C 
BRANCH  16  17
ATOM     17  O   UNL     1      -2.371   3.945  25.162  0.00  0.00    -0.432 OA
BRANCH  17  18
ATOM     18  C   UNL     1      -3.187   3.853  25.084  0.00  0.00    +0.421 C 
ATOM     19  O   UNL     1      -3.575   4.156  24.423  0.00  0.00    -0.225 OA
ATOM     20  N   UNL     1      -3.614   3.457  25.669  0.00  0.00    -0.170 NA
BRANCH  20  21
ATOM     21  C   UNL     1      -4.430   3.365  25.592  0.00  0.00    +0.099 C 
ATOM     22  C   UNL     1      -4.933   4.004  25.731  0.00  0.00    +0.022 C 
ATOM     23  C   UNL     1      -5.750   3.911  25.654  0.00  0.00    +0.002 C 
ATOM     24  C   UNL     1      -6.062   3.179  25.437  0.00  0.00    +0.000 C 
ATOM     25  C   UNL     1      -5.560   2.540  25.298  0.00  0.00    +0.002 C 
ATOM     26  C   UNL     1      -4.744   2.633  25.375  0.00  0.00    +0.022 C 
ENDBRANCH  20  21
ENDBRANCH  17  18
ENDBRANCH  16  17
ENDBRANCH  15  16
TORSDOF 6
ENDMDL
