MODEL 1
REMARK VINA RESULT:     -10.4      0.000      0.000
REMARK  Name = 
REMARK  6 active torsions:
REMARK  status: ('A' for Active; 'I' for Inactive)
REMARK    1  A    between atoms: O_2  and  C_3
REMARK    2  A    between atoms: C_6  and  C_7
REMARK    3  A    between atoms: C_7  and  N_8
REMARK    4  A    between atoms: N_12  and  C_13
REMARK    5  A    between atoms: C_13  and  C_14
REMARK    6  A    between atoms: C_17  and  O_18
REMARK                            x       y       z     vdW  Elec       q    Type
REMARK                         _______ _______ _______ _____ _____    ______ ____
ROOT
ATOM      8  N   UNL     1      -1.542   2.435  24.845  0.00  0.00    -0.258 N 
ATOM      9  C   UNL     1      -1.860   1.828  25.305  0.00  0.00    +0.116 C 
ATOM     10  C   UNL     1      -1.456   1.132  25.122  0.00  0.00    +0.113 C 
ATOM     11  C   UNL     1      -1.531   0.360  25.403  0.00  0.00    +0.094 C 
ATOM     12  N   UNL     1      -1.040  -0.235  25.112  0.00  0.00    -0.266 NA
ATOM     22  C   UNL     1      -0.472  -0.058  24.540  0.00  0.00    +0.094 C 
ATOM     23  C   UNL     1      -0.396   0.714  24.258  0.00  0.00    +0.112 C 
ATOM     24  N   UNL     1      -0.889   1.309  24.550  0.00  0.00    -0.261 N 
ATOM     25  C   UNL     1      -0.942   2.114  24.379  0.00  0.00    +0.308 C 
ATOM     26  O   UNL     1      -0.476   2.527  23.836  0.00  0.00    -0.252 OA
ENDROOT
BRANCH   8   7
ATOM      7  C   UNL     1      -1.782   3.224  24.851  0.00  0.00    +0.122 C 
BRANCH   7   6
ATOM      3  C   UNL     1      -4.165   3.791  25.203  0.00  0.00    +0.139 A 
ATOM      4  C   UNL     1      -3.903   3.558  24.457  0.00  0.00    +0.037 A 
ATOM      5  C   UNL     1      -3.109   3.369  24.339  0.00  0.00    +0.001 A 
ATOM      6  C   UNL     1      -2.576   3.413  24.968  0.00  0.00    -0.002 A 
ATOM     27  C   UNL     1      -2.839   3.646  25.715  0.00  0.00    +0.001 A 
ATOM     28  C   UNL     1      -3.633   3.835  25.832  0.00  0.00    +0.037 A 
BRANCH   3   2
ATOM      1  C   UNL     1      -5.476   3.419  25.635  0.00  0.00    +0.252 C 
ATOM      2  O   UNL     1      -4.960   3.981  25.322  0.00  0.00    -0.471 OA
ENDBRANCH   3   2
ENDBRANCH   7   6
ENDBRANCH   8   7
BRANCH  12  13
ATOM     13  C   UNL     1      -1.115  -1.007  25.393  0.00  0.00    +0.101 C 
BRANCH  13  14
ATOM     14  C   UNL     1      -1.733  -1.484  25.128  0.00  0.00    +0.013 A 
ATOM     15  C   UNL     1      -2.463  -1.466  25.512  0.00  0.00    +0.003 A 
ATOM     16  C   UNL     1      -3.081  -1.943  25.247  0.00  0.00    +0.057 A 
ATOM     17  C   UNL     1      -2.969  -2.440  24.598  0.00  0.00    +0.225 A 
ATOM     20  N   UNL     1      -2.240  -2.459  24.213  0.00  0.00    -0.210 NA
ATOM     21  C   UNL     1      -1.621  -1.981  24.479  0.00  0.00    +0.099 A 
BRANCH  17  18
ATOM     18  O   UNL     1      -3.588  -2.918  24.333  0.00  0.00    -0.456 OA
ATOM     19  C   UNL     1      -4.201  -2.590  23.890  0.00  0.00    +0.254 C 
ENDBRANCH  17  18
ENDBRANCH  13  14
ENDBRANCH  12  13
TORSDOF 6
ENDMDL
MODEL 2
REMARK VINA RESULT:     -10.1      1.785      5.249
REMARK  Name = 
REMARK  6 active torsions:
REMARK  status: ('A' for Active; 'I' for Inactive)
REMARK    1  A    between atoms: O_2  and  C_3
REMARK    2  A    between atoms: C_6  and  C_7
REMARK    3  A    between atoms: C_7  and  N_8
REMARK    4  A    between atoms: N_12  and  C_13
REMARK    5  A    between atoms: C_13  and  C_14
REMARK    6  A    between atoms: C_17  and  O_18
REMARK                            x       y       z     vdW  Elec       q    Type
REMARK                         _______ _______ _______ _____ _____    ______ ____
ROOT
ATOM      8  N   UNL     1      -4.627   0.584  24.637  0.00  0.00    -0.258 N 
ATOM      9  C   UNL     1      -3.888   0.844  24.377  0.00  0.00    +0.116 C 
ATOM     10  C   UNL     1      -3.844   1.657  24.505  0.00  0.00    +0.113 C 
ATOM     11  C   UNL     1      -3.249   2.209  24.356  0.00  0.00    +0.094 C 
ATOM     12  N   UNL     1      -3.364   3.002  24.546  0.00  0.00    -0.266 NA
ATOM     22  C   UNL     1      -4.076   3.246  24.886  0.00  0.00    +0.094 C 
ATOM     23  C   UNL     1      -4.672   2.695  25.035  0.00  0.00    +0.112 C 
ATOM     24  N   UNL     1      -4.556   1.900  24.844  0.00  0.00    -0.261 N 
ATOM     25  C   UNL     1      -5.039   1.238  24.926  0.00  0.00    +0.308 C 
ATOM     26  O   UNL     1      -5.801   1.229  25.241  0.00  0.00    -0.252 OA
ENDROOT
BRANCH   8   7
ATOM      7  C   UNL     1      -4.904  -0.192  24.613  0.00  0.00    +0.122 C 
BRANCH   7   6
ATOM      3  C   UNL     1      -3.304  -2.080  24.628  0.00  0.00    +0.139 A 
ATOM      4  C   UNL     1      -3.409  -1.624  25.306  0.00  0.00    +0.037 A 
ATOM      5  C   UNL     1      -3.942  -0.994  25.302  0.00  0.00    +0.001 A 
ATOM      6  C   UNL     1      -4.370  -0.822  24.618  0.00  0.00    -0.002 A 
ATOM     27  C   UNL     1      -4.265  -1.279  23.939  0.00  0.00    +0.001 A 
ATOM     28  C   UNL     1      -3.732  -1.908  23.944  0.00  0.00    +0.037 A 
BRANCH   3   2
ATOM      1  C   UNL     1      -1.969  -2.574  24.495  0.00  0.00    +0.252 C 
ATOM      2  O   UNL     1      -2.771  -2.710  24.632  0.00  0.00    -0.471 OA
ENDBRANCH   3   2
ENDBRANCH   7   6
ENDBRANCH   8   7
BRANCH  12  13
ATOM     13  C   UNL     1      -2.769   3.554  24.398  0.00  0.00    +0.101 C 
BRANCH  13  14
ATOM     14  C   UNL     1      -2.036   3.481  24.768  0.00  0.00    +0.013 A 
ATOM     15  C   UNL     1      -1.935   3.748  25.543  0.00  0.00    +0.003 A 
ATOM     16  C   UNL     1      -1.203   3.675  25.913  0.00  0.00    +0.057 A 
ATOM     17  C   UNL     1      -0.569   3.334  25.510  0.00  0.00    +0.225 A 
ATOM     20  N   UNL     1      -0.668   3.065  24.736  0.00  0.00    -0.210 NA
ATOM     21  C   UNL     1      -1.402   3.139  24.365  0.00  0.00    +0.099 A 
BRANCH  17  18
ATOM     18  O   UNL     1       0.165   3.260  25.881  0.00  0.00    -0.456 OA
ATOM     19  C   UNL     1       0.343   2.578  26.310  0.00  0.00    +0.254 C 
ENDBRANCH  17  18
ENDBRANCH  13  14
ENDBRANCH  12  13
TORSDOF 6
ENDMDL
MODEL 3
REMARK VINA RESULT:      -9.8      0.974      4.810
REMARK  Name = 
REMARK  6 active torsions:
REMARK  status: ('A' for Active; 'I' for Inactive)
REMARK    1  A    between atoms: O_2  and  C_3
REMARK    2  A    between atoms: C_6  and  C_7
REMARK    3  A    between atoms: C_7  and  N_8
REMARK    4  A    between atoms: N_12  and  C_13
REMARK    5  A    between atoms: C_13  and  C_14
REMARK    6  A    between atoms: C_17  and  O_18
REMARK                            x       y       z     vdW  Elec       q    Type
REMARK                         _______ _______ _______ _____ _____    ______ ____
ROOT
ATOM      8  N   UNL     1      -0.800  -0.471  25.087  0.00  0.00    -0.258 N 
ATOM      9  C   UNL     1      -1.145   0.118  25.551  0.00  0.00    +0.116 C 
ATOM     10  C   UNL     1      -0.894   0.848  25.262  0.00  0.00    +0.113 C 
ATOM     11  C   UNL     1      -1.056   1.622  25.501  0.00  0.00    +0.094 C 
ATOM     12  N   UNL     1      -0.718   2.257  25.098  0.00  0.00    -0.266 NA
ATOM     22  C   UNL     1      -0.219   2.120  24.456  0.00  0.00    +0.094 C 
ATOM     23  C   UNL     1      -0.056   1.347  24.217  0.00  0.00    +0.112 C 
ATOM     24  N   UNL     1      -0.394   0.711  24.620  0.00  0.00    -0.261 N 
ATOM     25  C   UNL     1      -0.336  -0.104  24.512  0.00  0.00    +0.308 C 
ATOM     26  O   UNL     1       0.108  -0.486  23.930  0.00  0.00    -0.252 OA
ENDROOT
BRANCH   8   7
ATOM      7  C   UNL     1      -0.901  -1.285  25.182  0.00  0.00    +0.122 C 
BRANCH   7   6
ATOM      3  C   UNL     1      -3.109  -2.317  24.753  0.00  0.00    +0.139 A 
ATOM      4  C   UNL     1      -3.006  -1.819  25.401  0.00  0.00    +0.037 A 
ATOM      5  C   UNL     1      -2.270  -1.474  25.545  0.00  0.00    +0.001 A 
ATOM      6  C   UNL     1      -1.637  -1.628  25.039  0.00  0.00    -0.002 A 
ATOM     27  C   UNL     1      -1.740  -2.127  24.389  0.00  0.00    +0.001 A 
ATOM     28  C   UNL     1      -2.476  -2.471  24.247  0.00  0.00    +0.037 A 
BRANCH   3   2
ATOM      1  C   UNL     1      -4.275  -2.452  23.937  0.00  0.00    +0.252 C 
ATOM      2  O   UNL     1      -3.845  -2.661  24.609  0.00  0.00    -0.471 OA
ENDBRANCH   3   2
ENDBRANCH   7   6
ENDBRANCH   8   7
BRANCH  12  13
ATOM     13  C   UNL     1      -0.880   3.030  25.337  0.00  0.00    +0.101 C 
BRANCH  13  14
ATOM     14  C   UNL     1      -1.652   3.318  25.311  0.00  0.00    +0.013 A 
ATOM     15  C   UNL     1      -2.043   3.515  26.010  0.00  0.00    +0.003 A 
ATOM     16  C   UNL     1      -2.816   3.803  25.983  0.00  0.00    +0.057 A 
ATOM     17  C   UNL     1      -3.198   3.893  25.258  0.00  0.00    +0.225 A 
ATOM     20  N   UNL     1      -2.808   3.695  24.558  0.00  0.00    -0.210 NA
ATOM     21  C   UNL     1      -2.034   3.407  24.585  0.00  0.00    +0.099 A 
BRANCH  17  18
ATOM     18  O   UNL     1      -3.971   4.180  25.231  0.00  0.00    -0.456 OA
ATOM     19  C   UNL     1      -4.606   3.665  25.339  0.00  0.00    +0.254 C 
ENDBRANCH  17  18
ENDBRANCH  13  14
ENDBRANCH  12  13
TORSDOF 6
ENDMDL
MODEL 4
REMARK VINA RESULT:      -9.8      1.865      2.941
REMARK  Name = 
REMARK  6 active torsions:
REMARK  status: ('A' for Active; 'I' for Inactive)
REMARK    1  A    between atoms: O_2  and  C_3
REMARK    2  A    between atoms: C_6  and  C_7
REMARK    3  A    between atoms: C_7  and  N_8
REMARK    4  A    between atoms: N_12  and  C_13
REMARK    5  A    between atoms: C_13  and  C_14
REMARK    6  A    between atoms: C_17  and  O_18
REMARK                            x       y       z     vdW  Elec       q    Type
REMARK                         _______ _______ _______ _____ _____    ______ ____
ROOT
ATOM      8  N   UNL     1      -4.365   2.668  25.089  0.00  0.00    -0.258 N 
ATOM      9  C   UNL     1      -3.894   2.230  24.571  0.00  0.00    +0.116 C 
ATOM     10  C   UNL     1      -4.138   1.444  24.610  0.00  0.00    +0.113 C 
ATOM     11  C   UNL     1      -3.875   0.764  24.222  0.00  0.00    +0.094 C 
ATOM     12  N   UNL     1      -4.232   0.037  24.375  0.00  0.00    -0.266 NA
ATOM     22  C   UNL     1      -4.853  -0.011  24.917  0.00  0.00    +0.094 C 
ATOM     23  C   UNL     1      -5.116   0.667  25.305  0.00  0.00    +0.112 C 
ATOM     24  N   UNL     1      -4.758   1.395  25.151  0.00  0.00    -0.261 N 
ATOM     25  C   UNL     1      -4.899   2.152  25.447  0.00  0.00    +0.308 C 
ATOM     26  O   UNL     1      -5.472   2.357  26.004  0.00  0.00    -0.252 OA
ENDROOT
BRANCH   8   7
ATOM      7  C   UNL     1      -4.310   3.480  25.225  0.00  0.00    +0.122 C 
BRANCH   7   6
ATOM      3  C   UNL     1      -2.092   4.572  25.336  0.00  0.00    +0.139 A 
ATOM      4  C   UNL     1      -2.510   4.560  24.625  0.00  0.00    +0.037 A 
ATOM      5  C   UNL     1      -3.250   4.196  24.587  0.00  0.00    +0.001 A 
ATOM      6  C   UNL     1      -3.571   3.844  25.261  0.00  0.00    -0.002 A 
ATOM     27  C   UNL     1      -3.152   3.856  25.973  0.00  0.00    +0.001 A 
ATOM     28  C   UNL     1      -2.413   4.220  26.009  0.00  0.00    +0.037 A 
BRANCH   3   2
ATOM      1  C   UNL     1      -0.703   4.592  24.998  0.00  0.00    +0.252 C 
ATOM      2  O   UNL     1      -1.352   4.936  25.374  0.00  0.00    -0.471 OA
ENDBRANCH   3   2
ENDBRANCH   7   6
ENDBRANCH   8   7
BRANCH  12  13
ATOM     13  C   UNL     1      -3.969  -0.642  23.988  0.00  0.00    +0.101 C 
BRANCH  13  14
ATOM     14  C   UNL     1      -3.310  -1.049  24.268  0.00  0.00    +0.013 A 
ATOM     15  C   UNL     1      -3.407  -1.734  24.717  0.00  0.00    +0.003 A 
ATOM     16  C   UNL     1      -2.747  -2.141  24.998  0.00  0.00    +0.057 A 
ATOM     17  C   UNL     1      -1.989  -1.862  24.830  0.00  0.00    +0.225 A 
ATOM     20  N   UNL     1      -1.890  -1.177  24.382  0.00  0.00    -0.210 NA
ATOM     21  C   UNL     1      -2.551  -0.770  24.101  0.00  0.00    +0.099 A 
BRANCH  17  18
ATOM     18  O   UNL     1      -1.327  -2.269  25.111  0.00  0.00    -0.456 OA
ATOM     19  C   UNL     1      -0.658  -1.851  25.350  0.00  0.00    +0.254 C 
ENDBRANCH  17  18
ENDBRANCH  13  14
ENDBRANCH  12  13
TORSDOF 6
ENDMDL
MODEL 5
REMARK VINA RESULT:      -9.6      1.279      4.759
REMARK  Name = 
REMARK  6 active torsions:
REMARK  status: ('A' for Active; 'I' for Inactive)
REMARK    1  A    between atoms: O_2  and  C_3
REMARK    2  A    between atoms: C_6  and  C_7
REMARK    3  A    between atoms: C_7  and  N_8
REMARK    4  A    between atoms: N_12  and  C_13
REMARK    5  A    between atoms: C_13  and  C_14
REMARK    6  A    between atoms: C_17  and  O_18
REMARK                            x       y       z     vdW  Elec       q    Type
REMARK                         _______ _______ _______ _____ _____    ______ ____
ROOT
ATOM      8  N   UNL     1      -0.707   1.295  24.934  0.00  0.00    -0.258 N 
ATOM      9  C   UNL     1      -1.447   1.376  24.578  0.00  0.00    +0.116 C 
ATOM     10  C   UNL     1      -1.734   2.128  24.755  0.00  0.00    +0.113 C 
ATOM     11  C   UNL     1      -2.435   2.514  24.553  0.00  0.00    +0.094 C 
ATOM     12  N   UNL     1      -2.574   3.283  24.815  0.00  0.00    -0.266 NA
ATOM     22  C   UNL     1      -2.011   3.668  25.279  0.00  0.00    +0.094 C 
ATOM     23  C   UNL     1      -1.310   3.284  25.482  0.00  0.00    +0.112 C 
ATOM     24  N   UNL     1      -1.171   2.513  25.219  0.00  0.00    -0.261 N 
ATOM     25  C   UNL     1      -0.537   1.999  25.330  0.00  0.00    +0.308 C 
ATOM     26  O   UNL     1       0.149   2.159  25.761  0.00  0.00    -0.252 OA
ENDROOT
BRANCH   8   7
ATOM      7  C   UNL     1      -0.222   0.629  24.899  0.00  0.00    +0.122 C 
BRANCH   7   6
ATOM      3  C   UNL     1      -1.228  -1.628  24.763  0.00  0.00    +0.139 A 
ATOM      4  C   UNL     1      -0.890  -1.287  24.093  0.00  0.00    +0.037 A 
ATOM      5  C   UNL     1      -0.554  -0.534  24.138  0.00  0.00    +0.001 A 
ATOM      6  C   UNL     1      -0.557  -0.123  24.853  0.00  0.00    -0.002 A 
ATOM     27  C   UNL     1      -0.896  -0.465  25.524  0.00  0.00    +0.001 A 
ATOM     28  C   UNL     1      -1.231  -1.218  25.478  0.00  0.00    +0.037 A 
BRANCH   3   2
ATOM      1  C   UNL     1      -2.371  -2.465  24.575  0.00  0.00    +0.252 C 
ATOM      2  O   UNL     1      -1.563  -2.381  24.718  0.00  0.00    -0.471 OA
ENDBRANCH   3   2
ENDBRANCH   7   6
ENDBRANCH   8   7
BRANCH  12  13
ATOM     13  C   UNL     1      -3.275   3.669  24.614  0.00  0.00    +0.101 C 
BRANCH  13  14
ATOM     14  C   UNL     1      -3.980   3.465  24.988  0.00  0.00    +0.013 A 
ATOM     15  C   UNL     1      -4.521   2.969  24.611  0.00  0.00    +0.003 A 
ATOM     16  C   UNL     1      -5.226   2.765  24.986  0.00  0.00    +0.057 A 
ATOM     17  C   UNL     1      -5.393   3.059  25.739  0.00  0.00    +0.225 A 
ATOM     20  N   UNL     1      -4.853   3.555  26.117  0.00  0.00    -0.210 NA
ATOM     21  C   UNL     1      -4.147   3.759  25.741  0.00  0.00    +0.099 A 
BRANCH  17  18
ATOM     18  O   UNL     1      -6.099   2.855  26.114  0.00  0.00    -0.456 OA
ATOM     19  C   UNL     1      -6.264   2.065  26.281  0.00  0.00    +0.254 C 
ENDBRANCH  17  18
ENDBRANCH  13  14
ENDBRANCH  12  13
TORSDOF 6
ENDMDL
