MODEL 1
REMARK VINA RESULT:     -13.5      0.000      0.000
REMARK  Name = 
REMARK  4 active torsions:
REMARK  status: ('A' for Active; 'I' for Inactive)
REMARK    1  A    between atoms: S_2  and  C_3
REMARK    2  A    between atoms: C_3  and  C_4
REMARK    3  A    between atoms: C_15  and  C_20
REMARK    4  A    between atoms: C_24  and  C_26
REMARK                            x       y       z     vdW  Elec       q    Type
REMARK                         _______ _______ _______ _____ _____    ______ ____
ROOT
ATOM      4  C   UNL     1      -2.012  -0.561  24.889  0.00  0.00    +0.237 C 
ATOM      5  O   UNL     1      -1.279  -0.272  25.131  0.00  0.00    -0.274 OA
ATOM      6  N   UNL     1      -2.151  -1.375  24.876  0.00  0.00    -0.278 N 
ATOM      7  C   UNL     1      -2.002  -2.192  24.964  0.00  0.00    +0.095 C 
ATOM      8  C   UNL     1      -2.876  -2.552  24.676  0.00  0.00    +0.043 C 
ATOM      9  C   UNL     1      -3.525  -2.999  24.470  0.00  0.00    +0.011 C 
ATOM     10  C   UNL     1      -3.352  -2.320  24.501  0.00  0.00    +0.058 C 
ATOM     11  C   UNL     1      -2.502  -1.988  24.781  0.00  0.00    +0.099 C 
ATOM     12  C   UNL     1      -3.694  -1.481  24.345  0.00  0.00    +0.041 A 
ATOM     13  C   UNL     1      -4.384  -1.108  24.089  0.00  0.00    +0.013 A 
ATOM     14  C   UNL     1      -4.414  -0.285  24.043  0.00  0.00    +0.006 A 
ATOM     15  C   UNL     1      -3.755   0.165  24.252  0.00  0.00    +0.056 A 
ATOM     16  C   UNL     1      -3.065  -0.208  24.508  0.00  0.00    +0.261 A 
ATOM     17  O   UNL     1      -2.777   0.561  24.574  0.00  0.00    -0.267 OA
ATOM     18  N   UNL     1      -3.035  -1.031  24.554  0.00  0.00    -0.299 N 
ATOM     19  C   UNL     1      -3.225  -1.672  24.516  0.00  0.00    +0.110 C 
ENDROOT
BRANCH  15  20
ATOM     20  C   UNL     1      -3.786   0.988  24.205  0.00  0.00    +0.005 A 
ATOM     21  C   UNL     1      -3.402   1.381  23.590  0.00  0.00    +0.000 A 
ATOM     22  C   UNL     1      -3.433   2.205  23.544  0.00  0.00    +0.001 A 
ATOM     23  C   UNL     1      -3.850   2.634  24.112  0.00  0.00    +0.010 A 
ATOM     24  C   UNL     1      -4.234   2.240  24.727  0.00  0.00    +0.068 A 
ATOM     25  C   UNL     1      -4.202   1.417  24.773  0.00  0.00    +0.010 A 
BRANCH  24  26
ATOM     26  C   UNL     1      -4.650   2.670  25.296  0.00  0.00    +0.100 C 
ATOM     27  N   UNL     1      -5.066   3.100  25.864  0.00  0.00    -0.191 NA
ENDBRANCH  24  26
ENDBRANCH  15  20
BRANCH   4   3
ATOM      3  C   UNL     1      -2.607  -0.037  24.659  0.00  0.00    +0.143 C 
BRANCH   3   2
ATOM      1  C   UNL     1      -1.758   1.067  24.977  0.00  0.00    +0.070 C 
ATOM      2  S   UNL     1      -2.476   0.776  24.694  0.00  0.00    -0.130 S 
ENDBRANCH   3   2
ENDBRANCH   4   3
TORSDOF 4
ENDMDL
MODEL 2
REMARK VINA RESULT:     -13.3      1.227      3.764
REMARK  Name = 
REMARK  4 active torsions:
REMARK  status: ('A' for Active; 'I' for Inactive)
REMARK    1  A    between atoms: S_2  and  C_3
REMARK    2  A    between atoms: C_3  and  C_4
REMARK    3  A    between atoms: C_15  and  C_20
REMARK    4  A    between atoms: C_24  and  C_26
REMARK                            x       y       z     vdW  Elec       q    Type
REMARK                         _______ _______ _______ _____ _____    ______ ____
ROOT
ATOM      4  C   UNL     1      -2.584   1.631  24.383  0.00  0.00    +0.237 C 
ATOM      5  O   UNL     1      -1.791   1.547  24.176  0.00  0.00    -0.274 OA
ATOM      6  N   UNL     1      -2.939   2.376  24.367  0.00  0.00    -0.278 N 
ATOM      7  C   UNL     1      -3.013   3.201  24.260  0.00  0.00    +0.095 C 
ATOM      8  C   UNL     1      -3.964   3.315  24.506  0.00  0.00    +0.043 C 
ATOM      9  C   UNL     1      -4.717   3.573  24.675  0.00  0.00    +0.011 C 
ATOM     10  C   UNL     1      -4.366   2.966  24.671  0.00  0.00    +0.058 C 
ATOM     11  C   UNL     1      -3.446   2.872  24.431  0.00  0.00    +0.099 C 
ATOM     12  C   UNL     1      -4.474   2.069  24.839  0.00  0.00    +0.041 A 
ATOM     13  C   UNL     1      -5.047   1.527  25.082  0.00  0.00    +0.013 A 
ATOM     14  C   UNL     1      -4.855   0.728  25.151  0.00  0.00    +0.006 A 
ATOM     15  C   UNL     1      -4.091   0.470  24.979  0.00  0.00    +0.056 A 
ATOM     16  C   UNL     1      -3.518   1.012  24.737  0.00  0.00    +0.261 A 
ATOM     17  O   UNL     1      -3.029   0.348  24.704  0.00  0.00    -0.267 OA
ATOM     18  N   UNL     1      -3.709   1.811  24.667  0.00  0.00    -0.299 N 
ATOM     19  C   UNL     1      -4.067   2.376  24.679  0.00  0.00    +0.110 C 
ENDROOT
BRANCH  15  20
ATOM     20  C   UNL     1      -3.900  -0.329  25.049  0.00  0.00    +0.005 A 
ATOM     21  C   UNL     1      -3.498  -0.601  25.716  0.00  0.00    +0.000 A 
ATOM     22  C   UNL     1      -3.307  -1.401  25.786  0.00  0.00    +0.001 A 
ATOM     23  C   UNL     1      -3.519  -1.928  25.188  0.00  0.00    +0.010 A 
ATOM     24  C   UNL     1      -3.921  -1.657  24.521  0.00  0.00    +0.068 A 
ATOM     25  C   UNL     1      -4.111  -0.857  24.451  0.00  0.00    +0.010 A 
BRANCH  24  26
ATOM     26  C   UNL     1      -4.132  -2.185  23.923  0.00  0.00    +0.100 C 
ATOM     27  N   UNL     1      -4.343  -2.713  23.325  0.00  0.00    -0.191 NA
ENDBRANCH  24  26
ENDBRANCH  15  20
BRANCH   4   3
ATOM      3  C   UNL     1      -3.025   0.969  24.607  0.00  0.00    +0.143 C 
BRANCH   3   2
ATOM      1  C   UNL     1      -1.852   0.158  24.514  0.00  0.00    +0.070 C 
ATOM      2  S   UNL     1      -2.658   0.233  24.671  0.00  0.00    -0.130 S 
ENDBRANCH   3   2
ENDBRANCH   4   3
TORSDOF 4
ENDMDL
MODEL 3
REMARK VINA RESULT:     -12.6      2.963      4.268
REMARK  Name = 
REMARK  4 active torsions:
REMARK  status: ('A' for Active; 'I' for Inactive)
REMARK    1  A    between atoms: S_2  and  C_3
REMARK    2  A    between atoms: C_3  and  C_4
REMARK    3  A    between atoms: C_15  and  C_20
REMARK    4  A    between atoms: C_24  and  C_26
REMARK                            x       y       z     vdW  Elec       q    Type
REMARK                         _______ _______ _______ _____ _____    ______ ____
ROOT
ATOM      4  C   UNL     1      -3.626   2.154  24.227  0.00  0.00    +0.237 C 
ATOM      5  O   UNL     1      -3.399   1.648  23.616  0.00  0.00    -0.274 OA
ATOM      6  N   UNL     1      -4.414   2.179  24.470  0.00  0.00    -0.278 N 
ATOM      7  C   UNL     1      -5.229   1.993  24.494  0.00  0.00    +0.095 C 
ATOM      8  C   UNL     1      -5.514   2.595  25.224  0.00  0.00    +0.043 C 
ATOM      9  C   UNL     1      -5.903   3.024  25.797  0.00  0.00    +0.011 C 
ATOM     10  C   UNL     1      -5.249   2.962  25.550  0.00  0.00    +0.058 C 
ATOM     11  C   UNL     1      -4.989   2.376  24.842  0.00  0.00    +0.099 C 
ATOM     12  C   UNL     1      -4.399   3.290  25.670  0.00  0.00    +0.041 A 
ATOM     13  C   UNL     1      -3.979   3.826  26.135  0.00  0.00    +0.013 A 
ATOM     14  C   UNL     1      -3.168   3.925  26.020  0.00  0.00    +0.006 A 
ATOM     15  C   UNL     1      -2.777   3.489  25.439  0.00  0.00    +0.056 A 
ATOM     16  C   UNL     1      -3.197   2.953  24.974  0.00  0.00    +0.261 A 
ATOM     17  O   UNL     1      -2.464   2.815  24.623  0.00  0.00    -0.267 OA
ATOM     18  N   UNL     1      -4.008   2.853  25.089  0.00  0.00    -0.299 N 
ATOM     19  C   UNL     1      -4.622   2.931  25.343  0.00  0.00    +0.110 C 
ENDROOT
BRANCH  15  20
ATOM     20  C   UNL     1      -1.967   3.589  25.324  0.00  0.00    +0.005 A 
ATOM     21  C   UNL     1      -1.693   4.120  24.756  0.00  0.00    +0.000 A 
ATOM     22  C   UNL     1      -0.881   4.220  24.641  0.00  0.00    +0.001 A 
ATOM     23  C   UNL     1      -0.345   3.788  25.095  0.00  0.00    +0.010 A 
ATOM     24  C   UNL     1      -0.619   3.256  25.663  0.00  0.00    +0.068 A 
ATOM     25  C   UNL     1      -1.430   3.157  25.778  0.00  0.00    +0.010 A 
BRANCH  24  26
ATOM     26  C   UNL     1      -0.082   2.825  26.117  0.00  0.00    +0.100 C 
ATOM     27  N   UNL     1       0.455   2.393  26.571  0.00  0.00    -0.191 NA
ENDBRANCH  24  26
ENDBRANCH  15  20
BRANCH   4   3
ATOM      3  C   UNL     1      -3.065   2.636  24.594  0.00  0.00    +0.143 C 
BRANCH   3   2
ATOM      1  C   UNL     1      -2.092   2.241  23.625  0.00  0.00    +0.070 C 
ATOM      2  S   UNL     1      -2.299   2.679  24.292  0.00  0.00    -0.130 S 
ENDBRANCH   3   2
ENDBRANCH   4   3
TORSDOF 4
ENDMDL
MODEL 4
REMARK VINA RESULT:     -12.3      1.699      4.245
REMARK  Name = 
REMARK  4 active torsions:
REMARK  status: ('A' for Active; 'I' for Inactive)
REMARK    1  A    between atoms: S_2  and  C_3
REMARK    2  A    between atoms: C_3  and  C_4
REMARK    3  A    between atoms: C_15  and  C_20
REMARK    4  A    between atoms: C_24  and  C_26
REMARK                            x       y       z     vdW  Elec       q    Type
REMARK                         _______ _______ _______ _____ _____    ______ ____
ROOT
ATOM      4  C   UNL     1      -4.015   2.916  25.296  0.00  0.00    +0.237 C 
ATOM      5  O   UNL     1      -4.823   3.022  25.421  0.00  0.00    -0.274 OA
ATOM      6  N   UNL     1      -3.491   3.541  25.428  0.00  0.00    -0.278 N 
ATOM      7  C   UNL     1      -3.229   4.307  25.633  0.00  0.00    +0.095 C 
ATOM      8  C   UNL     1      -2.258   4.194  25.487  0.00  0.00    +0.043 C 
ATOM      9  C   UNL     1      -1.450   4.263  25.416  0.00  0.00    +0.011 C 
ATOM     10  C   UNL     1      -1.938   3.768  25.320  0.00  0.00    +0.058 C 
ATOM     11  C   UNL     1      -2.874   3.894  25.466  0.00  0.00    +0.099 C 
ATOM     12  C   UNL     1      -2.036   2.892  25.062  0.00  0.00    +0.041 A 
ATOM     13  C   UNL     1      -1.590   2.244  24.812  0.00  0.00    +0.013 A 
ATOM     14  C   UNL     1      -1.964   1.530  24.635  0.00  0.00    +0.006 A 
ATOM     15  C   UNL     1      -2.783   1.464  24.709  0.00  0.00    +0.056 A 
ATOM     16  C   UNL     1      -3.229   2.111  24.959  0.00  0.00    +0.261 A 
ATOM     17  O   UNL     1      -3.866   1.596  24.873  0.00  0.00    -0.267 OA
ATOM     18  N   UNL     1      -2.855   2.825  25.135  0.00  0.00    -0.299 N 
ATOM     19  C   UNL     1      -2.370   3.279  25.219  0.00  0.00    +0.110 C 
ENDROOT
BRANCH  15  20
ATOM     20  C   UNL     1      -3.156   0.750  24.532  0.00  0.00    +0.005 A 
ATOM     21  C   UNL     1      -3.544   0.654  23.811  0.00  0.00    +0.000 A 
ATOM     22  C   UNL     1      -3.917  -0.061  23.634  0.00  0.00    +0.001 A 
ATOM     23  C   UNL     1      -3.901  -0.680  24.180  0.00  0.00    +0.010 A 
ATOM     24  C   UNL     1      -3.512  -0.584  24.901  0.00  0.00    +0.068 A 
ATOM     25  C   UNL     1      -3.140   0.131  25.077  0.00  0.00    +0.010 A 
BRANCH  24  26
ATOM     26  C   UNL     1      -3.497  -1.203  25.447  0.00  0.00    +0.100 C 
ATOM     27  N   UNL     1      -3.481  -1.822  25.992  0.00  0.00    -0.191 NA
ENDBRANCH  24  26
ENDBRANCH  15  20
BRANCH   4   3
ATOM      3  C   UNL     1      -3.729   2.186  25.039  0.00  0.00    +0.143 C 
BRANCH   3   2
ATOM      1  C   UNL     1      -5.066   1.690  24.957  0.00  0.00    +0.070 C 
ATOM      2  S   UNL     1      -4.255   1.576  24.863  0.00  0.00    -0.130 S 
ENDBRANCH   3   2
ENDBRANCH   4   3
TORSDOF 4
ENDMDL
MODEL 5
REMARK VINA RESULT:     -12.1      1.356      2.550
REMARK  Name = 
REMARK  4 active torsions:
REMARK  status: ('A' for Active; 'I' for Inactive)
REMARK    1  A    between atoms: S_2  and  C_3
REMARK    2  A    between atoms: C_3  and  C_4
REMARK    3  A    between atoms: C_15  and  C_20
REMARK    4  A    between atoms: C_24  and  C_26
REMARK                            x       y       z     vdW  Elec       q    Type
REMARK                         _______ _______ _______ _____ _____    ______ ____
ROOT
ATOM      4  C   UNL     1      -3.334   0.156  24.085  0.00  0.00    +0.237 C 
ATOM      5  O   UNL     1      -3.778   0.775  23.769  0.00  0.00    -0.274 OA
ATOM      6  N   UNL     1      -3.681  -0.584  24.198  0.00  0.00    -0.278 N 
ATOM      7  C   UNL     1      -4.269  -1.177  24.195  0.00  0.00    +0.095 C 
ATOM      8  C   UNL     1      -3.749  -1.928  24.573  0.00  0.00    +0.043 C 
ATOM      9  C   UNL     1      -3.465  -2.633  24.866  0.00  0.00    +0.011 C 
ATOM     10  C   UNL     1      -3.223  -1.985  24.749  0.00  0.00    +0.058 C 
ATOM     11  C   UNL     1      -3.739  -1.270  24.383  0.00  0.00    +0.099 C 
ATOM     12  C   UNL     1      -2.462  -1.475  24.828  0.00  0.00    +0.041 A 
ATOM     13  C   UNL     1      -1.679  -1.527  25.079  0.00  0.00    +0.013 A 
ATOM     14  C   UNL     1      -1.186  -0.867  25.034  0.00  0.00    +0.006 A 
ATOM     15  C   UNL     1      -1.477  -0.155  24.737  0.00  0.00    +0.056 A 
ATOM     16  C   UNL     1      -2.260  -0.102  24.485  0.00  0.00    +0.261 A 
ATOM     17  O   UNL     1      -2.062   0.680  24.315  0.00  0.00    -0.267 OA
ATOM     18  N   UNL     1      -2.753  -0.762  24.530  0.00  0.00    -0.299 N 
ATOM     19  C   UNL     1      -2.960  -1.387  24.652  0.00  0.00    +0.110 C 
ENDROOT
BRANCH  15  20
ATOM     20  C   UNL     1      -0.983   0.504  24.692  0.00  0.00    +0.005 A 
ATOM     21  C   UNL     1      -0.611   0.693  23.981  0.00  0.00    +0.000 A 
ATOM     22  C   UNL     1      -0.117   1.354  23.936  0.00  0.00    +0.001 A 
ATOM     23  C   UNL     1       0.004   1.824  24.603  0.00  0.00    +0.010 A 
ATOM     24  C   UNL     1      -0.369   1.634  25.314  0.00  0.00    +0.068 A 
ATOM     25  C   UNL     1      -0.862   0.975  25.359  0.00  0.00    +0.010 A 
BRANCH  24  26
ATOM     26  C   UNL     1      -0.248   2.105  25.981  0.00  0.00    +0.100 C 
ATOM     27  N   UNL     1      -0.127   2.575  26.648  0.00  0.00    -0.191 NA
ENDBRANCH  24  26
ENDBRANCH  15  20
BRANCH   4   3
ATOM      3  C   UNL     1      -2.543   0.277  24.288  0.00  0.00    +0.143 C 
BRANCH   3   2
ATOM      1  C   UNL     1      -2.599   1.590  23.728  0.00  0.00    +0.070 C 
ATOM      2  S   UNL     1      -2.177   0.994  24.112  0.00  0.00    -0.130 S 
ENDBRANCH   3   2
ENDBRANCH   4   3
TORSDOF 4
ENDMDL
MODEL 6
REMARK VINA RESULT:     -11.8      1.990      3.812
REMARK  Name = 
REMARK  4 active torsions:
REMARK  status: ('A' for Active; 'I' for Inactive)
REMARK    1  A    between atoms: S_2  and  C_3
REMARK    2  A    between atoms: C_3  and  C_4
REMARK    3  A    between atoms: C_15  and  C_20
REMARK    4  A    between atoms: C_24  and  C_26
REMARK                            x       y       z     vdW  Elec       q    Type
REMARK                         _______ _______ _______ _____ _____    ______ ____
ROOT
ATOM      4  C   UNL     1      -3.848   3.167  25.225  0.00  0.00    +0.237 C 
ATOM      5  O   UNL     1      -3.434   3.864  25.377  0.00  0.00    -0.274 OA
ATOM      6  N   UNL     1      -4.637   3.097  25.454  0.00  0.00    -0.278 N 
ATOM      7  C   UNL     1      -5.375   3.312  25.783  0.00  0.00    +0.095 C 
ATOM      8  C   UNL     1      -5.882   2.482  25.607  0.00  0.00    +0.043 C 
ATOM      9  C   UNL     1      -6.428   1.881  25.537  0.00  0.00    +0.011 C 
ATOM     10  C   UNL     1      -5.757   1.995  25.365  0.00  0.00    +0.058 C 
ATOM     11  C   UNL     1      -5.280   2.804  25.543  0.00  0.00    +0.099 C 
ATOM     12  C   UNL     1      -5.037   1.590  24.964  0.00  0.00    +0.041 A 
ATOM     13  C   UNL     1      -4.821   0.881  24.601  0.00  0.00    +0.013 A 
ATOM     14  C   UNL     1      -4.055   0.783  24.311  0.00  0.00    +0.006 A 
ATOM     15  C   UNL     1      -3.505   1.393  24.383  0.00  0.00    +0.056 A 
ATOM     16  C   UNL     1      -3.721   2.102  24.745  0.00  0.00    +0.261 A 
ATOM     17  O   UNL     1      -2.943   2.322  24.582  0.00  0.00    -0.267 OA
ATOM     18  N   UNL     1      -4.487   2.200  25.036  0.00  0.00    -0.299 N 
ATOM     19  C   UNL     1      -5.125   2.067  25.188  0.00  0.00    +0.110 C 
ENDROOT
BRANCH  15  20
ATOM     20  C   UNL     1      -2.740   1.294  24.092  0.00  0.00    +0.005 A 
ATOM     21  C   UNL     1      -2.509   1.676  23.399  0.00  0.00    +0.000 A 
ATOM     22  C   UNL     1      -1.742   1.577  23.108  0.00  0.00    +0.001 A 
ATOM     23  C   UNL     1      -1.208   1.095  23.513  0.00  0.00    +0.010 A 
ATOM     24  C   UNL     1      -1.439   0.714  24.207  0.00  0.00    +0.068 A 
ATOM     25  C   UNL     1      -2.205   0.813  24.496  0.00  0.00    +0.010 A 
BRANCH  24  26
ATOM     26  C   UNL     1      -0.904   0.233  24.610  0.00  0.00    +0.100 C 
ATOM     27  N   UNL     1      -0.369  -0.249  25.014  0.00  0.00    -0.191 NA
ENDBRANCH  24  26
ENDBRANCH  15  20
BRANCH   4   3
ATOM      3  C   UNL     1      -3.472   2.538  24.844  0.00  0.00    +0.143 C 
BRANCH   3   2
ATOM      1  C   UNL     1      -2.252   3.281  24.821  0.00  0.00    +0.070 C 
ATOM      2  S   UNL     1      -2.677   2.600  24.634  0.00  0.00    -0.130 S 
ENDBRANCH   3   2
ENDBRANCH   4   3
TORSDOF 4
ENDMDL
