MODEL 1
REMARK VINA RESULT:     -11.7      0.000      0.000
REMARK  Name = 
REMARK  5 active torsions:
REMARK  status: ('A' for Active; 'I' for Inactive)
REMARK    1  A    between atoms: C_2  and  N_4
REMARK    2  A    between atoms: N_10  and  S_23
REMARK    3  A    between atoms: C_11  and  C_13
REMARK    4  A    between atoms: N_15  and  C_16
REMARK    5  A    between atoms: S_23  and  C_26
REMARK                            x       y       z     vdW  Elec       q    Type
REMARK                         _______ _______ _______ _____ _____    ______ ____
ROOT
ATOM      4  N   UNL     1      -3.435   3.296  25.133  0.00  0.00    -0.190 NA
ATOM      5  C   UNL     1      -4.096   2.823  25.278  0.00  0.00    +0.323 C 
ATOM      6  O   UNL     1      -4.790   3.163  25.566  0.00  0.00    -0.251 OA
ATOM      7  N   UNL     1      -4.061   2.012  25.136  0.00  0.00    -0.259 N 
ATOM      8  C   UNL     1      -4.722   1.539  25.281  0.00  0.00    +0.114 C 
ATOM      9  C   UNL     1      -4.687   0.727  25.139  0.00  0.00    +0.118 C 
ATOM     10  N   UNL     1      -3.993   0.388  24.852  0.00  0.00    -0.145 NA
ATOM     11  C   UNL     1      -3.332   0.860  24.706  0.00  0.00    +0.177 C 
ATOM     12  C   UNL     1      -3.366   1.672  24.849  0.00  0.00    +0.122 C 
ENDROOT
BRANCH   4   2
ATOM      1  C   UNL     1      -3.784   4.613  24.704  0.00  0.00    +0.023 C 
ATOM      2  C   UNL     1      -3.469   4.108  25.275  0.00  0.00    +0.097 C 
ATOM      3  C   UNL     1      -3.188   4.414  25.988  0.00  0.00    +0.023 C 
ENDBRANCH   4   2
BRANCH  11  13
ATOM     13  C   UNL     1      -2.637   0.521  24.419  0.00  0.00    +0.260 C 
ATOM     14  O   UNL     1      -2.637   0.133  23.692  0.00  0.00    -0.272 OA
ATOM     15  N   UNL     1      -1.941   0.572  24.860  0.00  0.00    -0.197 NA
BRANCH  15  16
ATOM     16  C   UNL     1      -1.245   0.233  24.573  0.00  0.00    +0.173 C 
ATOM     17  C   UNL     1      -1.056   0.293  23.772  0.00  0.00    +0.033 C 
ATOM     18  C   UNL     1      -0.360  -0.046  23.486  0.00  0.00    +0.026 C 
ATOM     19  C   UNL     1       0.147  -0.444  24.002  0.00  0.00    +0.115 C 
ATOM     20  N   UNL     1      -0.043  -0.503  24.803  0.00  0.00    -0.204 NA
ATOM     21  C   UNL     1      -0.739  -0.165  25.089  0.00  0.00    +0.261 C 
ATOM     22  O   UNL     1      -0.928  -0.224  25.890  0.00  0.00    -0.271 OA
ENDBRANCH  15  16
ENDBRANCH  11  13
BRANCH  10  23
ATOM     23  S   UNL     1      -3.959  -0.424  24.710  0.00  0.00    +0.064 S 
ATOM     24  O   UNL     1      -3.825  -0.559  25.514  0.00  0.00    -0.153 OA
ATOM     25  O   UNL     1      -4.092  -0.289  23.907  0.00  0.00    -0.153 OA
BRANCH  23  26
ATOM     26  C   UNL     1      -3.924  -1.236  24.568  0.00  0.00    +0.122 A 
ATOM     27  C   UNL     1      -3.640  -1.745  25.151  0.00  0.00    +0.022 A 
ATOM     28  C   UNL     1      -3.606  -2.557  25.008  0.00  0.00    +0.031 A 
ATOM     29  C   UNL     1      -3.856  -2.860  24.283  0.00  0.00    +0.140 A 
ATOM     30  F   UNL     1      -3.822  -3.672  24.141  0.00  0.00    -0.204 F 
ATOM     31  C   UNL     1      -4.140  -2.351  23.699  0.00  0.00    +0.031 A 
ATOM     32  C   UNL     1      -4.175  -1.539  23.841  0.00  0.00    +0.022 A 
ENDBRANCH  23  26
ENDBRANCH  10  23
TORSDOF 5
ENDMDL
MODEL 2
REMARK VINA RESULT:     -11.1      2.404      5.158
REMARK  Name = 
REMARK  5 active torsions:
REMARK  status: ('A' for Active; 'I' for Inactive)
REMARK    1  A    between atoms: C_2  and  N_4
REMARK    2  A    between atoms: N_10  and  S_23
REMARK    3  A    between atoms: C_11  and  C_13
REMARK    4  A    between atoms: N_15  and  C_16
REMARK    5  A    between atoms: S_23  and  C_26
REMARK                            x       y       z     vdW  Elec       q    Type
REMARK                         _______ _______ _______ _____ _____    ______ ____
ROOT
ATOM      4  N   UNL     1      -3.268  -1.497  24.636  0.00  0.00    -0.190 NA
ATOM      5  C   UNL     1      -2.470  -1.328  24.507  0.00  0.00    +0.323 C 
ATOM      6  O   UNL     1      -1.947  -1.934  24.310  0.00  0.00    -0.251 OA
ATOM      7  N   UNL     1      -2.197  -0.553  24.574  0.00  0.00    -0.259 N 
ATOM      8  C   UNL     1      -1.400  -0.384  24.444  0.00  0.00    +0.114 C 
ATOM      9  C   UNL     1      -1.126   0.392  24.512  0.00  0.00    +0.118 C 
ATOM     10  N   UNL     1      -1.649   0.998  24.708  0.00  0.00    -0.145 NA
ATOM     11  C   UNL     1      -2.447   0.829  24.838  0.00  0.00    +0.177 C 
ATOM     12  C   UNL     1      -2.720   0.054  24.771  0.00  0.00    +0.122 C 
ENDROOT
BRANCH   4   2
ATOM      1  C   UNL     1      -3.377  -2.820  25.164  0.00  0.00    +0.023 C 
ATOM      2  C   UNL     1      -3.542  -2.272  24.569  0.00  0.00    +0.097 C 
ATOM      3  C   UNL     1      -3.979  -2.499  23.907  0.00  0.00    +0.023 C 
ENDBRANCH   4   2
BRANCH  11  13
ATOM     13  C   UNL     1      -2.971   1.436  25.035  0.00  0.00    +0.260 C 
ATOM     14  O   UNL     1      -2.858   1.871  25.726  0.00  0.00    -0.272 OA
ATOM     15  N   UNL     1      -3.608   1.606  24.540  0.00  0.00    -0.197 NA
BRANCH  15  16
ATOM     16  C   UNL     1      -4.133   2.212  24.735  0.00  0.00    +0.173 C 
ATOM     17  C   UNL     1      -4.379   2.309  25.517  0.00  0.00    +0.033 C 
ATOM     18  C   UNL     1      -4.904   2.914  25.712  0.00  0.00    +0.026 C 
ATOM     19  C   UNL     1      -5.182   3.424  25.125  0.00  0.00    +0.115 C 
ATOM     20  N   UNL     1      -4.936   3.327  24.344  0.00  0.00    -0.204 NA
ATOM     21  C   UNL     1      -4.411   2.721  24.149  0.00  0.00    +0.261 C 
ATOM     22  O   UNL     1      -4.164   2.624  23.367  0.00  0.00    -0.271 OA
ENDBRANCH  15  16
ENDBRANCH  11  13
BRANCH  10  23
ATOM     23  S   UNL     1      -1.376   1.773  24.776  0.00  0.00    +0.064 S 
ATOM     24  O   UNL     1      -1.446   1.869  23.958  0.00  0.00    -0.153 OA
ATOM     25  O   UNL     1      -1.305   1.677  25.592  0.00  0.00    -0.153 OA
BRANCH  23  26
ATOM     26  C   UNL     1      -1.102   2.548  24.843  0.00  0.00    +0.122 A 
ATOM     27  C   UNL     1      -0.942   2.867  25.587  0.00  0.00    +0.022 A 
ATOM     28  C   UNL     1      -0.668   3.642  25.654  0.00  0.00    +0.031 A 
ATOM     29  C   UNL     1      -0.554   4.100  24.977  0.00  0.00    +0.140 A 
ATOM     30  F   UNL     1      -0.280   4.875  25.045  0.00  0.00    -0.204 F 
ATOM     31  C   UNL     1      -0.714   3.782  24.232  0.00  0.00    +0.031 A 
ATOM     32  C   UNL     1      -0.988   3.006  24.165  0.00  0.00    +0.022 A 
ENDBRANCH  23  26
ENDBRANCH  10  23
TORSDOF 5
ENDMDL
MODEL 3
REMARK VINA RESULT:     -10.7      1.495      3.095
REMARK  Name = 
REMARK  5 active torsions:
REMARK  status: ('A' for Active; 'I' for Inactive)
REMARK    1  A    between atoms: C_2  and  N_4
REMARK    2  A    between atoms: N_10  and  S_23
REMARK    3  A    between atoms: C_11  and  C_13
REMARK    4  A    between atoms: N_15  and  C_16
REMARK    5  A    between atoms: S_23  and  C_26
REMARK                            x       y       z     vdW  Elec       q    Type
REMARK                         _______ _______ _______ _____ _____    ______ ____
ROOT
ATOM      4  N   UNL     1      -4.934   2.630  25.430  0.00  0.00    -0.190 NA
ATOM      5  C   UNL     1      -4.168   2.938  25.425  0.00  0.00    +0.323 C 
ATOM      6  O   UNL     1      -4.037   3.719  25.656  0.00  0.00    -0.251 OA
ATOM      7  N   UNL     1      -3.536   2.466  25.189  0.00  0.00    -0.259 N 
ATOM      8  C   UNL     1      -2.770   2.774  25.184  0.00  0.00    +0.114 C 
ATOM      9  C   UNL     1      -2.137   2.301  24.947  0.00  0.00    +0.118 C 
ATOM     10  N   UNL     1      -2.268   1.521  24.716  0.00  0.00    -0.145 NA
ATOM     11  C   UNL     1      -3.034   1.212  24.721  0.00  0.00    +0.177 C 
ATOM     12  C   UNL     1      -3.667   1.685  24.957  0.00  0.00    +0.122 C 
ENDROOT
BRANCH   4   2
ATOM      1  C   UNL     1      -5.617   3.885  25.407  0.00  0.00    +0.023 C 
ATOM      2  C   UNL     1      -5.568   3.103  25.666  0.00  0.00    +0.097 C 
ATOM      3  C   UNL     1      -6.151   2.793  26.160  0.00  0.00    +0.023 C 
ENDBRANCH   4   2
BRANCH  11  13
ATOM     13  C   UNL     1      -3.166   0.431  24.490  0.00  0.00    +0.260 C 
ATOM     14  O   UNL     1      -2.956   0.183  23.733  0.00  0.00    -0.272 OA
ATOM     15  N   UNL     1      -3.509  -0.102  25.018  0.00  0.00    -0.197 NA
BRANCH  15  16
ATOM     16  C   UNL     1      -3.642  -0.883  24.788  0.00  0.00    +0.173 C 
ATOM     17  C   UNL     1      -3.869  -1.053  24.013  0.00  0.00    +0.033 C 
ATOM     18  C   UNL     1      -4.002  -1.834  23.783  0.00  0.00    +0.026 C 
ATOM     19  C   UNL     1      -3.908  -2.446  24.330  0.00  0.00    +0.115 C 
ATOM     20  N   UNL     1      -3.681  -2.276  25.104  0.00  0.00    -0.204 NA
ATOM     21  C   UNL     1      -3.548  -1.494  25.334  0.00  0.00    +0.261 C 
ATOM     22  O   UNL     1      -3.321  -1.325  26.109  0.00  0.00    -0.271 OA
ENDBRANCH  15  16
ENDBRANCH  11  13
BRANCH  10  23
ATOM     23  S   UNL     1      -1.635   1.048  24.480  0.00  0.00    +0.064 S 
ATOM     24  O   UNL     1      -1.791   1.233  23.691  0.00  0.00    -0.153 OA
ATOM     25  O   UNL     1      -1.478   0.864  25.269  0.00  0.00    -0.153 OA
BRANCH  23  26
ATOM     26  C   UNL     1      -1.001   0.576  24.244  0.00  0.00    +0.122 A 
ATOM     27  C   UNL     1      -0.712   0.628  23.474  0.00  0.00    +0.022 A 
ATOM     28  C   UNL     1      -0.078   0.155  23.237  0.00  0.00    +0.031 A 
ATOM     29  C   UNL     1       0.267  -0.370  23.771  0.00  0.00    +0.140 A 
ATOM     30  F   UNL     1       0.900  -0.843  23.535  0.00  0.00    -0.204 F 
ATOM     31  C   UNL     1      -0.023  -0.423  24.543  0.00  0.00    +0.031 A 
ATOM     32  C   UNL     1      -0.657   0.049  24.779  0.00  0.00    +0.022 A 
ENDBRANCH  23  26
ENDBRANCH  10  23
TORSDOF 5
ENDMDL
MODEL 4
REMARK VINA RESULT:     -10.3      2.174      4.323
REMARK  Name = 
REMARK  5 active torsions:
REMARK  status: ('A' for Active; 'I' for Inactive)
REMARK    1  A    between atoms: C_2  and  N_4
REMARK    2  A    between atoms: N_10  and  S_23
REMARK    3  A    between atoms: C_11  and  C_13
REMARK    4  A    between atoms: N_15  and  C_16
REMARK    5  A    between atoms: S_23  and  C_26
REMARK                            x       y       z     vdW  Elec       q    Type
REMARK                         _______ _______ _______ _____ _____    ______ ____
ROOT
ATOM      4  N   UNL     1      -2.819  -1.963  24.619  0.00  0.00    -0.190 NA
ATOM      5  C   UNL     1      -3.519  -1.610  24.358  0.00  0.00    +0.323 C 
ATOM      6  O   UNL     1      -4.140  -2.080  24.085  0.00  0.00    -0.251 OA
ATOM      7  N   UNL     1      -3.597  -0.790  24.370  0.00  0.00    -0.259 N 
ATOM      8  C   UNL     1      -4.295  -0.438  24.109  0.00  0.00    +0.114 C 
ATOM      9  C   UNL     1      -4.373   0.384  24.121  0.00  0.00    +0.118 C 
ATOM     10  N   UNL     1      -3.752   0.852  24.394  0.00  0.00    -0.145 NA
ATOM     11  C   UNL     1      -3.053   0.501  24.656  0.00  0.00    +0.177 C 
ATOM     12  C   UNL     1      -2.975  -0.321  24.643  0.00  0.00    +0.122 C 
ENDROOT
BRANCH   4   2
ATOM      1  C   UNL     1      -2.140  -3.135  24.164  0.00  0.00    +0.023 C 
ATOM      2  C   UNL     1      -2.742  -2.784  24.607  0.00  0.00    +0.097 C 
ATOM      3  C   UNL     1      -3.266  -3.254  25.037  0.00  0.00    +0.023 C 
ENDBRANCH   4   2
BRANCH  11  13
ATOM     13  C   UNL     1      -2.431   0.969  24.929  0.00  0.00    +0.260 C 
ATOM     14  O   UNL     1      -2.551   1.490  25.557  0.00  0.00    -0.272 OA
ATOM     15  N   UNL     1      -1.688   0.917  24.573  0.00  0.00    -0.197 NA
BRANCH  15  16
ATOM     16  C   UNL     1      -1.066   1.385  24.846  0.00  0.00    +0.173 C 
ATOM     17  C   UNL     1      -1.019   1.586  25.644  0.00  0.00    +0.033 C 
ATOM     18  C   UNL     1      -0.397   2.054  25.917  0.00  0.00    +0.026 C 
ATOM     19  C   UNL     1       0.179   2.321  25.389  0.00  0.00    +0.115 C 
ATOM     20  N   UNL     1       0.133   2.120  24.591  0.00  0.00    -0.204 NA
ATOM     21  C   UNL     1      -0.490   1.651  24.318  0.00  0.00    +0.261 C 
ATOM     22  O   UNL     1      -0.537   1.450  23.520  0.00  0.00    -0.271 OA
ENDBRANCH  15  16
ENDBRANCH  11  13
BRANCH  10  23
ATOM     23  S   UNL     1      -3.830   1.674  24.407  0.00  0.00    +0.064 S 
ATOM     24  O   UNL     1      -3.571   1.710  23.623  0.00  0.00    -0.153 OA
ATOM     25  O   UNL     1      -4.088   1.637  25.189  0.00  0.00    -0.153 OA
BRANCH  23  26
ATOM     26  C   UNL     1      -3.907   2.495  24.419  0.00  0.00    +0.122 A 
ATOM     27  C   UNL     1      -4.182   2.874  25.098  0.00  0.00    +0.022 A 
ATOM     28  C   UNL     1      -4.260   3.695  25.110  0.00  0.00    +0.031 A 
ATOM     29  C   UNL     1      -4.063   4.138  24.443  0.00  0.00    +0.140 A 
ATOM     30  F   UNL     1      -4.141   4.959  24.456  0.00  0.00    -0.204 F 
ATOM     31  C   UNL     1      -3.788   3.759  23.763  0.00  0.00    +0.031 A 
ATOM     32  C   UNL     1      -3.710   2.938  23.751  0.00  0.00    +0.022 A 
ENDBRANCH  23  26
ENDBRANCH  10  23
TORSDOF 5
ENDMDL
MODEL 5
REMARK VINA RESULT:     -10.3      1.592      3.283
REMARK  Name = 
REMARK  5 active torsions:
REMARK  status: ('A' for Active; 'I' for Inactive)
REMARK    1  A    between atoms: C_2  and  N_4
REMARK    2  A    between atoms: N_10  and  S_23
REMARK    3  A    between atoms: C_11  and  C_13
REMARK    4  A    between atoms: N_15  and  C_16
REMARK    5  A    between atoms: S_23  and  C_26
REMARK                            x       y       z     vdW  Elec       q    Type
REMARK                         _______ _______ _______ _____ _____    ______ ____
ROOT
ATOM      4  N   UNL     1      -1.580   3.980  24.893  0.00  0.00    -0.190 NA
ATOM      5  C   UNL     1      -1.123   3.298  24.984  0.00  0.00    +0.323 C 
ATOM      6  O   UNL     1      -0.307   3.359  25.086  0.00  0.00    -0.251 OA
ATOM      7  N   UNL     1      -1.483   2.556  24.973  0.00  0.00    -0.259 N 
ATOM      8  C   UNL     1      -1.027   1.875  25.064  0.00  0.00    +0.114 C 
ATOM      9  C   UNL     1      -1.388   1.133  25.053  0.00  0.00    +0.118 C 
ATOM     10  N   UNL     1      -2.203   1.072  24.951  0.00  0.00    -0.145 NA
ATOM     11  C   UNL     1      -2.660   1.753  24.860  0.00  0.00    +0.177 C 
ATOM     12  C   UNL     1      -2.300   2.495  24.871  0.00  0.00    +0.122 C 
ENDROOT
BRANCH   4   2
ATOM      1  C   UNL     1      -0.490   4.831  24.533  0.00  0.00    +0.023 C 
ATOM      2  C   UNL     1      -1.219   4.722  24.904  0.00  0.00    +0.097 C 
ATOM      3  C   UNL     1      -1.588   5.353  25.286  0.00  0.00    +0.023 C 
ENDBRANCH   4   2
BRANCH  11  13
ATOM     13  C   UNL     1      -3.477   1.693  24.758  0.00  0.00    +0.260 C 
ATOM     14  O   UNL     1      -3.784   1.244  24.139  0.00  0.00    -0.272 OA
ATOM     15  N   UNL     1      -3.987   2.083  25.276  0.00  0.00    -0.197 NA
BRANCH  15  16
ATOM     16  C   UNL     1      -4.803   2.024  25.175  0.00  0.00    +0.173 C 
ATOM     17  C   UNL     1      -5.112   1.736  24.467  0.00  0.00    +0.033 C 
ATOM     18  C   UNL     1      -5.928   1.677  24.366  0.00  0.00    +0.026 C 
ATOM     19  C   UNL     1      -6.437   1.906  24.975  0.00  0.00    +0.115 C 
ATOM     20  N   UNL     1      -6.128   2.194  25.684  0.00  0.00    -0.204 NA
ATOM     21  C   UNL     1      -5.311   2.253  25.784  0.00  0.00    +0.261 C 
ATOM     22  O   UNL     1      -5.002   2.541  26.493  0.00  0.00    -0.271 OA
ENDBRANCH  15  16
ENDBRANCH  11  13
BRANCH  10  23
ATOM     23  S   UNL     1      -2.564   0.330  24.940  0.00  0.00    +0.064 S 
ATOM     24  O   UNL     1      -2.512   0.317  24.116  0.00  0.00    -0.153 OA
ATOM     25  O   UNL     1      -2.615   0.343  25.763  0.00  0.00    -0.153 OA
BRANCH  23  26
ATOM     26  C   UNL     1      -2.924  -0.412  24.929  0.00  0.00    +0.122 A 
ATOM     27  C   UNL     1      -3.146  -0.774  25.636  0.00  0.00    +0.022 A 
ATOM     28  C   UNL     1      -3.507  -1.516  25.625  0.00  0.00    +0.031 A 
ATOM     29  C   UNL     1      -3.645  -1.897  24.907  0.00  0.00    +0.140 A 
ATOM     30  F   UNL     1      -4.005  -2.639  24.896  0.00  0.00    -0.204 F 
ATOM     31  C   UNL     1      -3.422  -1.535  24.199  0.00  0.00    +0.031 A 
ATOM     32  C   UNL     1      -3.062  -0.793  24.210  0.00  0.00    +0.022 A 
ENDBRANCH  23  26
ENDBRANCH  10  23
TORSDOF 5
ENDMDL
