MODEL 1
REMARK VINA RESULT:     -14.5      0.000      0.000
REMARK  Name = 
REMARK  5 active torsions:
REMARK  status: ('A' for Active; 'I' for Inactive)
REMARK    1  A    between atoms: O_2  and  C_3
REMARK    2  A    between atoms: C_6  and  S_9
REMARK    3  A    between atoms: S_9  and  N_12
REMARK    4  A    between atoms: N_12  and  C_13
REMARK    5  A    between atoms: N_25  and  C_26
REMARK                            x       y       z     vdW  Elec       q    Type
REMARK                         _______ _______ _______ _____ _____    ______ ____
ROOT
ATOM     13  C   UNL     1      -3.556   1.450  24.857  0.00  0.00    +0.147 A 
ATOM     14  C   UNL     1      -4.354   1.240  24.838  0.00  0.00    +0.024 A 
ATOM     15  C   UNL     1      -4.933   1.801  25.012  0.00  0.00    +0.014 A 
ATOM     16  C   UNL     1      -4.714   2.573  25.205  0.00  0.00    +0.041 A 
ATOM     17  C   UNL     1      -5.082   3.383  25.434  0.00  0.00    +0.058 C 
ATOM     18  C   UNL     1      -5.701   3.694  25.544  0.00  0.00    +0.011 C 
ATOM     19  C   UNL     1      -4.913   3.898  25.562  0.00  0.00    +0.043 C 
ATOM     20  C   UNL     1      -4.028   4.332  25.636  0.00  0.00    +0.097 C 
ATOM     21  N   UNL     1      -3.538   3.683  25.443  0.00  0.00    -0.262 N 
ATOM     22  C   UNL     1      -4.234   3.816  25.510  0.00  0.00    +0.101 C 
ATOM     23  C   UNL     1      -2.845   3.258  25.300  0.00  0.00    +0.327 C 
ATOM     24  O   UNL     1      -2.887   2.460  25.092  0.00  0.00    -0.250 OA
ATOM     25  N   UNL     1      -2.112   3.630  25.365  0.00  0.00    -0.162 NA
ATOM     33  C   UNL     1      -4.519   3.056  25.323  0.00  0.00    +0.110 C 
ATOM     34  N   UNL     1      -3.916   2.783  25.224  0.00  0.00    -0.298 N 
ATOM     35  C   UNL     1      -3.337   2.221  25.050  0.00  0.00    +0.277 A 
ATOM     36  O   UNL     1      -2.515   2.183  25.003  0.00  0.00    -0.266 OA
ENDROOT
BRANCH  25  26
ATOM     26  C   UNL     1      -1.419   3.204  25.222  0.00  0.00    +0.075 A 
ATOM     27  C   UNL     1      -1.033   2.823  25.844  0.00  0.00    +0.019 A 
ATOM     28  C   UNL     1      -0.341   2.398  25.700  0.00  0.00    +0.031 A 
ATOM     29  C   UNL     1      -0.035   2.353  24.934  0.00  0.00    +0.140 A 
ATOM     30  F   UNL     1       0.657   1.928  24.792  0.00  0.00    -0.204 F 
ATOM     31  C   UNL     1      -0.421   2.734  24.314  0.00  0.00    +0.031 A 
ATOM     32  C   UNL     1      -1.113   3.160  24.456  0.00  0.00    +0.019 A 
ENDBRANCH  25  26
BRANCH  13  12
ATOM     12  N   UNL     1      -2.978   0.888  24.683  0.00  0.00    -0.092 NA
BRANCH  12   9
ATOM      9  S   UNL     1      -3.184   0.092  24.612  0.00  0.00    +0.093 S 
ATOM     10  O   UNL     1      -3.063  -0.012  25.421  0.00  0.00    -0.148 OA
ATOM     11  O   UNL     1      -3.305   0.197  23.802  0.00  0.00    -0.148 OA
BRANCH   9   6
ATOM      3  C   UNL     1      -3.801  -2.295  24.399  0.00  0.00    +0.139 A 
ATOM      4  C   UNL     1      -3.364  -2.039  25.050  0.00  0.00    +0.038 A 
ATOM      5  C   UNL     1      -3.158  -1.243  25.120  0.00  0.00    +0.023 A 
ATOM      6  C   UNL     1      -3.390  -0.704  24.540  0.00  0.00    +0.127 A 
ATOM      7  C   UNL     1      -3.827  -0.960  23.889  0.00  0.00    +0.023 A 
ATOM      8  C   UNL     1      -4.032  -1.756  23.819  0.00  0.00    +0.038 A 
BRANCH   3   2
ATOM      1  C   UNL     1      -3.428  -3.652  24.151  0.00  0.00    +0.252 C 
ATOM      2  O   UNL     1      -4.006  -3.091  24.328  0.00  0.00    -0.471 OA
ENDBRANCH   3   2
ENDBRANCH   9   6
ENDBRANCH  12   9
ENDBRANCH  13  12
TORSDOF 5
ENDMDL
MODEL 2
REMARK VINA RESULT:     -13.7      1.456      4.331
REMARK  Name = 
REMARK  5 active torsions:
REMARK  status: ('A' for Active; 'I' for Inactive)
REMARK    1  A    between atoms: O_2  and  C_3
REMARK    2  A    between atoms: C_6  and  S_9
REMARK    3  A    between atoms: S_9  and  N_12
REMARK    4  A    between atoms: N_12  and  C_13
REMARK    5  A    between atoms: N_25  and  C_26
REMARK                            x       y       z     vdW  Elec       q    Type
REMARK                         _______ _______ _______ _____ _____    ______ ____
ROOT
ATOM     13  C   UNL     1      -3.327   0.273  24.431  0.00  0.00    +0.147 A 
ATOM     14  C   UNL     1      -4.100  -0.016  24.440  0.00  0.00    +0.024 A 
ATOM     15  C   UNL     1      -4.236  -0.829  24.472  0.00  0.00    +0.014 A 
ATOM     16  C   UNL     1      -3.599  -1.353  24.495  0.00  0.00    +0.041 A 
ATOM     17  C   UNL     1      -3.416  -2.252  24.531  0.00  0.00    +0.058 C 
ATOM     18  C   UNL     1      -3.733  -2.878  24.555  0.00  0.00    +0.011 C 
ATOM     19  C   UNL     1      -2.971  -2.589  24.546  0.00  0.00    +0.043 C 
ATOM     20  C   UNL     1      -1.995  -2.437  24.542  0.00  0.00    +0.097 C 
ATOM     21  N   UNL     1      -1.983  -1.603  24.509  0.00  0.00    -0.262 N 
ATOM     22  C   UNL     1      -2.470  -2.122  24.528  0.00  0.00    +0.101 C 
ATOM     23  C   UNL     1      -1.674  -0.838  24.479  0.00  0.00    +0.327 C 
ATOM     24  O   UNL     1      -2.183  -0.188  24.452  0.00  0.00    -0.250 OA
ATOM     25  N   UNL     1      -0.857  -0.723  24.477  0.00  0.00    -0.162 NA
ATOM     33  C   UNL     1      -3.153  -1.647  24.508  0.00  0.00    +0.110 C 
ATOM     34  N   UNL     1      -2.826  -1.063  24.485  0.00  0.00    -0.298 N 
ATOM     35  C   UNL     1      -2.690  -0.250  24.453  0.00  0.00    +0.277 A 
ATOM     36  O   UNL     1      -2.045   0.263  24.434  0.00  0.00    -0.266 OA
ENDROOT
BRANCH  25  26
ATOM     26  C   UNL     1      -0.549   0.042  24.447  0.00  0.00    +0.075 A 
ATOM     27  C   UNL     1      -0.426   0.465  25.145  0.00  0.00    +0.019 A 
ATOM     28  C   UNL     1      -0.117   1.229  25.115  0.00  0.00    +0.031 A 
ATOM     29  C   UNL     1       0.069   1.571  24.387  0.00  0.00    +0.140 A 
ATOM     30  F   UNL     1       0.378   2.335  24.358  0.00  0.00    -0.204 F 
ATOM     31  C   UNL     1      -0.054   1.148  23.690  0.00  0.00    +0.031 A 
ATOM     32  C   UNL     1      -0.362   0.384  23.719  0.00  0.00    +0.019 A 
ENDBRANCH  25  26
BRANCH  13  12
ATOM     12  N   UNL     1      -3.193   1.086  24.399  0.00  0.00    -0.092 NA
BRANCH  12   9
ATOM      9  S   UNL     1      -3.773   1.612  24.659  0.00  0.00    +0.093 S 
ATOM     10  O   UNL     1      -3.490   1.542  25.431  0.00  0.00    -0.148 OA
ATOM     11  O   UNL     1      -4.056   1.682  23.887  0.00  0.00    -0.148 OA
BRANCH   9   6
ATOM      3  C   UNL     1      -5.512   3.189  25.443  0.00  0.00    +0.139 A 
ATOM      4  C   UNL     1      -4.715   3.357  25.570  0.00  0.00    +0.038 A 
ATOM      5  C   UNL     1      -4.135   2.832  25.309  0.00  0.00    +0.023 A 
ATOM      6  C   UNL     1      -4.353   2.137  24.920  0.00  0.00    +0.127 A 
ATOM      7  C   UNL     1      -5.151   1.969  24.793  0.00  0.00    +0.023 A 
ATOM      8  C   UNL     1      -5.730   2.494  25.054  0.00  0.00    +0.038 A 
BRANCH   3   2
ATOM      1  C   UNL     1      -5.970   4.527  25.639  0.00  0.00    +0.252 C 
ATOM      2  O   UNL     1      -6.092   3.714  25.704  0.00  0.00    -0.471 OA
ENDBRANCH   3   2
ENDBRANCH   9   6
ENDBRANCH  12   9
ENDBRANCH  13  12
TORSDOF 5
ENDMDL
MODEL 3
REMARK VINA RESULT:     -13.6      1.380      3.071
REMARK  Name = 
REMARK  5 active torsions:
REMARK  status: ('A' for Active; 'I' for Inactive)
REMARK    1  A    between atoms: O_2  and  C_3
REMARK    2  A    between atoms: C_6  and  S_9
REMARK    3  A    between atoms: S_9  and  N_12
REMARK    4  A    between atoms: N_12  and  C_13
REMARK    5  A    between atoms: N_25  and  C_26
REMARK                            x       y       z     vdW  Elec       q    Type
REMARK                         _______ _______ _______ _____ _____    ______ ____
ROOT
ATOM     13  C   UNL     1      -2.447   1.232  24.751  0.00  0.00    +0.147 A 
ATOM     14  C   UNL     1      -1.836   0.698  24.602  0.00  0.00    +0.024 A 
ATOM     15  C   UNL     1      -1.059   0.967  24.535  0.00  0.00    +0.014 A 
ATOM     16  C   UNL     1      -0.893   1.770  24.618  0.00  0.00    +0.041 A 
ATOM     17  C   UNL     1      -0.186   2.358  24.602  0.00  0.00    +0.058 C 
ATOM     18  C   UNL     1       0.509   2.380  24.514  0.00  0.00    +0.011 C 
ATOM     19  C   UNL     1      -0.096   2.905  24.661  0.00  0.00    +0.043 C 
ATOM     20  C   UNL     1      -0.679   3.683  24.839  0.00  0.00    +0.097 C 
ATOM     21  N   UNL     1      -1.418   3.296  24.885  0.00  0.00    -0.262 N 
ATOM     22  C   UNL     1      -0.737   3.120  24.773  0.00  0.00    +0.101 C 
ATOM     23  C   UNL     1      -2.233   3.200  24.979  0.00  0.00    +0.327 C 
ATOM     24  O   UNL     1      -2.569   2.448  24.926  0.00  0.00    -0.250 OA
ATOM     25  N   UNL     1      -2.710   3.856  25.127  0.00  0.00    -0.162 NA
ATOM     33  C   UNL     1      -0.840   2.299  24.680  0.00  0.00    +0.110 C 
ATOM     34  N   UNL     1      -1.503   2.305  24.767  0.00  0.00    -0.298 N 
ATOM     35  C   UNL     1      -2.280   2.036  24.834  0.00  0.00    +0.277 A 
ATOM     36  O   UNL     1      -3.029   2.353  24.973  0.00  0.00    -0.266 OA
ENDROOT
BRANCH  25  26
ATOM     26  C   UNL     1      -3.525   3.761  25.221  0.00  0.00    +0.075 A 
ATOM     27  C   UNL     1      -4.022   3.784  24.562  0.00  0.00    +0.019 A 
ATOM     28  C   UNL     1      -4.836   3.689  24.657  0.00  0.00    +0.031 A 
ATOM     29  C   UNL     1      -5.153   3.570  25.410  0.00  0.00    +0.140 A 
ATOM     30  F   UNL     1      -5.966   3.474  25.504  0.00  0.00    -0.204 F 
ATOM     31  C   UNL     1      -4.655   3.546  26.067  0.00  0.00    +0.031 A 
ATOM     32  C   UNL     1      -3.842   3.641  25.974  0.00  0.00    +0.019 A 
ENDBRANCH  25  26
BRANCH  13  12
ATOM     12  N   UNL     1      -3.223   0.962  24.818  0.00  0.00    -0.092 NA
BRANCH  12   9
ATOM      9  S   UNL     1      -3.392   0.161  24.717  0.00  0.00    +0.093 S 
ATOM     10  O   UNL     1      -3.287   0.037  25.525  0.00  0.00    -0.148 OA
ATOM     11  O   UNL     1      -3.496   0.286  23.908  0.00  0.00    -0.148 OA
BRANCH   9   6
ATOM      3  C   UNL     1      -3.899  -2.242  24.413  0.00  0.00    +0.139 A 
ATOM      4  C   UNL     1      -4.128  -1.697  23.839  0.00  0.00    +0.038 A 
ATOM      5  C   UNL     1      -3.959  -0.896  23.940  0.00  0.00    +0.023 A 
ATOM      6  C   UNL     1      -3.561  -0.640  24.616  0.00  0.00    +0.127 A 
ATOM      7  C   UNL     1      -3.331  -1.186  25.191  0.00  0.00    +0.023 A 
ATOM      8  C   UNL     1      -3.500  -1.987  25.089  0.00  0.00    +0.038 A 
BRANCH   3   2
ATOM      1  C   UNL     1      -3.453  -3.593  24.276  0.00  0.00    +0.252 C 
ATOM      2  O   UNL     1      -4.068  -3.043  24.312  0.00  0.00    -0.471 OA
ENDBRANCH   3   2
ENDBRANCH   9   6
ENDBRANCH  12   9
ENDBRANCH  13  12
TORSDOF 5
ENDMDL
MODEL 4
REMARK VINA RESULT:     -13.5      2.129      4.008
REMARK  Name = 
REMARK  5 active torsions:
REMARK  status: ('A' for Active; 'I' for Inactive)
REMARK    1  A    between atoms: O_2  and  C_3
REMARK    2  A    between atoms: C_6  and  S_9
REMARK    3  A    between atoms: S_9  and  N_12
REMARK    4  A    between atoms: N_12  and  C_13
REMARK    5  A    between atoms: N_25  and  C_26
REMARK                            x       y       z     vdW  Elec       q    Type
REMARK                         _______ _______ _______ _____ _____    ______ ____
ROOT
ATOM     13  C   UNL     1      -2.063   1.164  24.390  0.00  0.00    +0.147 A 
ATOM     14  C   UNL     1      -1.739   1.911  24.258  0.00  0.00    +0.024 A 
ATOM     15  C   UNL     1      -2.226   2.577  24.249  0.00  0.00    +0.014 A 
ATOM     16  C   UNL     1      -3.038   2.496  24.373  0.00  0.00    +0.041 A 
ATOM     17  C   UNL     1      -3.806   2.998  24.424  0.00  0.00    +0.058 C 
ATOM     18  C   UNL     1      -4.035   3.659  24.379  0.00  0.00    +0.011 C 
ATOM     19  C   UNL     1      -4.351   2.920  24.510  0.00  0.00    +0.043 C 
ATOM     20  C   UNL     1      -4.914   2.126  24.681  0.00  0.00    +0.097 C 
ATOM     21  N   UNL     1      -4.326   1.533  24.667  0.00  0.00    -0.262 N 
ATOM     22  C   UNL     1      -4.363   2.240  24.590  0.00  0.00    +0.101 C 
ATOM     23  C   UNL     1      -3.993   0.779  24.707  0.00  0.00    +0.327 C 
ATOM     24  O   UNL     1      -3.179   0.682  24.603  0.00  0.00    -0.250 OA
ATOM     25  N   UNL     1      -4.472   0.123  24.851  0.00  0.00    -0.162 NA
ATOM     33  C   UNL     1      -3.554   2.388  24.459  0.00  0.00    +0.110 C 
ATOM     34  N   UNL     1      -3.362   1.748  24.506  0.00  0.00    -0.298 N 
ATOM     35  C   UNL     1      -2.875   1.083  24.514  0.00  0.00    +0.277 A 
ATOM     36  O   UNL     1      -2.952   0.268  24.619  0.00  0.00    -0.266 OA
ENDROOT
BRANCH  25  26
ATOM     26  C   UNL     1      -4.138  -0.631  24.891  0.00  0.00    +0.075 A 
ATOM     27  C   UNL     1      -3.828  -0.908  25.604  0.00  0.00    +0.019 A 
ATOM     28  C   UNL     1      -3.495  -1.661  25.644  0.00  0.00    +0.031 A 
ATOM     29  C   UNL     1      -3.471  -2.138  24.970  0.00  0.00    +0.140 A 
ATOM     30  F   UNL     1      -3.137  -2.891  25.011  0.00  0.00    -0.204 F 
ATOM     31  C   UNL     1      -3.780  -1.861  24.258  0.00  0.00    +0.031 A 
ATOM     32  C   UNL     1      -4.114  -1.108  24.217  0.00  0.00    +0.019 A 
ENDBRANCH  25  26
BRANCH  13  12
ATOM     12  N   UNL     1      -1.576   0.499  24.398  0.00  0.00    -0.092 NA
BRANCH  12   9
ATOM      9  S   UNL     1      -0.803   0.551  24.115  0.00  0.00    +0.093 S 
ATOM     10  O   UNL     1      -1.079   0.458  23.343  0.00  0.00    -0.148 OA
ATOM     11  O   UNL     1      -0.526   0.644  24.886  0.00  0.00    -0.148 OA
BRANCH   9   6
ATOM      3  C   UNL     1       1.516   0.704  23.263  0.00  0.00    +0.139 A 
ATOM      4  C   UNL     1       1.028   0.084  23.022  0.00  0.00    +0.038 A 
ATOM      5  C   UNL     1       0.255   0.033  23.306  0.00  0.00    +0.023 A 
ATOM      6  C   UNL     1      -0.029   0.602  23.831  0.00  0.00    +0.127 A 
ATOM      7  C   UNL     1       0.459   1.222  24.072  0.00  0.00    +0.023 A 
ATOM      8  C   UNL     1       1.231   1.273  23.788  0.00  0.00    +0.038 A 
BRANCH   3   2
ATOM      1  C   UNL     1       2.626   0.113  22.585  0.00  0.00    +0.252 C 
ATOM      2  O   UNL     1       2.289   0.755  22.979  0.00  0.00    -0.471 OA
ENDBRANCH   3   2
ENDBRANCH   9   6
ENDBRANCH  12   9
ENDBRANCH  13  12
TORSDOF 5
ENDMDL
MODEL 5
REMARK VINA RESULT:     -13.4      1.767      2.083
REMARK  Name = 
REMARK  5 active torsions:
REMARK  status: ('A' for Active; 'I' for Inactive)
REMARK    1  A    between atoms: O_2  and  C_3
REMARK    2  A    between atoms: C_6  and  S_9
REMARK    3  A    between atoms: S_9  and  N_12
REMARK    4  A    between atoms: N_12  and  C_13
REMARK    5  A    between atoms: N_25  and  C_26
REMARK                            x       y       z     vdW  Elec       q    Type
REMARK                         _______ _______ _______ _____ _____    ______ ____
ROOT
ATOM     13  C   UNL     1      -3.180   1.440  24.820  0.00  0.00    +0.147 A 
ATOM     14  C   UNL     1      -3.583   0.726  24.727  0.00  0.00    +0.024 A 
ATOM     15  C   UNL     1      -4.404   0.702  24.801  0.00  0.00    +0.014 A 
ATOM     16  C   UNL     1      -4.823   1.393  24.966  0.00  0.00    +0.041 A 
ATOM     17  C   UNL     1      -5.681   1.693  25.102  0.00  0.00    +0.058 C 
ATOM     18  C   UNL     1      -6.345   1.468  25.124  0.00  0.00    +0.011 C 
ATOM     19  C   UNL     1      -5.945   2.171  25.214  0.00  0.00    +0.043 C 
ATOM     20  C   UNL     1      -5.646   3.102  25.357  0.00  0.00    +0.097 C 
ATOM     21  N   UNL     1      -4.823   3.002  25.261  0.00  0.00    -0.262 N 
ATOM     22  C   UNL     1      -5.409   2.597  25.242  0.00  0.00    +0.101 C 
ATOM     23  C   UNL     1      -4.022   3.200  25.222  0.00  0.00    +0.327 C 
ATOM     24  O   UNL     1      -3.460   2.617  25.062  0.00  0.00    -0.250 OA
ATOM     25  N   UNL     1      -3.785   3.981  25.342  0.00  0.00    -0.162 NA
ATOM     33  C   UNL     1      -5.045   1.868  25.074  0.00  0.00    +0.110 C 
ATOM     34  N   UNL     1      -4.420   2.108  25.059  0.00  0.00    -0.298 N 
ATOM     35  C   UNL     1      -3.598   2.131  24.986  0.00  0.00    +0.277 A 
ATOM     36  O   UNL     1      -2.995   2.691  25.032  0.00  0.00    -0.266 OA
ENDROOT
BRANCH  25  26
ATOM     26  C   UNL     1      -2.985   4.179  25.303  0.00  0.00    +0.075 A 
ATOM     27  C   UNL     1      -2.521   4.159  25.985  0.00  0.00    +0.019 A 
ATOM     28  C   UNL     1      -1.721   4.357  25.945  0.00  0.00    +0.031 A 
ATOM     29  C   UNL     1      -1.385   4.576  25.224  0.00  0.00    +0.140 A 
ATOM     30  F   UNL     1      -0.585   4.774  25.185  0.00  0.00    -0.204 F 
ATOM     31  C   UNL     1      -1.849   4.596  24.543  0.00  0.00    +0.031 A 
ATOM     32  C   UNL     1      -2.649   4.398  24.581  0.00  0.00    +0.019 A 
ENDBRANCH  25  26
BRANCH  13  12
ATOM     12  N   UNL     1      -2.359   1.462  24.747  0.00  0.00    -0.092 NA
BRANCH  12   9
ATOM      9  S   UNL     1      -1.918   0.771  24.836  0.00  0.00    +0.093 S 
ATOM     10  O   UNL     1      -1.858   0.914  25.646  0.00  0.00    -0.148 OA
ATOM     11  O   UNL     1      -1.978   0.628  24.026  0.00  0.00    -0.148 OA
BRANCH   9   6
ATOM      3  C   UNL     1      -0.593  -1.303  25.106  0.00  0.00    +0.139 A 
ATOM      4  C   UNL     1      -1.034  -1.009  25.739  0.00  0.00    +0.038 A 
ATOM      5  C   UNL     1      -1.475  -0.318  25.649  0.00  0.00    +0.023 A 
ATOM      6  C   UNL     1      -1.476   0.079  24.926  0.00  0.00    +0.127 A 
ATOM      7  C   UNL     1      -1.035  -0.214  24.293  0.00  0.00    +0.023 A 
ATOM      8  C   UNL     1      -0.594  -0.905  24.383  0.00  0.00    +0.038 A 
BRANCH   3   2
ATOM      1  C   UNL     1      -0.516  -2.729  25.112  0.00  0.00    +0.252 C 
ATOM      2  O   UNL     1      -0.152  -1.994  25.196  0.00  0.00    -0.471 OA
ENDBRANCH   3   2
ENDBRANCH   9   6
ENDBRANCH  12   9
ENDBRANCH  13  12
TORSDOF 5
ENDMDL
MODEL 6
REMARK VINA RESULT:     -13.2      1.994      3.262
REMARK  Name = 
REMARK  5 active torsions:
REMARK  status: ('A' for Active; 'I' for Inactive)
REMARK    1  A    between atoms: O_2  and  C_3
REMARK    2  A    between atoms: C_6  and  S_9
REMARK    3  A    between atoms: S_9  and  N_12
REMARK    4  A    between atoms: N_12  and  C_13
REMARK    5  A    between atoms: N_25  and  C_26
REMARK                            x       y       z     vdW  Elec       q    Type
REMARK                         _______ _______ _______ _____ _____    ______ ____
ROOT
ATOM     13  C   UNL     1      -1.947   2.166  24.970  0.00  0.00    +0.147 A 
ATOM     14  C   UNL     1      -1.122   2.183  24.956  0.00  0.00    +0.024 A 
ATOM     15  C   UNL     1      -0.724   2.905  24.963  0.00  0.00    +0.014 A 
ATOM     16  C   UNL     1      -1.150   3.611  24.984  0.00  0.00    +0.041 A 
ATOM     17  C   UNL     1      -1.024   4.521  24.998  0.00  0.00    +0.058 C 
ATOM     18  C   UNL     1      -0.517   5.007  24.999  0.00  0.00    +0.011 C 
ATOM     19  C   UNL     1      -1.331   4.986  25.012  0.00  0.00    +0.043 C 
ATOM     20  C   UNL     1      -2.303   5.167  25.033  0.00  0.00    +0.097 C 
ATOM     21  N   UNL     1      -2.591   4.383  25.023  0.00  0.00    -0.262 N 
ATOM     22  C   UNL     1      -1.959   4.712  25.018  0.00  0.00    +0.101 C 
ATOM     23  C   UNL     1      -3.137   3.764  25.021  0.00  0.00    +0.327 C 
ATOM     24  O   UNL     1      -2.873   2.982  25.002  0.00  0.00    -0.250 OA
ATOM     25  N   UNL     1      -3.945   3.927  25.039  0.00  0.00    -0.162 NA
ATOM     33  C   UNL     1      -1.473   4.037  24.997  0.00  0.00    +0.110 C 
ATOM     34  N   UNL     1      -1.975   3.594  24.998  0.00  0.00    -0.298 N 
ATOM     35  C   UNL     1      -2.374   2.872  24.991  0.00  0.00    +0.277 A 
ATOM     36  O   UNL     1      -3.153   2.601  25.000  0.00  0.00    -0.266 OA
ENDROOT
BRANCH  25  26
ATOM     26  C   UNL     1      -4.491   3.307  25.037  0.00  0.00    +0.075 A 
ATOM     27  C   UNL     1      -4.805   3.032  25.749  0.00  0.00    +0.019 A 
ATOM     28  C   UNL     1      -5.351   2.413  25.746  0.00  0.00    +0.031 A 
ATOM     29  C   UNL     1      -5.581   2.069  25.032  0.00  0.00    +0.140 A 
ATOM     30  F   UNL     1      -6.126   1.450  25.030  0.00  0.00    -0.204 F 
ATOM     31  C   UNL     1      -5.266   2.344  24.321  0.00  0.00    +0.031 A 
ATOM     32  C   UNL     1      -4.721   2.963  24.323  0.00  0.00    +0.019 A 
ENDBRANCH  25  26
BRANCH  13  12
ATOM     12  N   UNL     1      -2.344   1.444  24.964  0.00  0.00    -0.092 NA
BRANCH  12   9
ATOM      9  S   UNL     1      -1.918   0.738  24.987  0.00  0.00    +0.093 S 
ATOM     10  O   UNL     1      -1.912   0.768  25.811  0.00  0.00    -0.148 OA
ATOM     11  O   UNL     1      -1.925   0.708  24.162  0.00  0.00    -0.148 OA
BRANCH   9   6
ATOM      3  C   UNL     1      -0.639  -1.380  25.058  0.00  0.00    +0.139 A 
ATOM      4  C   UNL     1      -0.970  -1.074  25.749  0.00  0.00    +0.038 A 
ATOM      5  C   UNL     1      -1.396  -0.369  25.725  0.00  0.00    +0.023 A 
ATOM      6  C   UNL     1      -1.492   0.032  25.010  0.00  0.00    +0.127 A 
ATOM      7  C   UNL     1      -1.161  -0.274  24.319  0.00  0.00    +0.023 A 
ATOM      8  C   UNL     1      -0.735  -0.980  24.342  0.00  0.00    +0.038 A 
BRANCH   3   2
ATOM      1  C   UNL     1      -0.605  -2.807  24.998  0.00  0.00    +0.252 C 
ATOM      2  O   UNL     1      -0.213  -2.086  25.082  0.00  0.00    -0.471 OA
ENDBRANCH   3   2
ENDBRANCH   9   6
ENDBRANCH  12   9
ENDBRANCH  13  12
TORSDOF 5
ENDMDL
