MODEL 1
REMARK VINA RESULT:     -11.5      0.000      0.000
REMARK  Name = 
REMARK  3 active torsions:
REMARK  status: ('A' for Active; 'I' for Inactive)
REMARK    1  A    between atoms: C_7  and  C_9
REMARK    2  A    between atoms: N_12  and  C_13
REMARK    3  A    between atoms: C_13  and  C_14
REMARK                            x       y       z     vdW  Elec       q    Type
REMARK                         _______ _______ _______ _____ _____    ______ ____
ROOT
ATOM      9  C   UNL     1      -4.357   1.141  24.778  0.00  0.00    +0.094 C 
ATOM     10  C   UNL     1      -5.080   1.479  24.984  0.00  0.00    +0.028 C 
ATOM     11  C   UNL     1      -5.011   2.298  24.909  0.00  0.00    +0.073 C 
ATOM     12  N   UNL     1      -4.243   2.465  24.656  0.00  0.00    -0.268 NA
ATOM     19  C   UNL     1      -3.840   1.750  24.575  0.00  0.00    +0.082 C 
ENDROOT
BRANCH   9   7
ATOM      1 CL   UNL     1      -3.800  -3.071  24.013  0.00  0.00    -0.082 Cl
ATOM      2  C   UNL     1      -3.781  -2.338  24.390  0.00  0.00    +0.059 A 
ATOM      3  C   UNL     1      -4.103  -1.675  24.019  0.00  0.00    +0.034 A 
ATOM      4  C   UNL     1      -4.084  -0.941  24.395  0.00  0.00    +0.119 A 
ATOM      5  C   UNL     1      -3.743  -0.870  25.143  0.00  0.00    +0.164 A 
ATOM      6  O   UNL     1      -3.804  -0.082  25.377  0.00  0.00    -0.438 OA
ATOM      7  C   UNL     1      -4.183   0.334  24.774  0.00  0.00    +0.207 A 
ATOM      8  N   UNL     1      -4.355  -0.197  24.168  0.00  0.00    -0.212 NA
ATOM     20  C   UNL     1      -3.421  -1.533  25.515  0.00  0.00    +0.040 A 
ATOM     21  C   UNL     1      -3.441  -2.267  25.138  0.00  0.00    +0.015 A 
ENDBRANCH   9   7
BRANCH  12  13
ATOM     13  C   UNL     1      -3.934   3.216  24.510  0.00  0.00    +0.106 C 
BRANCH  13  14
ATOM     14  C   UNL     1      -3.424   3.566  25.057  0.00  0.00    +0.023 A 
ATOM     15  C   UNL     1      -3.642   3.892  25.783  0.00  0.00    +0.004 A 
ATOM     16  C   UNL     1      -2.960   4.179  26.148  0.00  0.00    +0.007 A 
ATOM     17  C   UNL     1      -2.321   4.031  25.647  0.00  0.00    +0.035 A 
ATOM     18  S   UNL     1      -2.609   3.652  24.973  0.00  0.00    -0.089 S 
ENDBRANCH  13  14
ENDBRANCH  12  13
TORSDOF 3
ENDMDL
MODEL 2
REMARK VINA RESULT:     -10.9      0.893      1.313
REMARK  Name = 
REMARK  3 active torsions:
REMARK  status: ('A' for Active; 'I' for Inactive)
REMARK    1  A    between atoms: C_7  and  C_9
REMARK    2  A    between atoms: N_12  and  C_13
REMARK    3  A    between atoms: C_13  and  C_14
REMARK                            x       y       z     vdW  Elec       q    Type
REMARK                         _______ _______ _______ _____ _____    ______ ____
ROOT
ATOM      9  C   UNL     1      -3.446   1.205  23.993  0.00  0.00    +0.094 C 
ATOM     10  C   UNL     1      -3.023   1.558  23.379  0.00  0.00    +0.028 C 
ATOM     11  C   UNL     1      -3.095   2.377  23.457  0.00  0.00    +0.073 C 
ATOM     12  N   UNL     1      -3.563   2.529  24.119  0.00  0.00    -0.268 NA
ATOM     19  C   UNL     1      -3.780   1.805  24.450  0.00  0.00    +0.082 C 
ENDROOT
BRANCH   9   7
ATOM      1 CL   UNL     1      -3.354  -2.894  25.342  0.00  0.00    -0.082 Cl
ATOM      2  C   UNL     1      -3.529  -2.225  24.894  0.00  0.00    +0.059 A 
ATOM      3  C   UNL     1      -3.222  -1.491  25.112  0.00  0.00    +0.034 A 
ATOM      4  C   UNL     1      -3.398  -0.821  24.664  0.00  0.00    +0.119 A 
ATOM      5  C   UNL     1      -3.880  -0.884  23.998  0.00  0.00    +0.164 A 
ATOM      6  O   UNL     1      -3.957  -0.134  23.666  0.00  0.00    -0.438 OA
ATOM      7  C   UNL     1      -3.522   0.394  24.126  0.00  0.00    +0.207 A 
ATOM      8  N   UNL     1      -3.177  -0.030  24.742  0.00  0.00    -0.212 NA
ATOM     20  C   UNL     1      -4.188  -1.619  23.780  0.00  0.00    +0.040 A 
ATOM     21  C   UNL     1      -4.012  -2.289  24.228  0.00  0.00    +0.015 A 
ENDBRANCH   9   7
BRANCH  12  13
ATOM     13  C   UNL     1      -3.777   3.274  24.401  0.00  0.00    +0.106 C 
BRANCH  13  14
ATOM     14  C   UNL     1      -3.328   3.637  24.992  0.00  0.00    +0.023 A 
ATOM     15  C   UNL     1      -2.580   3.971  24.897  0.00  0.00    +0.004 A 
ATOM     16  C   UNL     1      -2.339   4.270  25.627  0.00  0.00    +0.007 A 
ATOM     17  C   UNL     1      -2.940   4.119  26.173  0.00  0.00    +0.035 A 
ATOM     18  S   UNL     1      -3.550   3.728  25.780  0.00  0.00    -0.089 S 
ENDBRANCH  13  14
ENDBRANCH  12  13
TORSDOF 3
ENDMDL
MODEL 3
REMARK VINA RESULT:     -10.5      2.537      4.934
REMARK  Name = 
REMARK  3 active torsions:
REMARK  status: ('A' for Active; 'I' for Inactive)
REMARK    1  A    between atoms: C_7  and  C_9
REMARK    2  A    between atoms: N_12  and  C_13
REMARK    3  A    between atoms: C_13  and  C_14
REMARK                            x       y       z     vdW  Elec       q    Type
REMARK                         _______ _______ _______ _____ _____    ______ ____
ROOT
ATOM      9  C   UNL     1      -3.073   1.400  24.327  0.00  0.00    +0.094 C 
ATOM     10  C   UNL     1      -3.186   1.111  23.563  0.00  0.00    +0.028 C 
ATOM     11  C   UNL     1      -3.650   0.431  23.613  0.00  0.00    +0.073 C 
ATOM     12  N   UNL     1      -3.824   0.300  24.408  0.00  0.00    -0.268 NA
ATOM     19  C   UNL     1      -3.467   0.898  24.850  0.00  0.00    +0.082 C 
ENDROOT
BRANCH   9   7
ATOM      1 CL   UNL     1      -1.529   5.317  25.282  0.00  0.00    -0.082 Cl
ATOM      2  C   UNL     1      -1.566   4.503  25.154  0.00  0.00    +0.059 A 
ATOM      3  C   UNL     1      -2.277   4.153  24.926  0.00  0.00    +0.034 A 
ATOM      4  C   UNL     1      -2.314   3.339  24.798  0.00  0.00    +0.119 A 
ATOM      5  C   UNL     1      -1.640   2.875  24.900  0.00  0.00    +0.164 A 
ATOM      6  O   UNL     1      -1.842   2.092  24.736  0.00  0.00    -0.438 OA
ATOM      7  C   UNL     1      -2.641   2.072  24.533  0.00  0.00    +0.207 A 
ATOM      8  N   UNL     1      -2.932   2.843  24.572  0.00  0.00    -0.212 NA
ATOM     20  C   UNL     1      -0.928   3.225  25.129  0.00  0.00    +0.040 A 
ATOM     21  C   UNL     1      -0.892   4.039  25.256  0.00  0.00    +0.015 A 
ENDBRANCH   9   7
BRANCH  12  13
ATOM     13  C   UNL     1      -4.276  -0.321  24.710  0.00  0.00    +0.106 C 
BRANCH  13  14
ATOM     14  C   UNL     1      -3.974  -1.090  24.710  0.00  0.00    +0.023 A 
ATOM     15  C   UNL     1      -4.060  -1.645  24.106  0.00  0.00    +0.004 A 
ATOM     16  C   UNL     1      -3.673  -2.336  24.337  0.00  0.00    +0.007 A 
ATOM     17  C   UNL     1      -3.346  -2.207  25.084  0.00  0.00    +0.035 A 
ATOM     18  S   UNL     1      -3.533  -1.437  25.314  0.00  0.00    -0.089 S 
ENDBRANCH  13  14
ENDBRANCH  12  13
TORSDOF 3
ENDMDL
