MODEL 1
REMARK VINA RESULT:     -13.7      0.000      0.000
REMARK  Name = 
REMARK  3 active torsions:
REMARK  status: ('A' for Active; 'I' for Inactive)
REMARK    1  A    between atoms: C_7  and  C_9
REMARK    2  A    between atoms: N_12  and  C_13
REMARK    3  A    between atoms: C_13  and  C_14
REMARK                            x       y       z     vdW  Elec       q    Type
REMARK                         _______ _______ _______ _____ _____    ______ ____
ROOT
ATOM      9  C   UNL     1      -4.336   0.941  24.742  0.00  0.00    +0.094 C 
ATOM     10  C   UNL     1      -4.953   1.306  25.151  0.00  0.00    +0.028 C 
ATOM     11  C   UNL     1      -4.930   2.113  24.977  0.00  0.00    +0.073 C 
ATOM     12  N   UNL     1      -4.301   2.246  24.461  0.00  0.00    -0.266 NA
ATOM     23  C   UNL     1      -3.933   1.521  24.316  0.00  0.00    +0.082 C 
ENDROOT
BRANCH   9   7
ATOM      1  C   UNL     1      -3.722  -3.278  24.062  0.00  0.00    +0.031 C 
ATOM      2  C   UNL     1      -3.721  -2.538  24.428  0.00  0.00    -0.020 A 
ATOM      3  C   UNL     1      -4.035  -1.884  24.036  0.00  0.00    +0.018 A 
ATOM      4  C   UNL     1      -4.035  -1.144  24.401  0.00  0.00    +0.118 A 
ATOM      5  C   UNL     1      -3.718  -1.059  25.159  0.00  0.00    +0.164 A 
ATOM      6  O   UNL     1      -3.793  -0.267  25.378  0.00  0.00    -0.438 OA
ATOM      7  C   UNL     1      -4.155   0.136  24.757  0.00  0.00    +0.207 A 
ATOM      8  N   UNL     1      -4.304  -0.406  24.153  0.00  0.00    -0.212 NA
ATOM     24  C   UNL     1      -3.403  -1.714  25.550  0.00  0.00    +0.039 A 
ATOM     25  C   UNL     1      -3.405  -2.453  25.184  0.00  0.00    -0.001 A 
ENDBRANCH   9   7
BRANCH  12  13
ATOM     13  C   UNL     1      -4.076   2.974  24.146  0.00  0.00    +0.138 C 
BRANCH  13  14
ATOM     14  C   UNL     1      -3.374   3.332  24.390  0.00  0.00    +0.139 A 
ATOM     15  C   UNL     1      -3.310   3.993  24.878  0.00  0.00    +0.037 A 
ATOM     16  C   UNL     1      -2.509   4.160  24.978  0.00  0.00    +0.037 A 
ATOM     17  C   UNL     1      -2.077   3.601  24.551  0.00  0.00    +0.145 A 
ATOM     18  O   UNL     1      -2.611   3.089  24.188  0.00  0.00    -0.456 OA
ATOM     19  C   UNL     1      -1.252   3.631  24.550  0.00  0.00    +0.037 A 
ATOM     20  C   UNL     1      -0.860   4.219  24.974  0.00  0.00    +0.003 A 
ATOM     21  C   UNL     1      -1.292   4.778  25.400  0.00  0.00    +0.000 A 
ATOM     22  C   UNL     1      -2.116   4.749  25.403  0.00  0.00    +0.003 A 
ENDBRANCH  13  14
ENDBRANCH  12  13
TORSDOF 3
ENDMDL
MODEL 2
REMARK VINA RESULT:     -13.3      1.798      2.442
REMARK  Name = 
REMARK  3 active torsions:
REMARK  status: ('A' for Active; 'I' for Inactive)
REMARK    1  A    between atoms: C_7  and  C_9
REMARK    2  A    between atoms: N_12  and  C_13
REMARK    3  A    between atoms: C_13  and  C_14
REMARK                            x       y       z     vdW  Elec       q    Type
REMARK                         _______ _______ _______ _____ _____    ______ ____
ROOT
ATOM      9  C   UNL     1      -1.389   0.291  24.783  0.00  0.00    +0.094 C 
ATOM     10  C   UNL     1      -0.696   0.386  24.346  0.00  0.00    +0.028 C 
ATOM     11  C   UNL     1      -0.272   1.012  24.675  0.00  0.00    +0.073 C 
ATOM     12  N   UNL     1      -0.702   1.304  25.315  0.00  0.00    -0.266 NA
ATOM     23  C   UNL     1      -1.393   0.858  25.382  0.00  0.00    +0.082 C 
ENDROOT
BRANCH   9   7
ATOM      1  C   UNL     1      -3.895  -3.198  24.344  0.00  0.00    +0.031 C 
ATOM      2  C   UNL     1      -3.640  -2.413  24.328  0.00  0.00    -0.020 A 
ATOM      3  C   UNL     1      -2.880  -2.221  24.583  0.00  0.00    +0.018 A 
ATOM      4  C   UNL     1      -2.624  -1.437  24.568  0.00  0.00    +0.118 A 
ATOM      5  C   UNL     1      -3.131  -0.844  24.297  0.00  0.00    +0.164 A 
ATOM      6  O   UNL     1      -2.729  -0.125  24.345  0.00  0.00    -0.438 OA
ATOM      7  C   UNL     1      -1.976  -0.273  24.645  0.00  0.00    +0.207 A 
ATOM      8  N   UNL     1      -1.911  -1.084  24.783  0.00  0.00    -0.212 NA
ATOM     24  C   UNL     1      -3.892  -1.036  24.042  0.00  0.00    +0.039 A 
ATOM     25  C   UNL     1      -4.146  -1.820  24.058  0.00  0.00    -0.001 A 
ENDBRANCH   9   7
BRANCH  12  13
ATOM     13  C   UNL     1      -0.481   1.931  25.803  0.00  0.00    +0.138 C 
BRANCH  13  14
ATOM     14  C   UNL     1      -0.763   2.692  25.651  0.00  0.00    +0.139 A 
ATOM     15  C   UNL     1      -0.349   3.295  25.270  0.00  0.00    +0.037 A 
ATOM     16  C   UNL     1      -0.837   3.958  25.237  0.00  0.00    +0.037 A 
ATOM     17  C   UNL     1      -1.554   3.765  25.597  0.00  0.00    +0.145 A 
ATOM     18  O   UNL     1      -1.508   2.983  25.854  0.00  0.00    -0.456 OA
ATOM     19  C   UNL     1      -2.155   4.328  25.646  0.00  0.00    +0.037 A 
ATOM     20  C   UNL     1      -2.041   5.083  25.334  0.00  0.00    +0.003 A 
ATOM     21  C   UNL     1      -1.324   5.275  24.973  0.00  0.00    +0.000 A 
ATOM     22  C   UNL     1      -0.722   4.714  24.924  0.00  0.00    +0.003 A 
ENDBRANCH  13  14
ENDBRANCH  12  13
TORSDOF 3
ENDMDL
MODEL 3
REMARK VINA RESULT:     -13.2      0.776      5.306
REMARK  Name = 
REMARK  3 active torsions:
REMARK  status: ('A' for Active; 'I' for Inactive)
REMARK    1  A    between atoms: C_7  and  C_9
REMARK    2  A    between atoms: N_12  and  C_13
REMARK    3  A    between atoms: C_13  and  C_14
REMARK                            x       y       z     vdW  Elec       q    Type
REMARK                         _______ _______ _______ _____ _____    ______ ____
ROOT
ATOM      9  C   UNL     1      -3.620   2.317  24.773  0.00  0.00    +0.094 C 
ATOM     10  C   UNL     1      -4.255   2.355  24.247  0.00  0.00    +0.028 C 
ATOM     11  C   UNL     1      -4.742   1.705  24.390  0.00  0.00    +0.073 C 
ATOM     12  N   UNL     1      -4.410   1.265  25.003  0.00  0.00    -0.266 NA
ATOM     23  C   UNL     1      -3.716   1.644  25.240  0.00  0.00    +0.082 C 
ENDROOT
BRANCH   9   7
ATOM      1  C   UNL     1      -0.969   5.717  24.999  0.00  0.00    +0.031 C 
ATOM      2  C   UNL     1      -1.237   4.937  24.970  0.00  0.00    -0.020 A 
ATOM      3  C   UNL     1      -2.045   4.781  24.913  0.00  0.00    +0.018 A 
ATOM      4  C   UNL     1      -2.314   4.001  24.884  0.00  0.00    +0.118 A 
ATOM      5  C   UNL     1      -1.773   3.378  24.913  0.00  0.00    +0.164 A 
ATOM      6  O   UNL     1      -2.197   2.672  24.874  0.00  0.00    -0.438 OA
ATOM      7  C   UNL     1      -2.999   2.858  24.823  0.00  0.00    +0.207 A 
ATOM      8  N   UNL     1      -3.070   3.680  24.829  0.00  0.00    -0.212 NA
ATOM     24  C   UNL     1      -0.965   3.535  24.970  0.00  0.00    +0.039 A 
ATOM     25  C   UNL     1      -0.698   4.314  24.998  0.00  0.00    -0.001 A 
ENDBRANCH   9   7
BRANCH  12  13
ATOM     13  C   UNL     1      -4.716   0.570  25.324  0.00  0.00    +0.138 C 
BRANCH  13  14
ATOM     14  C   UNL     1      -4.402  -0.160  25.103  0.00  0.00    +0.139 A 
ATOM     15  C   UNL     1      -3.862  -0.608  25.537  0.00  0.00    +0.037 A 
ATOM     16  C   UNL     1      -3.699  -1.295  25.112  0.00  0.00    +0.037 A 
ATOM     17  C   UNL     1      -4.139  -1.272  24.414  0.00  0.00    +0.145 A 
ATOM     18  O   UNL     1      -4.573  -0.572  24.408  0.00  0.00    -0.456 OA
ATOM     19  C   UNL     1      -4.087  -1.894  23.874  0.00  0.00    +0.037 A 
ATOM     20  C   UNL     1      -3.595  -2.537  24.031  0.00  0.00    +0.003 A 
ATOM     21  C   UNL     1      -3.156  -2.559  24.729  0.00  0.00    +0.000 A 
ATOM     22  C   UNL     1      -3.207  -1.939  25.269  0.00  0.00    +0.003 A 
ENDBRANCH  13  14
ENDBRANCH  12  13
TORSDOF 3
ENDMDL
MODEL 4
REMARK VINA RESULT:     -12.7      1.939      5.853
REMARK  Name = 
REMARK  3 active torsions:
REMARK  status: ('A' for Active; 'I' for Inactive)
REMARK    1  A    between atoms: C_7  and  C_9
REMARK    2  A    between atoms: N_12  and  C_13
REMARK    3  A    between atoms: C_13  and  C_14
REMARK                            x       y       z     vdW  Elec       q    Type
REMARK                         _______ _______ _______ _____ _____    ______ ____
ROOT
ATOM      9  C   UNL     1      -0.859   1.308  24.904  0.00  0.00    +0.094 C 
ATOM     10  C   UNL     1      -0.388   0.995  24.302  0.00  0.00    +0.028 C 
ATOM     11  C   UNL     1      -0.340   0.179  24.416  0.00  0.00    +0.073 C 
ATOM     12  N   UNL     1      -0.779  -0.012  25.087  0.00  0.00    -0.266 NA
ATOM     23  C   UNL     1      -1.100   0.686  25.389  0.00  0.00    +0.082 C 
ENDROOT
BRANCH   9   7
ATOM      1  C   UNL     1      -1.182   5.612  24.990  0.00  0.00    +0.031 C 
ATOM      2  C   UNL     1      -1.351   4.814  25.115  0.00  0.00    -0.020 A 
ATOM      3  C   UNL     1      -0.845   4.234  24.819  0.00  0.00    +0.018 A 
ATOM      4  C   UNL     1      -1.014   3.436  24.944  0.00  0.00    +0.118 A 
ATOM      5  C   UNL     1      -1.690   3.219  25.365  0.00  0.00    +0.164 A 
ATOM      6  O   UNL     1      -1.713   2.395  25.401  0.00  0.00    -0.438 OA
ATOM      7  C   UNL     1      -1.053   2.104  25.002  0.00  0.00    +0.207 A 
ATOM      8  N   UNL     1      -0.621   2.747  24.720  0.00  0.00    -0.212 NA
ATOM     24  C   UNL     1      -2.196   3.800  25.661  0.00  0.00    +0.039 A 
ATOM     25  C   UNL     1      -2.026   4.597  25.536  0.00  0.00    -0.001 A 
ENDBRANCH   9   7
BRANCH  12  13
ATOM     13  C   UNL     1      -0.881  -0.768  25.402  0.00  0.00    +0.138 C 
BRANCH  13  14
ATOM     14  C   UNL     1      -1.536  -1.220  25.186  0.00  0.00    +0.139 A 
ATOM     15  C   UNL     1      -1.527  -1.887  24.701  0.00  0.00    +0.037 A 
ATOM     16  C   UNL     1      -2.301  -2.164  24.634  0.00  0.00    +0.037 A 
ATOM     17  C   UNL     1      -2.789  -1.668  25.077  0.00  0.00    +0.145 A 
ATOM     18  O   UNL     1      -2.317  -1.085  25.419  0.00  0.00    -0.456 OA
ATOM     19  C   UNL     1      -3.600  -1.812  25.112  0.00  0.00    +0.037 A 
ATOM     20  C   UNL     1      -3.924  -2.452  24.704  0.00  0.00    +0.003 A 
ATOM     21  C   UNL     1      -3.436  -2.948  24.261  0.00  0.00    +0.000 A 
ATOM     22  C   UNL     1      -2.624  -2.804  24.225  0.00  0.00    +0.003 A 
ENDBRANCH  13  14
ENDBRANCH  12  13
TORSDOF 3
ENDMDL
MODEL 5
REMARK VINA RESULT:     -11.1      1.809      2.417
REMARK  Name = 
REMARK  3 active torsions:
REMARK  status: ('A' for Active; 'I' for Inactive)
REMARK    1  A    between atoms: C_7  and  C_9
REMARK    2  A    between atoms: N_12  and  C_13
REMARK    3  A    between atoms: C_13  and  C_14
REMARK                            x       y       z     vdW  Elec       q    Type
REMARK                         _______ _______ _______ _____ _____    ______ ____
ROOT
ATOM      9  C   UNL     1      -1.152   0.422  24.551  0.00  0.00    +0.094 C 
ATOM     10  C   UNL     1      -0.375   0.566  24.788  0.00  0.00    +0.028 C 
ATOM     11  C   UNL     1      -0.232   1.375  24.714  0.00  0.00    +0.073 C 
ATOM     12  N   UNL     1      -0.920   1.732  24.432  0.00  0.00    -0.266 NA
ATOM     23  C   UNL     1      -1.489   1.142  24.331  0.00  0.00    +0.082 C 
ENDROOT
BRANCH   9   7
ATOM      1  C   UNL     1      -3.807  -2.982  24.476  0.00  0.00    +0.031 C 
ATOM      2  C   UNL     1      -3.115  -2.532  24.489  0.00  0.00    -0.020 A 
ATOM      3  C   UNL     1      -3.160  -1.708  24.500  0.00  0.00    +0.018 A 
ATOM      4  C   UNL     1      -2.469  -1.257  24.514  0.00  0.00    +0.118 A 
ATOM      5  C   UNL     1      -1.733  -1.632  24.516  0.00  0.00    +0.164 A 
ATOM      6  O   UNL     1      -1.151  -1.047  24.531  0.00  0.00    -0.438 OA
ATOM      7  C   UNL     1      -1.526  -0.313  24.537  0.00  0.00    +0.207 A 
ATOM      8  N   UNL     1      -2.341  -0.443  24.527  0.00  0.00    -0.212 NA
ATOM     24  C   UNL     1      -1.689  -2.456  24.505  0.00  0.00    +0.039 A 
ATOM     25  C   UNL     1      -2.380  -2.905  24.492  0.00  0.00    -0.001 A 
ENDBRANCH   9   7
BRANCH  12  13
ATOM     13  C   UNL     1      -1.023   2.536  24.278  0.00  0.00    +0.138 C 
BRANCH  13  14
ATOM     14  C   UNL     1      -1.623   2.956  24.657  0.00  0.00    +0.139 A 
ATOM     15  C   UNL     1      -1.549   3.379  25.361  0.00  0.00    +0.037 A 
ATOM     16  C   UNL     1      -2.283   3.711  25.538  0.00  0.00    +0.037 A 
ATOM     17  C   UNL     1      -2.811   3.492  24.943  0.00  0.00    +0.145 A 
ATOM     18  O   UNL     1      -2.404   3.026  24.399  0.00  0.00    -0.456 OA
ATOM     19  C   UNL     1      -3.596   3.747  24.975  0.00  0.00    +0.037 A 
ATOM     20  C   UNL     1      -3.851   4.220  25.601  0.00  0.00    +0.003 A 
ATOM     21  C   UNL     1      -3.322   4.438  26.195  0.00  0.00    +0.000 A 
ATOM     22  C   UNL     1      -2.538   4.184  26.164  0.00  0.00    +0.003 A 
ENDBRANCH  13  14
ENDBRANCH  12  13
TORSDOF 3
ENDMDL
MODEL 6
REMARK VINA RESULT:     -10.4      2.570      3.909
REMARK  Name = 
REMARK  3 active torsions:
REMARK  status: ('A' for Active; 'I' for Inactive)
REMARK    1  A    between atoms: C_7  and  C_9
REMARK    2  A    between atoms: N_12  and  C_13
REMARK    3  A    between atoms: C_13  and  C_14
REMARK                            x       y       z     vdW  Elec       q    Type
REMARK                         _______ _______ _______ _____ _____    ______ ____
ROOT
ATOM      9  C   UNL     1      -1.359   2.348  24.831  0.00  0.00    +0.094 C 
ATOM     10  C   UNL     1      -1.167   2.798  25.496  0.00  0.00    +0.028 C 
ATOM     11  C   UNL     1      -1.772   3.346  25.615  0.00  0.00    +0.073 C 
ATOM     12  N   UNL     1      -2.337   3.236  25.025  0.00  0.00    -0.266 NA
ATOM     23  C   UNL     1      -2.082   2.619  24.539  0.00  0.00    +0.082 C 
ENDROOT
BRANCH   9   7
ATOM      1  C   UNL     1       1.450  -0.247  22.827  0.00  0.00    +0.031 C 
ATOM      2  C   UNL     1       0.815   0.008  23.289  0.00  0.00    -0.020 A 
ATOM      3  C   UNL     1       0.666   0.814  23.376  0.00  0.00    +0.018 A 
ATOM      4  C   UNL     1       0.032   1.069  23.838  0.00  0.00    +0.118 A 
ATOM      5  C   UNL     1      -0.454   0.517  24.212  0.00  0.00    +0.164 A 
ATOM      6  O   UNL     1      -1.034   0.929  24.629  0.00  0.00    -0.438 OA
ATOM      7  C   UNL     1      -0.906   1.736  24.513  0.00  0.00    +0.207 A 
ATOM      8  N   UNL     1      -0.248   1.822  24.024  0.00  0.00    -0.212 NA
ATOM     24  C   UNL     1      -0.305  -0.290  24.124  0.00  0.00    +0.039 A 
ATOM     25  C   UNL     1       0.329  -0.544  23.662  0.00  0.00    -0.001 A 
ENDBRANCH   9   7
BRANCH  12  13
ATOM     13  C   UNL     1      -3.035   3.667  24.933  0.00  0.00    +0.138 C 
BRANCH  13  14
ATOM     14  C   UNL     1      -3.764   3.301  25.055  0.00  0.00    +0.139 A 
ATOM     15  C   UNL     1      -4.259   3.409  25.706  0.00  0.00    +0.037 A 
ATOM     16  C   UNL     1      -4.927   2.938  25.599  0.00  0.00    +0.037 A 
ATOM     17  C   UNL     1      -4.846   2.539  24.881  0.00  0.00    +0.145 A 
ATOM     18  O   UNL     1      -4.128   2.763  24.545  0.00  0.00    -0.456 OA
ATOM     19  C   UNL     1      -5.438   2.023  24.628  0.00  0.00    +0.037 A 
ATOM     20  C   UNL     1      -6.110   1.905  25.091  0.00  0.00    +0.003 A 
ATOM     21  C   UNL     1      -6.191   2.305  25.809  0.00  0.00    +0.000 A 
ATOM     22  C   UNL     1      -5.600   2.821  26.063  0.00  0.00    +0.003 A 
ENDBRANCH  13  14
ENDBRANCH  12  13
TORSDOF 3
ENDMDL
MODEL 7
REMARK VINA RESULT:     -10.2      1.804      5.489
REMARK  Name = 
REMARK  3 active torsions:
REMARK  status: ('A' for Active; 'I' for Inactive)
REMARK    1  A    between atoms: C_7  and  C_9
REMARK    2  A    between atoms: N_12  and  C_13
REMARK    3  A    between atoms: C_13  and  C_14
REMARK                            x       y       z     vdW  Elec       q    Type
REMARK                         _______ _______ _______ _____ _____    ______ ____
ROOT
ATOM      9  C   UNL     1      -1.665   1.247  24.941  0.00  0.00    +0.094 C 
ATOM     10  C   UNL     1      -1.033   1.236  24.410  0.00  0.00    +0.028 C 
ATOM     11  C   UNL     1      -0.686   0.488  24.445  0.00  0.00    +0.073 C 
ATOM     12  N   UNL     1      -1.102   0.037  24.996  0.00  0.00    -0.266 NA
ATOM     23  C   UNL     1      -1.708   0.507  25.303  0.00  0.00    +0.082 C 
ENDROOT
BRANCH   9   7
ATOM      1  C   UNL     1      -4.886   4.075  25.457  0.00  0.00    +0.031 C 
ATOM      2  C   UNL     1      -4.127   3.750  25.443  0.00  0.00    -0.020 A 
ATOM      3  C   UNL     1      -4.019   2.967  25.209  0.00  0.00    +0.018 A 
ATOM      4  C   UNL     1      -3.261   2.642  25.195  0.00  0.00    +0.118 A 
ATOM      5  C   UNL     1      -2.611   3.101  25.415  0.00  0.00    +0.164 A 
ATOM      6  O   UNL     1      -1.934   2.634  25.346  0.00  0.00    -0.438 OA
ATOM      7  C   UNL     1      -2.166   1.887  25.084  0.00  0.00    +0.207 A 
ATOM      8  N   UNL     1      -2.985   1.892  24.991  0.00  0.00    -0.212 NA
ATOM     24  C   UNL     1      -2.720   3.885  25.649  0.00  0.00    +0.039 A 
ATOM     25  C   UNL     1      -3.478   4.209  25.663  0.00  0.00    -0.001 A 
ENDBRANCH   9   7
BRANCH  12  13
ATOM     13  C   UNL     1      -0.942  -0.745  25.204  0.00  0.00    +0.138 C 
BRANCH  13  14
ATOM     14  C   UNL     1      -1.485  -1.339  25.024  0.00  0.00    +0.139 A 
ATOM     15  C   UNL     1      -1.345  -1.994  24.543  0.00  0.00    +0.037 A 
ATOM     16  C   UNL     1      -2.036  -2.442  24.515  0.00  0.00    +0.037 A 
ATOM     17  C   UNL     1      -2.604  -2.065  24.980  0.00  0.00    +0.145 A 
ATOM     18  O   UNL     1      -2.264  -1.383  25.294  0.00  0.00    -0.456 OA
ATOM     19  C   UNL     1      -3.358  -2.391  25.056  0.00  0.00    +0.037 A 
ATOM     20  C   UNL     1      -3.544  -3.095  24.668  0.00  0.00    +0.003 A 
ATOM     21  C   UNL     1      -2.977  -3.472  24.203  0.00  0.00    +0.000 A 
ATOM     22  C   UNL     1      -2.223  -3.147  24.126  0.00  0.00    +0.003 A 
ENDBRANCH  13  14
ENDBRANCH  12  13
TORSDOF 3
ENDMDL
MODEL 8
REMARK VINA RESULT:     -10.1      2.271      3.478
REMARK  Name = 
REMARK  3 active torsions:
REMARK  status: ('A' for Active; 'I' for Inactive)
REMARK    1  A    between atoms: C_7  and  C_9
REMARK    2  A    between atoms: N_12  and  C_13
REMARK    3  A    between atoms: C_13  and  C_14
REMARK                            x       y       z     vdW  Elec       q    Type
REMARK                         _______ _______ _______ _____ _____    ______ ____
ROOT
ATOM      9  C   UNL     1      -1.674   1.906  24.493  0.00  0.00    +0.094 C 
ATOM     10  C   UNL     1      -1.314   2.628  24.666  0.00  0.00    +0.028 C 
ATOM     11  C   UNL     1      -1.875   3.224  24.560  0.00  0.00    +0.073 C 
ATOM     12  N   UNL     1      -2.581   2.871  24.322  0.00  0.00    -0.266 NA
ATOM     23  C   UNL     1      -2.457   2.056  24.281  0.00  0.00    +0.082 C 
ENDROOT
BRANCH   9   7
ATOM      1  C   UNL     1      -0.255  -2.082  25.344  0.00  0.00    +0.031 C 
ATOM      2  C   UNL     1      -0.351  -1.349  24.975  0.00  0.00    -0.020 A 
ATOM      3  C   UNL     1      -0.879  -0.798  25.286  0.00  0.00    +0.018 A 
ATOM      4  C   UNL     1      -0.976  -0.066  24.918  0.00  0.00    +0.118 A 
ATOM      5  C   UNL     1      -0.542   0.114  24.238  0.00  0.00    +0.164 A 
ATOM      6  O   UNL     1      -0.752   0.875  23.997  0.00  0.00    -0.438 OA
ATOM      7  C   UNL     1      -1.313   1.164  24.527  0.00  0.00    +0.207 A 
ATOM      8  N   UNL     1      -1.452   0.583  25.095  0.00  0.00    -0.212 NA
ATOM     24  C   UNL     1      -0.013  -0.438  23.928  0.00  0.00    +0.039 A 
ATOM     25  C   UNL     1       0.082  -1.170  24.297  0.00  0.00    -0.001 A 
ENDBRANCH   9   7
BRANCH  12  13
ATOM     13  C   UNL     1      -3.288   3.262  24.155  0.00  0.00    +0.138 C 
BRANCH  13  14
ATOM     14  C   UNL     1      -3.985   3.035  24.533  0.00  0.00    +0.139 A 
ATOM     15  C   UNL     1      -4.558   2.526  24.228  0.00  0.00    +0.037 A 
ATOM     16  C   UNL     1      -5.159   2.453  24.788  0.00  0.00    +0.037 A 
ATOM     17  C   UNL     1      -4.957   2.917  25.440  0.00  0.00    +0.145 A 
ATOM     18  O   UNL     1      -4.232   3.277  25.282  0.00  0.00    -0.456 OA
ATOM     19  C   UNL     1      -5.461   2.952  26.092  0.00  0.00    +0.037 A 
ATOM     20  C   UNL     1      -6.165   2.523  26.094  0.00  0.00    +0.003 A 
ATOM     21  C   UNL     1      -6.366   2.059  25.442  0.00  0.00    +0.000 A 
ATOM     22  C   UNL     1      -5.864   2.024  24.789  0.00  0.00    +0.003 A 
ENDBRANCH  13  14
ENDBRANCH  12  13
TORSDOF 3
ENDMDL
MODEL 9
REMARK VINA RESULT:      -9.9      2.428      4.305
REMARK  Name = 
REMARK  3 active torsions:
REMARK  status: ('A' for Active; 'I' for Inactive)
REMARK    1  A    between atoms: C_7  and  C_9
REMARK    2  A    between atoms: N_12  and  C_13
REMARK    3  A    between atoms: C_13  and  C_14
REMARK                            x       y       z     vdW  Elec       q    Type
REMARK                         _______ _______ _______ _____ _____    ______ ____
ROOT
ATOM      9  C   UNL     1      -3.598   0.226  24.815  0.00  0.00    +0.094 C 
ATOM     10  C   UNL     1      -3.767  -0.423  24.334  0.00  0.00    +0.028 C 
ATOM     11  C   UNL     1      -3.102  -0.912  24.325  0.00  0.00    +0.073 C 
ATOM     12  N   UNL     1      -2.523  -0.566  24.799  0.00  0.00    -0.266 NA
ATOM     23  C   UNL     1      -2.830   0.137  25.103  0.00  0.00    +0.082 C 
ENDROOT
BRANCH   9   7
ATOM      1  C   UNL     1      -5.619   3.982  25.485  0.00  0.00    +0.031 C 
ATOM      2  C   UNL     1      -5.478   3.170  25.430  0.00  0.00    -0.020 A 
ATOM      3  C   UNL     1      -4.735   2.896  25.200  0.00  0.00    +0.018 A 
ATOM      4  C   UNL     1      -4.593   2.085  25.145  0.00  0.00    +0.118 A 
ATOM      5  C   UNL     1      -5.195   1.549  25.320  0.00  0.00    +0.164 A 
ATOM      6  O   UNL     1      -4.895   0.787  25.217  0.00  0.00    -0.438 OA
ATOM      7  C   UNL     1      -4.109   0.853  24.980  0.00  0.00    +0.207 A 
ATOM      8  N   UNL     1      -3.922   1.655  24.935  0.00  0.00    -0.212 NA
ATOM     24  C   UNL     1      -5.939   1.824  25.550  0.00  0.00    +0.039 A 
ATOM     25  C   UNL     1      -6.080   2.634  25.604  0.00  0.00    -0.001 A 
ENDBRANCH   9   7
BRANCH  12  13
ATOM     13  C   UNL     1      -1.770  -0.869  24.946  0.00  0.00    +0.138 C 
BRANCH  13  14
ATOM     14  C   UNL     1      -1.116  -0.560  24.550  0.00  0.00    +0.139 A 
ATOM     15  C   UNL     1      -0.641  -0.962  24.009  0.00  0.00    +0.037 A 
ATOM     16  C   UNL     1      -0.054  -0.444  23.751  0.00  0.00    +0.037 A 
ATOM     17  C   UNL     1      -0.165   0.279  24.132  0.00  0.00    +0.145 A 
ATOM     18  O   UNL     1      -0.822   0.208  24.626  0.00  0.00    -0.456 OA
ATOM     19  C   UNL     1       0.346   0.908  23.979  0.00  0.00    +0.037 A 
ATOM     20  C   UNL     1       0.968   0.815  23.446  0.00  0.00    +0.003 A 
ATOM     21  C   UNL     1       1.079   0.092  23.065  0.00  0.00    +0.000 A 
ATOM     22  C   UNL     1       0.569  -0.538  23.216  0.00  0.00    +0.003 A 
ENDBRANCH  13  14
ENDBRANCH  12  13
TORSDOF 3
ENDMDL
