MODEL 1
REMARK VINA RESULT:     -12.8      0.000      0.000
REMARK  Name = 
REMARK  5 active torsions:
REMARK  status: ('A' for Active; 'I' for Inactive)
REMARK    1  A    between atoms: N_2  and  C_4
REMARK    2  A    between atoms: C_7  and  C_10
REMARK    3  A    between atoms: C_13  and  C_15
REMARK    4  A    between atoms: N_18  and  C_19
REMARK    5  A    between atoms: C_19  and  C_20
REMARK                            x       y       z     vdW  Elec       q    Type
REMARK                         _______ _______ _______ _____ _____    ______ ____
ROOT
ATOM     10  C   UNL     1      -4.343   0.470  24.839  0.00  0.00    +0.250 A 
ATOM     11  N   UNL     1      -5.133   0.703  24.796  0.00  0.00    -0.107 NA
ATOM     12  N   UNL     1      -5.166   1.519  24.913  0.00  0.00    -0.111 NA
ATOM     13  C   UNL     1      -4.396   1.791  25.028  0.00  0.00    +0.227 A 
ATOM     14  O   UNL     1      -3.887   1.143  24.982  0.00  0.00    -0.419 OA
ENDROOT
BRANCH  10   7
ATOM      4  C   UNL     1      -3.489  -1.839  24.582  0.00  0.00    +0.048 A 
ATOM      5  C   UNL     1      -3.780  -1.431  23.926  0.00  0.00    +0.015 A 
ATOM      6  C   UNL     1      -4.065  -0.661  24.011  0.00  0.00    +0.006 A 
ATOM      7  C   UNL     1      -4.058  -0.299  24.753  0.00  0.00    +0.055 A 
ATOM      8  C   UNL     1      -3.768  -0.707  25.409  0.00  0.00    +0.006 A 
ATOM      9  C   UNL     1      -3.483  -1.476  25.323  0.00  0.00    +0.015 A 
BRANCH   4   2
ATOM      1  C   UNL     1      -2.394  -2.744  24.441  0.00  0.00    +0.112 C 
ATOM      2  N   UNL     1      -3.205  -2.608  24.497  0.00  0.00    -0.304 N 
ATOM      3  C   UNL     1      -3.733  -3.242  24.467  0.00  0.00    +0.112 C 
ENDBRANCH   4   2
ENDBRANCH  10   7
BRANCH  13  15
ATOM     15  C   UNL     1      -4.173   2.573  25.165  0.00  0.00    +0.096 C 
ATOM     16  C   UNL     1      -4.530   3.243  24.840  0.00  0.00    +0.028 C 
ATOM     17  C   UNL     1      -4.131   3.907  25.125  0.00  0.00    +0.073 C 
ATOM     18  N   UNL     1      -3.529   3.648  25.625  0.00  0.00    -0.268 NA
ATOM     28  C   UNL     1      -3.554   2.823  25.650  0.00  0.00    +0.082 C 
BRANCH  18  19
ATOM     19  C   UNL     1      -2.994   4.129  26.030  0.00  0.00    +0.099 C 
BRANCH  19  20
ATOM     20  C   UNL     1      -2.289   4.358  25.668  0.00  0.00    -0.004 A 
ATOM     21  C   UNL     1      -1.652   3.834  25.636  0.00  0.00    +0.029 A 
ATOM     22  C   UNL     1      -0.947   4.064  25.274  0.00  0.00    +0.167 A 
ATOM     23  F   UNL     1      -0.311   3.540  25.242  0.00  0.00    -0.202 F 
ATOM     24  C   UNL     1      -0.880   4.817  24.943  0.00  0.00    +0.167 A 
ATOM     25  F   UNL     1      -0.175   5.046  24.581  0.00  0.00    -0.202 F 
ATOM     26  C   UNL     1      -1.516   5.340  24.975  0.00  0.00    +0.032 A 
ATOM     27  C   UNL     1      -2.222   5.111  25.337  0.00  0.00    -0.000 A 
ENDBRANCH  19  20
ENDBRANCH  18  19
ENDBRANCH  13  15
TORSDOF 5
ENDMDL
MODEL 2
REMARK VINA RESULT:     -11.3      2.743      6.259
REMARK  Name = 
REMARK  5 active torsions:
REMARK  status: ('A' for Active; 'I' for Inactive)
REMARK    1  A    between atoms: N_2  and  C_4
REMARK    2  A    between atoms: C_7  and  C_10
REMARK    3  A    between atoms: C_13  and  C_15
REMARK    4  A    between atoms: N_18  and  C_19
REMARK    5  A    between atoms: C_19  and  C_20
REMARK                            x       y       z     vdW  Elec       q    Type
REMARK                         _______ _______ _______ _____ _____    ______ ____
ROOT
ATOM     10  C   UNL     1      -0.642   1.816  24.906  0.00  0.00    +0.250 A 
ATOM     11  N   UNL     1       0.077   1.485  24.678  0.00  0.00    -0.107 NA
ATOM     12  N   UNL     1       0.005   0.664  24.716  0.00  0.00    -0.111 NA
ATOM     13  C   UNL     1      -0.761   0.488  24.968  0.00  0.00    +0.227 A 
ATOM     14  O   UNL     1      -1.161   1.200  25.085  0.00  0.00    -0.419 OA
ENDROOT
BRANCH  10   7
ATOM      4  C   UNL     1      -1.156   4.234  25.030  0.00  0.00    +0.048 A 
ATOM      5  C   UNL     1      -1.355   3.737  25.659  0.00  0.00    +0.015 A 
ATOM      6  C   UNL     1      -1.184   2.931  25.617  0.00  0.00    +0.006 A 
ATOM      7  C   UNL     1      -0.814   2.622  24.947  0.00  0.00    +0.055 A 
ATOM      8  C   UNL     1      -0.615   3.118  24.320  0.00  0.00    +0.006 A 
ATOM      9  C   UNL     1      -0.786   3.924  24.361  0.00  0.00    +0.015 A 
BRANCH   4   2
ATOM      1  C   UNL     1      -2.054   5.292  25.369  0.00  0.00    +0.112 C 
ATOM      2  N   UNL     1      -1.328   5.040  25.072  0.00  0.00    -0.304 N 
ATOM      3  C   UNL     1      -0.771   5.593  24.816  0.00  0.00    +0.112 C 
ENDBRANCH   4   2
ENDBRANCH  10   7
BRANCH  13  15
ATOM     15  C   UNL     1      -1.072  -0.267  25.082  0.00  0.00    +0.096 C 
ATOM     16  C   UNL     1      -0.672  -0.980  24.967  0.00  0.00    +0.028 C 
ATOM     17  C   UNL     1      -1.192  -1.596  25.146  0.00  0.00    +0.073 C 
ATOM     18  N   UNL     1      -1.912  -1.264  25.372  0.00  0.00    -0.268 NA
ATOM     28  C   UNL     1      -1.839  -0.443  25.333  0.00  0.00    +0.082 C 
BRANCH  18  19
ATOM     19  C   UNL     1      -2.588  -1.680  25.598  0.00  0.00    +0.099 C 
BRANCH  19  20
ATOM     20  C   UNL     1      -3.140  -1.911  25.029  0.00  0.00    -0.004 A 
ATOM     21  C   UNL     1      -3.706  -1.373  24.763  0.00  0.00    +0.029 A 
ATOM     22  C   UNL     1      -4.258  -1.603  24.194  0.00  0.00    +0.167 A 
ATOM     23  F   UNL     1      -4.824  -1.065  23.928  0.00  0.00    -0.202 F 
ATOM     24  C   UNL     1      -4.243  -2.371  23.892  0.00  0.00    +0.167 A 
ATOM     25  F   UNL     1      -4.795  -2.601  23.324  0.00  0.00    -0.202 F 
ATOM     26  C   UNL     1      -3.677  -2.908  24.159  0.00  0.00    +0.032 A 
ATOM     27  C   UNL     1      -3.125  -2.678  24.727  0.00  0.00    -0.000 A 
ENDBRANCH  19  20
ENDBRANCH  18  19
ENDBRANCH  13  15
TORSDOF 5
ENDMDL
MODEL 3
REMARK VINA RESULT:     -10.7      1.936      5.633
REMARK  Name = 
REMARK  5 active torsions:
REMARK  status: ('A' for Active; 'I' for Inactive)
REMARK    1  A    between atoms: N_2  and  C_4
REMARK    2  A    between atoms: C_7  and  C_10
REMARK    3  A    between atoms: C_13  and  C_15
REMARK    4  A    between atoms: N_18  and  C_19
REMARK    5  A    between atoms: C_19  and  C_20
REMARK                            x       y       z     vdW  Elec       q    Type
REMARK                         _______ _______ _______ _____ _____    ______ ____
ROOT
ATOM     10  C   UNL     1      -3.556   2.569  25.006  0.00  0.00    +0.250 A 
ATOM     11  N   UNL     1      -4.376   2.654  25.041  0.00  0.00    -0.107 NA
ATOM     12  N   UNL     1      -4.712   1.901  25.014  0.00  0.00    -0.111 NA
ATOM     13  C   UNL     1      -4.099   1.351  24.962  0.00  0.00    +0.227 A 
ATOM     14  O   UNL     1      -3.385   1.764  24.957  0.00  0.00    -0.419 OA
ENDROOT
BRANCH  10   7
ATOM      4  C   UNL     1      -1.901   4.410  25.041  0.00  0.00    +0.048 A 
ATOM      5  C   UNL     1      -2.404   4.294  25.685  0.00  0.00    +0.015 A 
ATOM      6  C   UNL     1      -2.955   3.680  25.674  0.00  0.00    +0.006 A 
ATOM      7  C   UNL     1      -3.004   3.183  25.017  0.00  0.00    +0.055 A 
ATOM      8  C   UNL     1      -2.503   3.298  24.373  0.00  0.00    +0.006 A 
ATOM      9  C   UNL     1      -1.951   3.911  24.385  0.00  0.00    +0.015 A 
BRANCH   4   2
ATOM      1  C   UNL     1      -0.546   4.856  24.977  0.00  0.00    +0.112 C 
ATOM      2  N   UNL     1      -1.349   5.023  25.052  0.00  0.00    -0.304 N 
ATOM      3  C   UNL     1      -1.603   5.803  25.139  0.00  0.00    +0.112 C 
ENDBRANCH   4   2
ENDBRANCH  10   7
BRANCH  13  15
ATOM     15  C   UNL     1      -4.185   0.531  24.922  0.00  0.00    +0.096 C 
ATOM     16  C   UNL     1      -4.707   0.122  24.432  0.00  0.00    +0.028 C 
ATOM     17  C   UNL     1      -4.609  -0.686  24.572  0.00  0.00    +0.073 C 
ATOM     18  N   UNL     1      -4.026  -0.775  25.148  0.00  0.00    -0.268 NA
ATOM     28  C   UNL     1      -3.764  -0.023  25.365  0.00  0.00    +0.082 C 
BRANCH  18  19
ATOM     19  C   UNL     1      -3.752  -1.491  25.455  0.00  0.00    +0.099 C 
BRANCH  19  20
ATOM     20  C   UNL     1      -3.174  -1.919  25.050  0.00  0.00    -0.004 A 
ATOM     21  C   UNL     1      -2.378  -1.721  25.137  0.00  0.00    +0.029 A 
ATOM     22  C   UNL     1      -1.800  -2.148  24.733  0.00  0.00    +0.167 A 
ATOM     23  F   UNL     1      -1.005  -1.950  24.819  0.00  0.00    -0.202 F 
ATOM     24  C   UNL     1      -2.019  -2.775  24.242  0.00  0.00    +0.167 A 
ATOM     25  F   UNL     1      -1.441  -3.202  23.838  0.00  0.00    -0.202 F 
ATOM     26  C   UNL     1      -2.814  -2.973  24.155  0.00  0.00    +0.032 A 
ATOM     27  C   UNL     1      -3.393  -2.545  24.559  0.00  0.00    -0.000 A 
ENDBRANCH  19  20
ENDBRANCH  18  19
ENDBRANCH  13  15
TORSDOF 5
ENDMDL
MODEL 4
REMARK VINA RESULT:     -10.5      2.046      2.805
REMARK  Name = 
REMARK  5 active torsions:
REMARK  status: ('A' for Active; 'I' for Inactive)
REMARK    1  A    between atoms: N_2  and  C_4
REMARK    2  A    between atoms: C_7  and  C_10
REMARK    3  A    between atoms: C_13  and  C_15
REMARK    4  A    between atoms: N_18  and  C_19
REMARK    5  A    between atoms: C_19  and  C_20
REMARK                            x       y       z     vdW  Elec       q    Type
REMARK                         _______ _______ _______ _____ _____    ______ ____
ROOT
ATOM     10  C   UNL     1      -1.430  -0.232  24.926  0.00  0.00    +0.250 A 
ATOM     11  N   UNL     1      -0.609  -0.280  24.865  0.00  0.00    -0.107 NA
ATOM     12  N   UNL     1      -0.296   0.465  25.035  0.00  0.00    -0.111 NA
ATOM     13  C   UNL     1      -0.924   0.973  25.201  0.00  0.00    +0.227 A 
ATOM     14  O   UNL     1      -1.625   0.542  25.134  0.00  0.00    -0.419 OA
ENDROOT
BRANCH  10   7
ATOM      4  C   UNL     1      -3.027  -2.086  24.552  0.00  0.00    +0.048 A 
ATOM      5  C   UNL     1      -3.304  -1.340  24.773  0.00  0.00    +0.015 A 
ATOM      6  C   UNL     1      -2.772  -0.722  24.897  0.00  0.00    +0.006 A 
ATOM      7  C   UNL     1      -1.962  -0.850  24.802  0.00  0.00    +0.055 A 
ATOM      8  C   UNL     1      -1.685  -1.594  24.581  0.00  0.00    +0.006 A 
ATOM      9  C   UNL     1      -2.217  -2.212  24.457  0.00  0.00    +0.015 A 
BRANCH   4   2
ATOM      1  C   UNL     1      -3.489  -3.401  24.861  0.00  0.00    +0.112 C 
ATOM      2  N   UNL     1      -3.559  -2.703  24.428  0.00  0.00    -0.304 N 
ATOM      3  C   UNL     1      -4.161  -2.622  23.869  0.00  0.00    +0.112 C 
ENDBRANCH   4   2
ENDBRANCH  10   7
BRANCH  13  15
ATOM     15  C   UNL     1      -0.863   1.771  25.399  0.00  0.00    +0.096 C 
ATOM     16  C   UNL     1      -0.294   2.105  25.895  0.00  0.00    +0.028 C 
ATOM     17  C   UNL     1      -0.440   2.916  25.939  0.00  0.00    +0.073 C 
ATOM     18  N   UNL     1      -1.098   3.083  25.471  0.00  0.00    -0.268 NA
ATOM     28  C   UNL     1      -1.360   2.375  25.137  0.00  0.00    +0.082 C 
BRANCH  18  19
ATOM     19  C   UNL     1      -1.436   3.827  25.357  0.00  0.00    +0.099 C 
BRANCH  19  20
ATOM     20  C   UNL     1      -2.253   3.923  25.415  0.00  0.00    -0.004 A 
ATOM     21  C   UNL     1      -2.720   3.907  24.734  0.00  0.00    +0.029 A 
ATOM     22  C   UNL     1      -3.537   4.002  24.792  0.00  0.00    +0.167 A 
ATOM     23  F   UNL     1      -4.003   3.986  24.112  0.00  0.00    -0.202 F 
ATOM     24  C   UNL     1      -3.888   4.114  25.530  0.00  0.00    +0.167 A 
ATOM     25  F   UNL     1      -4.705   4.209  25.588  0.00  0.00    -0.202 F 
ATOM     26  C   UNL     1      -3.422   4.130  26.210  0.00  0.00    +0.032 A 
ATOM     27  C   UNL     1      -2.604   4.035  26.153  0.00  0.00    -0.000 A 
ENDBRANCH  19  20
ENDBRANCH  18  19
ENDBRANCH  13  15
TORSDOF 5
ENDMDL
MODEL 5
REMARK VINA RESULT:     -10.0      3.138      4.329
REMARK  Name = 
REMARK  5 active torsions:
REMARK  status: ('A' for Active; 'I' for Inactive)
REMARK    1  A    between atoms: N_2  and  C_4
REMARK    2  A    between atoms: C_7  and  C_10
REMARK    3  A    between atoms: C_13  and  C_15
REMARK    4  A    between atoms: N_18  and  C_19
REMARK    5  A    between atoms: C_19  and  C_20
REMARK                            x       y       z     vdW  Elec       q    Type
REMARK                         _______ _______ _______ _____ _____    ______ ____
ROOT
ATOM     10  C   UNL     1      -0.986  -0.044  24.584  0.00  0.00    +0.250 A 
ATOM     11  N   UNL     1      -0.992  -0.211  25.392  0.00  0.00    -0.107 NA
ATOM     12  N   UNL     1      -1.774  -0.176  25.654  0.00  0.00    -0.111 NA
ATOM     13  C   UNL     1      -2.250   0.013  25.008  0.00  0.00    +0.227 A 
ATOM     14  O   UNL     1      -1.763   0.095  24.347  0.00  0.00    -0.419 OA
ENDROOT
BRANCH  10   7
ATOM      4  C   UNL     1       1.015   0.029  23.130  0.00  0.00    +0.048 A 
ATOM      5  C   UNL     1       0.663  -0.695  23.311  0.00  0.00    +0.015 A 
ATOM      6  C   UNL     1      -0.004  -0.720  23.796  0.00  0.00    +0.006 A 
ATOM      7  C   UNL     1      -0.319  -0.020  24.099  0.00  0.00    +0.055 A 
ATOM      8  C   UNL     1       0.033   0.704  23.919  0.00  0.00    +0.006 A 
ATOM      9  C   UNL     1       0.700   0.728  23.434  0.00  0.00    +0.015 A 
BRANCH   4   2
ATOM      1  C   UNL     1       1.652  -0.267  21.886  0.00  0.00    +0.112 C 
ATOM      2  N   UNL     1       1.683   0.053  22.645  0.00  0.00    -0.304 N 
ATOM      3  C   UNL     1       2.380   0.398  22.920  0.00  0.00    +0.112 C 
ENDBRANCH   4   2
ENDBRANCH  10   7
BRANCH  13  15
ATOM     15  C   UNL     1      -3.070   0.105  25.020  0.00  0.00    +0.096 C 
ATOM     16  C   UNL     1      -3.608  -0.391  25.402  0.00  0.00    +0.028 C 
ATOM     17  C   UNL     1      -4.367  -0.094  25.270  0.00  0.00    +0.073 C 
ATOM     18  N   UNL     1      -4.297   0.586  24.808  0.00  0.00    -0.268 NA
ATOM     28  C   UNL     1      -3.496   0.709  24.653  0.00  0.00    +0.082 C 
BRANCH  18  19
ATOM     19  C   UNL     1      -4.920   1.059  24.546  0.00  0.00    +0.099 C 
BRANCH  19  20
ATOM     20  C   UNL     1      -5.039   1.805  24.878  0.00  0.00    -0.004 A 
ATOM     21  C   UNL     1      -4.667   2.466  24.552  0.00  0.00    +0.029 A 
ATOM     22  C   UNL     1      -4.785   3.212  24.883  0.00  0.00    +0.167 A 
ATOM     23  F   UNL     1      -4.413   3.871  24.557  0.00  0.00    -0.202 F 
ATOM     24  C   UNL     1      -5.276   3.297  25.541  0.00  0.00    +0.167 A 
ATOM     25  F   UNL     1      -5.395   4.043  25.872  0.00  0.00    -0.202 F 
ATOM     26  C   UNL     1      -5.648   2.638  25.867  0.00  0.00    +0.032 A 
ATOM     27  C   UNL     1      -5.530   1.891  25.535  0.00  0.00    -0.000 A 
ENDBRANCH  19  20
ENDBRANCH  18  19
ENDBRANCH  13  15
TORSDOF 5
ENDMDL
MODEL 6
REMARK VINA RESULT:      -9.9      2.573      3.612
REMARK  Name = 
REMARK  5 active torsions:
REMARK  status: ('A' for Active; 'I' for Inactive)
REMARK    1  A    between atoms: N_2  and  C_4
REMARK    2  A    between atoms: C_7  and  C_10
REMARK    3  A    between atoms: C_13  and  C_15
REMARK    4  A    between atoms: N_18  and  C_19
REMARK    5  A    between atoms: C_19  and  C_20
REMARK                            x       y       z     vdW  Elec       q    Type
REMARK                         _______ _______ _______ _____ _____    ______ ____
ROOT
ATOM     10  C   UNL     1      -0.954   1.188  25.271  0.00  0.00    +0.250 A 
ATOM     11  N   UNL     1      -0.336   1.729  25.347  0.00  0.00    -0.107 NA
ATOM     12  N   UNL     1      -0.662   2.485  25.403  0.00  0.00    -0.111 NA
ATOM     13  C   UNL     1      -1.483   2.411  25.361  0.00  0.00    +0.227 A 
ATOM     14  O   UNL     1      -1.663   1.609  25.279  0.00  0.00    -0.419 OA
ENDROOT
BRANCH  10   7
ATOM      4  C   UNL     1      -0.722  -1.267  25.056  0.00  0.00    +0.048 A 
ATOM      5  C   UNL     1      -1.094  -0.943  25.718  0.00  0.00    +0.015 A 
ATOM      6  C   UNL     1      -1.171  -0.125  25.790  0.00  0.00    +0.006 A 
ATOM      7  C   UNL     1      -0.876   0.370  25.199  0.00  0.00    +0.055 A 
ATOM      8  C   UNL     1      -0.505   0.048  24.538  0.00  0.00    +0.006 A 
ATOM      9  C   UNL     1      -0.428  -0.771  24.466  0.00  0.00    +0.015 A 
BRANCH   4   2
ATOM      1  C   UNL     1       0.015  -2.466  25.300  0.00  0.00    +0.112 C 
ATOM      2  N   UNL     1      -0.644  -2.085  24.984  0.00  0.00    -0.304 N 
ATOM      3  C   UNL     1      -1.227  -2.521  24.595  0.00  0.00    +0.112 C 
ENDBRANCH   4   2
ENDBRANCH  10   7
BRANCH  13  15
ATOM     15  C   UNL     1      -2.027   3.029  25.394  0.00  0.00    +0.096 C 
ATOM     16  C   UNL     1      -1.897   3.773  25.727  0.00  0.00    +0.028 C 
ATOM     17  C   UNL     1      -2.588   4.216  25.639  0.00  0.00    +0.073 C 
ATOM     18  N   UNL     1      -3.145   3.746  25.252  0.00  0.00    -0.268 NA
ATOM     28  C   UNL     1      -2.798   3.012  25.101  0.00  0.00    +0.082 C 
BRANCH  18  19
ATOM     19  C   UNL     1      -3.913   3.971  25.052  0.00  0.00    +0.099 C 
BRANCH  19  20
ATOM     20  C   UNL     1      -4.531   3.428  25.114  0.00  0.00    -0.004 A 
ATOM     21  C   UNL     1      -4.937   3.345  25.828  0.00  0.00    +0.029 A 
ATOM     22  C   UNL     1      -5.555   2.802  25.891  0.00  0.00    +0.167 A 
ATOM     23  F   UNL     1      -5.960   2.720  26.604  0.00  0.00    -0.202 F 
ATOM     24  C   UNL     1      -5.767   2.342  25.240  0.00  0.00    +0.167 A 
ATOM     25  F   UNL     1      -6.385   1.799  25.303  0.00  0.00    -0.202 F 
ATOM     26  C   UNL     1      -5.361   2.424  24.527  0.00  0.00    +0.032 A 
ATOM     27  C   UNL     1      -4.743   2.967  24.463  0.00  0.00    -0.000 A 
ENDBRANCH  19  20
ENDBRANCH  18  19
ENDBRANCH  13  15
TORSDOF 5
ENDMDL
MODEL 7
REMARK VINA RESULT:      -9.8      2.692      5.750
REMARK  Name = 
REMARK  5 active torsions:
REMARK  status: ('A' for Active; 'I' for Inactive)
REMARK    1  A    between atoms: N_2  and  C_4
REMARK    2  A    between atoms: C_7  and  C_10
REMARK    3  A    between atoms: C_13  and  C_15
REMARK    4  A    between atoms: N_18  and  C_19
REMARK    5  A    between atoms: C_19  and  C_20
REMARK                            x       y       z     vdW  Elec       q    Type
REMARK                         _______ _______ _______ _____ _____    ______ ____
ROOT
ATOM     10  C   UNL     1      -2.481   2.199  24.639  0.00  0.00    +0.250 A 
ATOM     11  N   UNL     1      -1.803   2.521  24.298  0.00  0.00    -0.107 NA
ATOM     12  N   UNL     1      -1.253   1.914  24.201  0.00  0.00    -0.111 NA
ATOM     13  C   UNL     1      -1.592   1.216  24.481  0.00  0.00    +0.227 A 
ATOM     14  O   UNL     1      -2.351   1.393  24.753  0.00  0.00    -0.419 OA
ENDROOT
BRANCH  10   7
ATOM      4  C   UNL     1      -4.545   3.436  25.221  0.00  0.00    +0.048 A 
ATOM      5  C   UNL     1      -3.838   3.605  25.612  0.00  0.00    +0.015 A 
ATOM      6  C   UNL     1      -3.150   3.193  25.419  0.00  0.00    +0.006 A 
ATOM      7  C   UNL     1      -3.169   2.611  24.833  0.00  0.00    +0.055 A 
ATOM      8  C   UNL     1      -3.875   2.442  24.442  0.00  0.00    +0.006 A 
ATOM      9  C   UNL     1      -4.563   2.855  24.636  0.00  0.00    +0.015 A 
BRANCH   4   2
ATOM      1  C   UNL     1      -5.896   3.439  25.683  0.00  0.00    +0.112 C 
ATOM      2  N   UNL     1      -5.233   3.848  25.414  0.00  0.00    -0.304 N 
ATOM      3  C   UNL     1      -5.256   4.669  25.339  0.00  0.00    +0.112 C 
ENDBRANCH   4   2
ENDBRANCH  10   7
BRANCH  13  15
ATOM     15  C   UNL     1      -1.235   0.473  24.490  0.00  0.00    +0.096 C 
ATOM     16  C   UNL     1      -0.524   0.271  24.121  0.00  0.00    +0.028 C 
ATOM     17  C   UNL     1      -0.376  -0.526  24.272  0.00  0.00    +0.073 C 
ATOM     18  N   UNL     1      -0.994  -0.818  24.734  0.00  0.00    -0.268 NA
ATOM     28  C   UNL     1      -1.525  -0.201  24.868  0.00  0.00    +0.082 C 
BRANCH  18  19
ATOM     19  C   UNL     1      -1.068  -1.591  25.012  0.00  0.00    +0.099 C 
BRANCH  19  20
ATOM     20  C   UNL     1      -1.758  -2.019  24.863  0.00  0.00    -0.004 A 
ATOM     21  C   UNL     1      -2.397  -1.966  25.383  0.00  0.00    +0.029 A 
ATOM     22  C   UNL     1      -3.087  -2.393  25.234  0.00  0.00    +0.167 A 
ATOM     23  F   UNL     1      -3.725  -2.340  25.753  0.00  0.00    -0.202 F 
ATOM     24  C   UNL     1      -3.137  -2.873  24.565  0.00  0.00    +0.167 A 
ATOM     25  F   UNL     1      -3.827  -3.301  24.416  0.00  0.00    -0.202 F 
ATOM     26  C   UNL     1      -2.500  -2.926  24.045  0.00  0.00    +0.032 A 
ATOM     27  C   UNL     1      -1.809  -2.499  24.194  0.00  0.00    -0.000 A 
ENDBRANCH  19  20
ENDBRANCH  18  19
ENDBRANCH  13  15
TORSDOF 5
ENDMDL
