MODEL 1
REMARK VINA RESULT:      -8.0      0.000      0.000
REMARK  Name = 
REMARK  7 active torsions:
REMARK  status: ('A' for Active; 'I' for Inactive)
REMARK    1  A    between atoms: C_6  and  C_7
REMARK    2  A    between atoms: C_7  and  N_8
REMARK    3  A    between atoms: N_8  and  C_9
REMARK    4  A    between atoms: N_8  and  C_16
REMARK    5  A    between atoms: C_9  and  C_10
REMARK    6  A    between atoms: C_19  and  C_20
REMARK    7  A    between atoms: C_20  and  N_21
REMARK                            x       y       z     vdW  Elec       q    Type
REMARK                         _______ _______ _______ _____ _____    ______ ____
ROOT
ATOM     16  C   UNL     1      12.222   8.021  20.136  0.00  0.00    +0.121 C 
ATOM     17  C   UNL     1      11.949   8.799  20.118  0.00  0.00    +0.161 C 
ATOM     18  O   UNL     1      11.773   8.991  19.336  0.00  0.00    -0.350 OA
ATOM     19  C   UNL     1      11.936   8.331  18.869  0.00  0.00    +0.169 C 
ATOM     30  C   UNL     1      12.213   7.731  19.363  0.00  0.00    +0.198 C 
ATOM     31  O   UNL     1      12.443   6.975  19.126  0.00  0.00    -0.219 OA
ENDROOT
BRANCH  16   8
ATOM      8  N   UNL     1      12.460   7.604  20.807  0.00  0.00    -0.257 NA
BRANCH   8   7
ATOM      7  C   UNL     1      11.968   7.570  21.468  0.00  0.00    +0.137 C 
BRANCH   7   6
ATOM      1  C   UNL     1      10.342   7.565  22.228  0.00  0.00    +0.132 C 
ATOM      2  N   UNL     1      10.747   6.904  21.945  0.00  0.00    -0.311 N 
ATOM      3  C   UNL     1      10.476   6.125  21.962  0.00  0.00    +0.098 A 
ATOM      4  C   UNL     1      11.056   5.646  21.623  0.00  0.00    +0.119 A 
ATOM      5  N   UNL     1      11.685   6.129  21.397  0.00  0.00    -0.228 NA
ATOM      6  C   UNL     1      11.494   6.906  21.596  0.00  0.00    +0.137 A 
ENDBRANCH   7   6
ENDBRANCH   8   7
BRANCH   8   9
ATOM      9  C   UNL     1      13.191   7.222  20.818  0.00  0.00    +0.137 C 
BRANCH   9  10
ATOM     10  C   UNL     1      13.819   7.543  21.246  0.00  0.00    +0.137 A 
ATOM     11  N   UNL     1      13.771   8.171  21.779  0.00  0.00    -0.228 NA
ATOM     12  C   UNL     1      14.526   8.309  22.079  0.00  0.00    +0.119 A 
ATOM     13  C   UNL     1      15.042   7.766  21.732  0.00  0.00    +0.098 A 
ATOM     14  N   UNL     1      14.605   7.293  21.217  0.00  0.00    -0.311 N 
ATOM     15  C   UNL     1      14.900   6.678  20.753  0.00  0.00    +0.132 C 
ENDBRANCH   9  10
ENDBRANCH   8   9
ENDBRANCH  16   8
BRANCH  19  20
ATOM     20  C   UNL     1      11.839   8.280  18.052  0.00  0.00    +0.149 C 
BRANCH  20  21
ATOM     21  N   UNL     1      11.093   8.391  17.717  0.00  0.00    -0.186 NA
ATOM     22  C   UNL     1      11.025   8.622  16.928  0.00  0.00    +0.323 C 
ATOM     23  O   UNL     1      10.279   8.733  16.594  0.00  0.00    -0.251 OA
ATOM     24  N   UNL     1      11.703   8.742  16.473  0.00  0.00    -0.258 N 
ATOM     25  C   UNL     1      12.449   8.631  16.808  0.00  0.00    +0.127 C 
ATOM     26  C   UNL     1      13.127   8.751  16.353  0.00  0.00    +0.164 C 
ATOM     27  O   UNL     1      13.058   8.982  15.565  0.00  0.00    -0.350 OA
ATOM     28  C   UNL     1      12.313   9.094  15.230  0.00  0.00    +0.164 C 
ATOM     29  C   UNL     1      11.635   8.973  15.685  0.00  0.00    +0.127 C 
ENDBRANCH  20  21
ENDBRANCH  19  20
TORSDOF 7
ENDMDL
MODEL 2
REMARK VINA RESULT:      -8.0     15.183     17.835
REMARK  Name = 
REMARK  7 active torsions:
REMARK  status: ('A' for Active; 'I' for Inactive)
REMARK    1  A    between atoms: C_6  and  C_7
REMARK    2  A    between atoms: C_7  and  N_8
REMARK    3  A    between atoms: N_8  and  C_9
REMARK    4  A    between atoms: N_8  and  C_16
REMARK    5  A    between atoms: C_9  and  C_10
REMARK    6  A    between atoms: C_19  and  C_20
REMARK    7  A    between atoms: C_20  and  N_21
REMARK                            x       y       z     vdW  Elec       q    Type
REMARK                         _______ _______ _______ _____ _____    ______ ____
ROOT
ATOM     16  C   UNL     1      -2.751   1.719  24.279  0.00  0.00    +0.121 C 
ATOM     17  C   UNL     1      -2.826   1.584  23.469  0.00  0.00    +0.161 C 
ATOM     18  O   UNL     1      -3.008   0.787  23.359  0.00  0.00    -0.350 OA
ATOM     19  C   UNL     1      -3.045   0.429  24.101  0.00  0.00    +0.169 C 
ATOM     30  C   UNL     1      -2.886   1.005  24.670  0.00  0.00    +0.198 C 
ATOM     31  O   UNL     1      -2.866   0.888  25.486  0.00  0.00    -0.219 OA
ENDROOT
BRANCH  16   8
ATOM      8  N   UNL     1      -2.571   2.441  24.636  0.00  0.00    -0.257 NA
BRANCH   8   7
ATOM      7  C   UNL     1      -1.963   2.486  25.191  0.00  0.00    +0.137 C 
BRANCH   7   6
ATOM      1  C   UNL     1      -0.505   2.582  26.234  0.00  0.00    +0.132 C 
ATOM      2  N   UNL     1      -0.574   2.880  25.467  0.00  0.00    -0.311 N 
ATOM      3  C   UNL     1       0.016   3.274  25.045  0.00  0.00    +0.098 A 
ATOM      4  C   UNL     1      -0.290   3.473  24.306  0.00  0.00    +0.119 A 
ATOM      5  N   UNL     1      -1.068   3.202  24.271  0.00  0.00    -0.228 NA
ATOM      6  C   UNL     1      -1.244   2.836  24.988  0.00  0.00    +0.137 A 
ENDBRANCH   7   6
ENDBRANCH   8   7
BRANCH   8   9
ATOM      9  C   UNL     1      -3.000   3.117  24.439  0.00  0.00    +0.137 C 
BRANCH   9  10
ATOM     10  C   UNL     1      -3.622   3.367  24.920  0.00  0.00    +0.137 A 
ATOM     11  N   UNL     1      -3.725   3.178  25.716  0.00  0.00    -0.228 NA
ATOM     12  C   UNL     1      -4.416   3.544  25.977  0.00  0.00    +0.119 A 
ATOM     13  C   UNL     1      -4.741   3.959  25.343  0.00  0.00    +0.098 A 
ATOM     14  N   UNL     1      -4.250   3.850  24.689  0.00  0.00    -0.311 N 
ATOM     15  C   UNL     1      -4.366   4.167  23.936  0.00  0.00    +0.132 C 
ENDBRANCH   9  10
ENDBRANCH   8   9
ENDBRANCH  16   8
BRANCH  19  20
ATOM     20  C   UNL     1      -3.212  -0.365  24.248  0.00  0.00    +0.149 C 
BRANCH  20  21
ATOM     21  N   UNL     1      -3.949  -0.676  24.045  0.00  0.00    -0.186 NA
ATOM     22  C   UNL     1      -4.068  -1.492  24.053  0.00  0.00    +0.323 C 
ATOM     23  O   UNL     1      -4.805  -1.803  23.850  0.00  0.00    -0.251 OA
ATOM     24  N   UNL     1      -3.451  -1.998  24.264  0.00  0.00    -0.258 N 
ATOM     25  C   UNL     1      -2.715  -1.686  24.467  0.00  0.00    +0.127 C 
ATOM     26  C   UNL     1      -2.097  -2.192  24.678  0.00  0.00    +0.164 C 
ATOM     27  O   UNL     1      -2.217  -3.008  24.685  0.00  0.00    -0.350 OA
ATOM     28  C   UNL     1      -2.953  -3.319  24.482  0.00  0.00    +0.164 C 
ATOM     29  C   UNL     1      -3.571  -2.814  24.272  0.00  0.00    +0.127 C 
ENDBRANCH  20  21
ENDBRANCH  19  20
TORSDOF 7
ENDMDL
MODEL 3
REMARK VINA RESULT:      -7.9     15.182     17.699
REMARK  Name = 
REMARK  7 active torsions:
REMARK  status: ('A' for Active; 'I' for Inactive)
REMARK    1  A    between atoms: C_6  and  C_7
REMARK    2  A    between atoms: C_7  and  N_8
REMARK    3  A    between atoms: N_8  and  C_9
REMARK    4  A    between atoms: N_8  and  C_16
REMARK    5  A    between atoms: C_9  and  C_10
REMARK    6  A    between atoms: C_19  and  C_20
REMARK    7  A    between atoms: C_20  and  N_21
REMARK                            x       y       z     vdW  Elec       q    Type
REMARK                         _______ _______ _______ _____ _____    ______ ____
ROOT
ATOM     16  C   UNL     1      -2.746   1.717  24.275  0.00  0.00    +0.121 C 
ATOM     17  C   UNL     1      -2.816   1.578  23.465  0.00  0.00    +0.161 C 
ATOM     18  O   UNL     1      -3.000   0.782  23.357  0.00  0.00    -0.350 OA
ATOM     19  C   UNL     1      -3.043   0.427  24.101  0.00  0.00    +0.169 C 
ATOM     30  C   UNL     1      -2.886   1.006  24.668  0.00  0.00    +0.198 C 
ATOM     31  O   UNL     1      -2.872   0.892  25.485  0.00  0.00    -0.219 OA
ENDROOT
BRANCH  16   8
ATOM      8  N   UNL     1      -2.567   2.440  24.630  0.00  0.00    -0.257 NA
BRANCH   8   7
ATOM      7  C   UNL     1      -2.995   3.116  24.429  0.00  0.00    +0.137 C 
BRANCH   7   6
ATOM      1  C   UNL     1      -4.364   4.161  23.923  0.00  0.00    +0.132 C 
ATOM      2  N   UNL     1      -4.245   3.850  24.677  0.00  0.00    -0.311 N 
ATOM      3  C   UNL     1      -4.734   3.965  25.332  0.00  0.00    +0.098 A 
ATOM      4  C   UNL     1      -4.407   3.555  25.969  0.00  0.00    +0.119 A 
ATOM      5  N   UNL     1      -3.716   3.187  25.708  0.00  0.00    -0.228 NA
ATOM      6  C   UNL     1      -3.616   3.369  24.910  0.00  0.00    +0.137 A 
ENDBRANCH   7   6
ENDBRANCH   8   7
BRANCH   8   9
ATOM      9  C   UNL     1      -1.960   2.488  25.186  0.00  0.00    +0.137 C 
BRANCH   9  10
ATOM     10  C   UNL     1      -1.239   2.833  24.982  0.00  0.00    +0.137 A 
ATOM     11  N   UNL     1      -1.062   3.198  24.264  0.00  0.00    -0.228 NA
ATOM     12  C   UNL     1      -0.283   3.464  24.298  0.00  0.00    +0.119 A 
ATOM     13  C   UNL     1       0.023   3.264  25.038  0.00  0.00    +0.098 A 
ATOM     14  N   UNL     1      -0.567   2.874  25.461  0.00  0.00    -0.311 N 
ATOM     15  C   UNL     1      -0.500   2.576  26.227  0.00  0.00    +0.132 C 
ENDBRANCH   9  10
ENDBRANCH   8   9
ENDBRANCH  16   8
BRANCH  19  20
ATOM     20  C   UNL     1      -3.213  -0.365  24.250  0.00  0.00    +0.149 C 
BRANCH  20  21
ATOM     21  N   UNL     1      -3.952  -0.673  24.049  0.00  0.00    -0.186 NA
ATOM     22  C   UNL     1      -4.074  -1.489  24.056  0.00  0.00    +0.323 C 
ATOM     23  O   UNL     1      -4.813  -1.797  23.855  0.00  0.00    -0.251 OA
ATOM     24  N   UNL     1      -3.458  -1.998  24.264  0.00  0.00    -0.258 N 
ATOM     25  C   UNL     1      -2.720  -1.689  24.465  0.00  0.00    +0.127 C 
ATOM     26  C   UNL     1      -2.103  -2.197  24.672  0.00  0.00    +0.164 C 
ATOM     27  O   UNL     1      -2.226  -3.013  24.679  0.00  0.00    -0.350 OA
ATOM     28  C   UNL     1      -2.964  -3.321  24.478  0.00  0.00    +0.164 C 
ATOM     29  C   UNL     1      -3.580  -2.813  24.270  0.00  0.00    +0.127 C 
ENDBRANCH  20  21
ENDBRANCH  19  20
TORSDOF 7
ENDMDL
MODEL 4
REMARK VINA RESULT:      -7.9      0.236      2.532
REMARK  Name = 
REMARK  7 active torsions:
REMARK  status: ('A' for Active; 'I' for Inactive)
REMARK    1  A    between atoms: C_6  and  C_7
REMARK    2  A    between atoms: C_7  and  N_8
REMARK    3  A    between atoms: N_8  and  C_9
REMARK    4  A    between atoms: N_8  and  C_16
REMARK    5  A    between atoms: C_9  and  C_10
REMARK    6  A    between atoms: C_19  and  C_20
REMARK    7  A    between atoms: C_20  and  N_21
REMARK                            x       y       z     vdW  Elec       q    Type
REMARK                         _______ _______ _______ _____ _____    ______ ____
ROOT
ATOM     16  C   UNL     1      12.391   8.070  20.151  0.00  0.00    +0.121 C 
ATOM     17  C   UNL     1      12.153   8.859  20.121  0.00  0.00    +0.161 C 
ATOM     18  O   UNL     1      12.013   9.055  19.333  0.00  0.00    -0.350 OA
ATOM     19  C   UNL     1      12.164   8.386  18.873  0.00  0.00    +0.169 C 
ATOM     30  C   UNL     1      12.397   7.777  19.380  0.00  0.00    +0.198 C 
ATOM     31  O   UNL     1      12.601   7.010  19.153  0.00  0.00    -0.219 OA
ENDROOT
BRANCH  16   8
ATOM      8  N   UNL     1      12.587   7.647  20.832  0.00  0.00    -0.257 NA
BRANCH   8   7
ATOM      7  C   UNL     1      13.295   7.224  20.864  0.00  0.00    +0.137 C 
BRANCH   7   6
ATOM      1  C   UNL     1      14.958   6.550  20.886  0.00  0.00    +0.132 C 
ATOM      2  N   UNL     1      14.695   7.206  21.312  0.00  0.00    -0.311 N 
ATOM      3  C   UNL     1      15.150   7.667  21.823  0.00  0.00    +0.098 A 
ATOM      4  C   UNL     1      14.667   8.261  22.128  0.00  0.00    +0.119 A 
ATOM      5  N   UNL     1      13.913   8.168  21.806  0.00  0.00    -0.228 NA
ATOM      6  C   UNL     1      13.931   7.516  21.302  0.00  0.00    +0.137 A 
ENDBRANCH   7   6
ENDBRANCH   8   7
BRANCH   8   9
ATOM      9  C   UNL     1      12.077   7.647  21.479  0.00  0.00    +0.137 C 
BRANCH   9  10
ATOM     10  C   UNL     1      11.565   7.012  21.602  0.00  0.00    +0.137 A 
ATOM     11  N   UNL     1      11.687   6.236  21.350  0.00  0.00    -0.228 NA
ATOM     12  C   UNL     1      11.039   5.786  21.590  0.00  0.00    +0.119 A 
ATOM     13  C   UNL     1      10.517   6.283  21.990  0.00  0.00    +0.098 A 
ATOM     14  N   UNL     1      10.842   7.041  21.998  0.00  0.00    -0.311 N 
ATOM     15  C   UNL     1      10.504   7.711  22.341  0.00  0.00    +0.132 C 
ENDBRANCH   9  10
ENDBRANCH   8   9
ENDBRANCH  16   8
BRANCH  19  20
ATOM     20  C   UNL     1      12.093   8.335  18.054  0.00  0.00    +0.149 C 
BRANCH  20  21
ATOM     21  N   UNL     1      11.364   8.473  17.693  0.00  0.00    -0.186 NA
ATOM     22  C   UNL     1      11.332   8.696  16.900  0.00  0.00    +0.323 C 
ATOM     23  O   UNL     1      10.603   8.834  16.539  0.00  0.00    -0.251 OA
ATOM     24  N   UNL     1      12.030   8.781  16.466  0.00  0.00    -0.258 N 
ATOM     25  C   UNL     1      12.758   8.643  16.827  0.00  0.00    +0.127 C 
ATOM     26  C   UNL     1      13.455   8.728  16.394  0.00  0.00    +0.164 C 
ATOM     27  O   UNL     1      13.422   8.951  15.600  0.00  0.00    -0.350 OA
ATOM     28  C   UNL     1      12.694   9.089  15.239  0.00  0.00    +0.164 C 
ATOM     29  C   UNL     1      11.997   9.004  15.673  0.00  0.00    +0.127 C 
ENDBRANCH  20  21
ENDBRANCH  19  20
TORSDOF 7
ENDMDL
MODEL 5
REMARK VINA RESULT:      -7.3     14.996     17.580
REMARK  Name = 
REMARK  7 active torsions:
REMARK  status: ('A' for Active; 'I' for Inactive)
REMARK    1  A    between atoms: C_6  and  C_7
REMARK    2  A    between atoms: C_7  and  N_8
REMARK    3  A    between atoms: N_8  and  C_9
REMARK    4  A    between atoms: N_8  and  C_16
REMARK    5  A    between atoms: C_9  and  C_10
REMARK    6  A    between atoms: C_19  and  C_20
REMARK    7  A    between atoms: C_20  and  N_21
REMARK                            x       y       z     vdW  Elec       q    Type
REMARK                         _______ _______ _______ _____ _____    ______ ____
ROOT
ATOM     16  C   UNL     1      -2.271   0.623  24.137  0.00  0.00    +0.121 C 
ATOM     17  C   UNL     1      -2.676   0.678  23.421  0.00  0.00    +0.161 C 
ATOM     18  O   UNL     1      -3.372   1.099  23.553  0.00  0.00    -0.350 OA
ATOM     19  C   UNL     1      -3.398   1.306  24.351  0.00  0.00    +0.169 C 
ATOM     30  C   UNL     1      -2.717   1.011  24.712  0.00  0.00    +0.198 C 
ATOM     31  O   UNL     1      -2.518   1.091  25.509  0.00  0.00    -0.219 OA
ENDROOT
BRANCH  16   8
ATOM      8  N   UNL     1      -1.547   0.246  24.259  0.00  0.00    -0.257 NA
BRANCH   8   7
ATOM      7  C   UNL     1      -0.924   0.371  23.732  0.00  0.00    +0.137 C 
BRANCH   7   6
ATOM      1  C   UNL     1       0.713   0.382  22.996  0.00  0.00    +0.132 C 
ATOM      2  N   UNL     1       0.451   0.877  23.602  0.00  0.00    -0.311 N 
ATOM      3  C   UNL     1       0.895   1.463  23.977  0.00  0.00    +0.098 A 
ATOM      4  C   UNL     1       0.417   1.820  24.546  0.00  0.00    +0.119 A 
ATOM      5  N   UNL     1      -0.322   1.455  24.523  0.00  0.00    -0.228 NA
ATOM      6  C   UNL     1      -0.302   0.872  23.941  0.00  0.00    +0.137 A 
ENDBRANCH   7   6
ENDBRANCH   8   7
BRANCH   8   9
ATOM      9  C   UNL     1      -1.445  -0.255  24.906  0.00  0.00    +0.137 C 
BRANCH   9  10
ATOM     10  C   UNL     1      -1.468  -1.073  24.802  0.00  0.00    +0.137 A 
ATOM     11  N   UNL     1      -1.802  -1.471  24.161  0.00  0.00    -0.228 NA
ATOM     12  C   UNL     1      -1.702  -2.280  24.284  0.00  0.00    +0.119 A 
ATOM     13  C   UNL     1      -1.306  -2.383  25.000  0.00  0.00    +0.098 A 
ATOM     14  N   UNL     1      -1.161  -1.637  25.321  0.00  0.00    -0.311 N 
ATOM     15  C   UNL     1      -0.778  -1.481  26.034  0.00  0.00    +0.132 C 
ENDBRANCH   9  10
ENDBRANCH   8   9
ENDBRANCH  16   8
BRANCH  19  20
ATOM     20  C   UNL     1      -3.999   1.731  24.722  0.00  0.00    +0.149 C 
BRANCH  20  21
ATOM     21  N   UNL     1      -4.761   1.418  24.764  0.00  0.00    -0.186 NA
ATOM     22  C   UNL     1      -5.389   1.893  25.008  0.00  0.00    +0.323 C 
ATOM     23  O   UNL     1      -6.152   1.580  25.050  0.00  0.00    -0.251 OA
ATOM     24  N   UNL     1      -5.256   2.683  25.210  0.00  0.00    -0.258 N 
ATOM     25  C   UNL     1      -4.494   2.995  25.168  0.00  0.00    +0.127 C 
ATOM     26  C   UNL     1      -4.361   3.784  25.370  0.00  0.00    +0.164 C 
ATOM     27  O   UNL     1      -4.990   4.259  25.614  0.00  0.00    -0.350 OA
ATOM     28  C   UNL     1      -5.752   3.946  25.657  0.00  0.00    +0.164 C 
ATOM     29  C   UNL     1      -5.885   3.157  25.454  0.00  0.00    +0.127 C 
ENDBRANCH  20  21
ENDBRANCH  19  20
TORSDOF 7
ENDMDL
MODEL 6
REMARK VINA RESULT:      -7.2     14.997     17.459
REMARK  Name = 
REMARK  7 active torsions:
REMARK  status: ('A' for Active; 'I' for Inactive)
REMARK    1  A    between atoms: C_6  and  C_7
REMARK    2  A    between atoms: C_7  and  N_8
REMARK    3  A    between atoms: N_8  and  C_9
REMARK    4  A    between atoms: N_8  and  C_16
REMARK    5  A    between atoms: C_9  and  C_10
REMARK    6  A    between atoms: C_19  and  C_20
REMARK    7  A    between atoms: C_20  and  N_21
REMARK                            x       y       z     vdW  Elec       q    Type
REMARK                         _______ _______ _______ _____ _____    ______ ____
ROOT
ATOM     16  C   UNL     1      -2.271   0.603  24.153  0.00  0.00    +0.121 C 
ATOM     17  C   UNL     1      -2.686   0.656  23.442  0.00  0.00    +0.161 C 
ATOM     18  O   UNL     1      -3.379   1.080  23.581  0.00  0.00    -0.350 OA
ATOM     19  C   UNL     1      -3.394   1.290  24.379  0.00  0.00    +0.169 C 
ATOM     30  C   UNL     1      -2.709   0.995  24.732  0.00  0.00    +0.198 C 
ATOM     31  O   UNL     1      -2.499   1.078  25.526  0.00  0.00    -0.219 OA
ENDROOT
BRANCH  16   8
ATOM      8  N   UNL     1      -1.547   0.225  24.266  0.00  0.00    -0.257 NA
BRANCH   8   7
ATOM      7  C   UNL     1      -1.441  -0.277  24.912  0.00  0.00    +0.137 C 
BRANCH   7   6
ATOM      1  C   UNL     1      -0.750  -1.507  26.022  0.00  0.00    +0.132 C 
ATOM      2  N   UNL     1      -1.151  -1.661  25.317  0.00  0.00    -0.311 N 
ATOM      3  C   UNL     1      -1.305  -2.407  24.999  0.00  0.00    +0.098 A 
ATOM      4  C   UNL     1      -1.718  -2.302  24.293  0.00  0.00    +0.119 A 
ATOM      5  N   UNL     1      -1.819  -1.492  24.175  0.00  0.00    -0.228 NA
ATOM      6  C   UNL     1      -1.469  -1.096  24.807  0.00  0.00    +0.137 A 
ENDBRANCH   7   6
ENDBRANCH   8   7
BRANCH   8   9
ATOM      9  C   UNL     1      -0.929   0.349  23.735  0.00  0.00    +0.137 C 
BRANCH   9  10
ATOM     10  C   UNL     1      -0.309   0.856  23.933  0.00  0.00    +0.137 A 
ATOM     11  N   UNL     1      -0.330   1.445  24.510  0.00  0.00    -0.228 NA
ATOM     12  C   UNL     1       0.406   1.816  24.523  0.00  0.00    +0.119 A 
ATOM     13  C   UNL     1       0.883   1.456  23.955  0.00  0.00    +0.098 A 
ATOM     14  N   UNL     1       0.442   0.863  23.590  0.00  0.00    -0.311 N 
ATOM     15  C   UNL     1       0.703   0.363  22.988  0.00  0.00    +0.132 C 
ENDBRANCH   9  10
ENDBRANCH   8   9
ENDBRANCH  16   8
BRANCH  19  20
ATOM     20  C   UNL     1      -3.988   1.719  24.756  0.00  0.00    +0.149 C 
BRANCH  20  21
ATOM     21  N   UNL     1      -4.755   1.417  24.792  0.00  0.00    -0.186 NA
ATOM     22  C   UNL     1      -5.378   1.902  25.031  0.00  0.00    +0.323 C 
ATOM     23  O   UNL     1      -6.145   1.599  25.067  0.00  0.00    -0.251 OA
ATOM     24  N   UNL     1      -5.235   2.689  25.233  0.00  0.00    -0.258 N 
ATOM     25  C   UNL     1      -4.469   2.991  25.196  0.00  0.00    +0.127 C 
ATOM     26  C   UNL     1      -4.326   3.778  25.398  0.00  0.00    +0.164 C 
ATOM     27  O   UNL     1      -4.949   4.262  25.636  0.00  0.00    -0.350 OA
ATOM     28  C   UNL     1      -5.716   3.961  25.673  0.00  0.00    +0.164 C 
ATOM     29  C   UNL     1      -5.859   3.174  25.471  0.00  0.00    +0.127 C 
ENDBRANCH  20  21
ENDBRANCH  19  20
TORSDOF 7
ENDMDL
MODEL 7
REMARK VINA RESULT:      -7.2     14.672     17.235
REMARK  Name = 
REMARK  7 active torsions:
REMARK  status: ('A' for Active; 'I' for Inactive)
REMARK    1  A    between atoms: C_6  and  C_7
REMARK    2  A    between atoms: C_7  and  N_8
REMARK    3  A    between atoms: N_8  and  C_9
REMARK    4  A    between atoms: N_8  and  C_16
REMARK    5  A    between atoms: C_9  and  C_10
REMARK    6  A    between atoms: C_19  and  C_20
REMARK    7  A    between atoms: C_20  and  N_21
REMARK                            x       y       z     vdW  Elec       q    Type
REMARK                         _______ _______ _______ _____ _____    ______ ____
ROOT
ATOM     16  C   UNL     1      -2.542   0.573  24.812  0.00  0.00    +0.121 C 
ATOM     17  C   UNL     1      -2.128   0.598  25.525  0.00  0.00    +0.161 C 
ATOM     18  O   UNL     1      -1.333   0.731  25.354  0.00  0.00    -0.350 OA
ATOM     19  C   UNL     1      -1.254   0.788  24.535  0.00  0.00    +0.169 C 
ATOM     30  C   UNL     1      -2.002   0.690  24.200  0.00  0.00    +0.198 C 
ATOM     31  O   UNL     1      -2.178   0.708  23.394  0.00  0.00    -0.219 OA
ENDROOT
BRANCH  16   8
ATOM      8  N   UNL     1      -3.354   0.452  24.726  0.00  0.00    -0.257 NA
BRANCH   8   7
ATOM      7  C   UNL     1      -3.712  -0.204  25.074  0.00  0.00    +0.137 C 
BRANCH   7   6
ATOM      1  C   UNL     1      -3.617  -1.901  25.651  0.00  0.00    +0.132 C 
ATOM      2  N   UNL     1      -3.821  -1.658  24.889  0.00  0.00    -0.311 N 
ATOM      3  C   UNL     1      -4.017  -2.154  24.258  0.00  0.00    +0.098 A 
ATOM      4  C   UNL     1      -4.181  -1.679  23.604  0.00  0.00    +0.119 A 
ATOM      5  N   UNL     1      -4.087  -0.891  23.830  0.00  0.00    -0.228 NA
ATOM      6  C   UNL     1      -3.865  -0.879  24.624  0.00  0.00    +0.137 A 
ENDBRANCH   7   6
ENDBRANCH   8   7
BRANCH   8   9
ATOM      9  C   UNL     1      -3.807   0.987  24.291  0.00  0.00    +0.137 C 
BRANCH   9  10
ATOM     10  C   UNL     1      -4.312   1.511  24.680  0.00  0.00    +0.137 A 
ATOM     11  N   UNL     1      -4.639   1.404  25.429  0.00  0.00    -0.228 NA
ATOM     12  C   UNL     1      -5.108   2.060  25.600  0.00  0.00    +0.119 A 
ATOM     13  C   UNL     1      -5.071   2.574  24.955  0.00  0.00    +0.098 A 
ATOM     14  N   UNL     1      -4.579   2.235  24.386  0.00  0.00    -0.311 N 
ATOM     15  C   UNL     1      -4.388   2.561  23.653  0.00  0.00    +0.132 C 
ENDBRANCH   9  10
ENDBRANCH   8   9
ENDBRANCH  16   8
BRANCH  19  20
ATOM     20  C   UNL     1      -0.552   0.919  24.123  0.00  0.00    +0.149 C 
BRANCH  20  21
ATOM     21  N   UNL     1      -0.081   1.571  24.309  0.00  0.00    -0.186 NA
ATOM     22  C   UNL     1       0.700   1.604  24.045  0.00  0.00    +0.323 C 
ATOM     23  O   UNL     1       1.171   2.256  24.231  0.00  0.00    -0.251 OA
ATOM     24  N   UNL     1       1.010   0.985  23.595  0.00  0.00    -0.258 N 
ATOM     25  C   UNL     1       0.539   0.334  23.410  0.00  0.00    +0.127 C 
ATOM     26  C   UNL     1       0.850  -0.284  22.960  0.00  0.00    +0.164 C 
ATOM     27  O   UNL     1       1.630  -0.251  22.696  0.00  0.00    -0.350 OA
ATOM     28  C   UNL     1       2.101   0.400  22.881  0.00  0.00    +0.164 C 
ATOM     29  C   UNL     1       1.791   1.019  23.331  0.00  0.00    +0.127 C 
ENDBRANCH  20  21
ENDBRANCH  19  20
TORSDOF 7
ENDMDL
MODEL 8
REMARK VINA RESULT:      -7.1     14.619     17.200
REMARK  Name = 
REMARK  7 active torsions:
REMARK  status: ('A' for Active; 'I' for Inactive)
REMARK    1  A    between atoms: C_6  and  C_7
REMARK    2  A    between atoms: C_7  and  N_8
REMARK    3  A    between atoms: N_8  and  C_9
REMARK    4  A    between atoms: N_8  and  C_16
REMARK    5  A    between atoms: C_9  and  C_10
REMARK    6  A    between atoms: C_19  and  C_20
REMARK    7  A    between atoms: C_20  and  N_21
REMARK                            x       y       z     vdW  Elec       q    Type
REMARK                         _______ _______ _______ _____ _____    ______ ____
ROOT
ATOM     16  C   UNL     1      -2.500   0.632  24.798  0.00  0.00    +0.121 C 
ATOM     17  C   UNL     1      -2.081   0.657  25.507  0.00  0.00    +0.161 C 
ATOM     18  O   UNL     1      -1.284   0.773  25.329  0.00  0.00    -0.350 OA
ATOM     19  C   UNL     1      -1.211   0.820  24.508  0.00  0.00    +0.169 C 
ATOM     30  C   UNL     1      -1.963   0.733  24.180  0.00  0.00    +0.198 C 
ATOM     31  O   UNL     1      -2.144   0.744  23.375  0.00  0.00    -0.219 OA
ENDROOT
BRANCH  16   8
ATOM      8  N   UNL     1      -3.315   0.525  24.718  0.00  0.00    -0.257 NA
BRANCH   8   7
ATOM      7  C   UNL     1      -3.759   1.059  24.274  0.00  0.00    +0.137 C 
BRANCH   7   6
ATOM      1  C   UNL     1      -4.326   2.623  23.601  0.00  0.00    +0.132 C 
ATOM      2  N   UNL     1      -4.515   2.318  24.343  0.00  0.00    -0.311 N 
ATOM      3  C   UNL     1      -4.998   2.679  24.907  0.00  0.00    +0.098 A 
ATOM      4  C   UNL     1      -5.036   2.182  25.565  0.00  0.00    +0.119 A 
ATOM      5  N   UNL     1      -4.576   1.515  25.407  0.00  0.00    -0.228 NA
ATOM      6  C   UNL     1      -4.255   1.599  24.653  0.00  0.00    +0.137 A 
ENDBRANCH   7   6
ENDBRANCH   8   7
BRANCH   8   9
ATOM      9  C   UNL     1      -3.684  -0.116  25.082  0.00  0.00    +0.137 C 
BRANCH   9  10
ATOM     10  C   UNL     1      -3.848  -0.799  24.650  0.00  0.00    +0.137 A 
ATOM     11  N   UNL     1      -4.071  -0.828  23.856  0.00  0.00    -0.228 NA
ATOM     12  C   UNL     1      -4.178  -1.619  23.650  0.00  0.00    +0.119 A 
ATOM     13  C   UNL     1      -4.022  -2.080  24.317  0.00  0.00    +0.098 A 
ATOM     14  N   UNL     1      -3.817  -1.573  24.935  0.00  0.00    -0.311 N 
ATOM     15  C   UNL     1      -3.617  -1.799  25.702  0.00  0.00    +0.132 C 
ENDBRANCH   9  10
ENDBRANCH   8   9
ENDBRANCH  16   8
BRANCH  19  20
ATOM     20  C   UNL     1      -0.509   0.935  24.091  0.00  0.00    +0.149 C 
BRANCH  20  21
ATOM     21  N   UNL     1      -0.022   1.576  24.271  0.00  0.00    -0.186 NA
ATOM     22  C   UNL     1       0.758   1.588  24.003  0.00  0.00    +0.323 C 
ATOM     23  O   UNL     1       1.245   2.230  24.183  0.00  0.00    -0.251 OA
ATOM     24  N   UNL     1       1.052   0.960  23.556  0.00  0.00    -0.258 N 
ATOM     25  C   UNL     1       0.565   0.319  23.377  0.00  0.00    +0.127 C 
ATOM     26  C   UNL     1       0.858  -0.309  22.929  0.00  0.00    +0.164 C 
ATOM     27  O   UNL     1       1.638  -0.296  22.663  0.00  0.00    -0.350 OA
ATOM     28  C   UNL     1       2.126   0.344  22.842  0.00  0.00    +0.164 C 
ATOM     29  C   UNL     1       1.832   0.973  23.289  0.00  0.00    +0.127 C 
ENDBRANCH  20  21
ENDBRANCH  19  20
TORSDOF 7
ENDMDL
MODEL 9
REMARK VINA RESULT:      -7.0     15.362     17.920
REMARK  Name = 
REMARK  7 active torsions:
REMARK  status: ('A' for Active; 'I' for Inactive)
REMARK    1  A    between atoms: C_6  and  C_7
REMARK    2  A    between atoms: C_7  and  N_8
REMARK    3  A    between atoms: N_8  and  C_9
REMARK    4  A    between atoms: N_8  and  C_16
REMARK    5  A    between atoms: C_9  and  C_10
REMARK    6  A    between atoms: C_19  and  C_20
REMARK    7  A    between atoms: C_20  and  N_21
REMARK                            x       y       z     vdW  Elec       q    Type
REMARK                         _______ _______ _______ _____ _____    ______ ____
ROOT
ATOM     16  C   UNL     1      -3.556   1.311  24.453  0.00  0.00    +0.121 C 
ATOM     17  C   UNL     1      -3.390   1.448  23.657  0.00  0.00    +0.161 C 
ATOM     18  O   UNL     1      -2.758   1.975  23.615  0.00  0.00    -0.350 OA
ATOM     19  C   UNL     1      -2.531   2.165  24.385  0.00  0.00    +0.169 C 
ATOM     30  C   UNL     1      -3.025   1.754  24.903  0.00  0.00    +0.198 C 
ATOM     31  O   UNL     1      -2.993   1.782  25.728  0.00  0.00    -0.219 OA
ENDROOT
BRANCH  16   8
ATOM      8  N   UNL     1      -4.148   0.818  24.749  0.00  0.00    -0.257 NA
BRANCH   8   7
ATOM      7  C   UNL     1      -4.242   0.058  24.442  0.00  0.00    +0.137 C 
BRANCH   7   6
ATOM      1  C   UNL     1      -4.164  -1.632  23.843  0.00  0.00    +0.132 C 
ATOM      2  N   UNL     1      -3.927  -1.371  24.588  0.00  0.00    -0.311 N 
ATOM      3  C   UNL     1      -3.613  -1.841  25.190  0.00  0.00    +0.098 A 
ATOM      4  C   UNL     1      -3.455  -1.354  25.836  0.00  0.00    +0.119 A 
ATOM      5  N   UNL     1      -3.671  -0.584  25.635  0.00  0.00    -0.228 NA
ATOM      6  C   UNL     1      -3.963  -0.594  24.864  0.00  0.00    +0.137 A 
ENDBRANCH   7   6
ENDBRANCH   8   7
BRANCH   8   9
ATOM      9  C   UNL     1      -4.645   1.085  25.349  0.00  0.00    +0.137 C 
BRANCH   9  10
ATOM     10  C   UNL     1      -5.396   1.376  25.166  0.00  0.00    +0.137 A 
ATOM     11  N   UNL     1      -5.772   1.318  24.434  0.00  0.00    -0.228 NA
ATOM     12  C   UNL     1      -6.509   1.681  24.498  0.00  0.00    +0.119 A 
ATOM     13  C   UNL     1      -6.589   1.964  25.269  0.00  0.00    +0.098 A 
ATOM     14  N   UNL     1      -5.901   1.775  25.682  0.00  0.00    -0.311 N 
ATOM     15  C   UNL     1      -5.745   1.953  26.472  0.00  0.00    +0.132 C 
ENDBRANCH   9  10
ENDBRANCH   8   9
ENDBRANCH  16   8
BRANCH  19  20
ATOM     20  C   UNL     1      -1.920   2.675  24.599  0.00  0.00    +0.149 C 
BRANCH  20  21
ATOM     21  N   UNL     1      -1.168   2.577  24.272  0.00  0.00    -0.186 NA
ATOM     22  C   UNL     1      -0.638   3.210  24.263  0.00  0.00    +0.323 C 
ATOM     23  O   UNL     1       0.113   3.112  23.936  0.00  0.00    -0.251 OA
ATOM     24  N   UNL     1      -0.859   3.939  24.580  0.00  0.00    -0.258 N 
ATOM     25  C   UNL     1      -1.610   4.035  24.907  0.00  0.00    +0.127 C 
ATOM     26  C   UNL     1      -1.831   4.765  25.224  0.00  0.00    +0.164 C 
ATOM     27  O   UNL     1      -1.300   5.396  25.214  0.00  0.00    -0.350 OA
ATOM     28  C   UNL     1      -0.549   5.299  24.888  0.00  0.00    +0.164 C 
ATOM     29  C   UNL     1      -0.328   4.570  24.570  0.00  0.00    +0.127 C 
ENDBRANCH  20  21
ENDBRANCH  19  20
TORSDOF 7
ENDMDL
MODEL 10
REMARK VINA RESULT:      -7.0     15.362     17.854
REMARK  Name = 
REMARK  7 active torsions:
REMARK  status: ('A' for Active; 'I' for Inactive)
REMARK    1  A    between atoms: C_6  and  C_7
REMARK    2  A    between atoms: C_7  and  N_8
REMARK    3  A    between atoms: N_8  and  C_9
REMARK    4  A    between atoms: N_8  and  C_16
REMARK    5  A    between atoms: C_9  and  C_10
REMARK    6  A    between atoms: C_19  and  C_20
REMARK    7  A    between atoms: C_20  and  N_21
REMARK                            x       y       z     vdW  Elec       q    Type
REMARK                         _______ _______ _______ _____ _____    ______ ____
ROOT
ATOM     16  C   UNL     1      -3.559   1.317  24.454  0.00  0.00    +0.121 C 
ATOM     17  C   UNL     1      -3.393   1.451  23.658  0.00  0.00    +0.161 C 
ATOM     18  O   UNL     1      -2.762   1.978  23.613  0.00  0.00    -0.350 OA
ATOM     19  C   UNL     1      -2.536   2.172  24.383  0.00  0.00    +0.169 C 
ATOM     30  C   UNL     1      -3.030   1.762  24.903  0.00  0.00    +0.198 C 
ATOM     31  O   UNL     1      -2.998   1.794  25.727  0.00  0.00    -0.219 OA
ENDROOT
BRANCH  16   8
ATOM      8  N   UNL     1      -4.151   0.824  24.751  0.00  0.00    -0.257 NA
BRANCH   8   7
ATOM      7  C   UNL     1      -4.650   1.094  25.350  0.00  0.00    +0.137 C 
BRANCH   7   6
ATOM      1  C   UNL     1      -5.752   1.972  26.462  0.00  0.00    +0.132 C 
ATOM      2  N   UNL     1      -5.908   1.783  25.674  0.00  0.00    -0.311 N 
ATOM      3  C   UNL     1      -6.598   1.965  25.260  0.00  0.00    +0.098 A 
ATOM      4  C   UNL     1      -6.517   1.674  24.492  0.00  0.00    +0.119 A 
ATOM      5  N   UNL     1      -5.778   1.313  24.433  0.00  0.00    -0.228 NA
ATOM      6  C   UNL     1      -5.402   1.380  25.163  0.00  0.00    +0.137 A 
ENDBRANCH   7   6
ENDBRANCH   8   7
BRANCH   8   9
ATOM      9  C   UNL     1      -4.244   0.063  24.450  0.00  0.00    +0.137 C 
BRANCH   9  10
ATOM     10  C   UNL     1      -3.965  -0.587  24.876  0.00  0.00    +0.137 A 
ATOM     11  N   UNL     1      -3.681  -0.573  25.650  0.00  0.00    -0.228 NA
ATOM     12  C   UNL     1      -3.462  -1.340  25.855  0.00  0.00    +0.119 A 
ATOM     13  C   UNL     1      -3.611  -1.830  25.208  0.00  0.00    +0.098 A 
ATOM     14  N   UNL     1      -3.922  -1.365  24.602  0.00  0.00    -0.311 N 
ATOM     15  C   UNL     1      -4.149  -1.629  23.855  0.00  0.00    +0.132 C 
ENDBRANCH   9  10
ENDBRANCH   8   9
ENDBRANCH  16   8
BRANCH  19  20
ATOM     20  C   UNL     1      -1.926   2.683  24.595  0.00  0.00    +0.149 C 
BRANCH  20  21
ATOM     21  N   UNL     1      -1.170   2.578  24.279  0.00  0.00    -0.186 NA
ATOM     22  C   UNL     1      -0.635   3.205  24.274  0.00  0.00    +0.323 C 
ATOM     23  O   UNL     1       0.120   3.099  23.958  0.00  0.00    -0.251 OA
ATOM     24  N   UNL     1      -0.853   3.938  24.585  0.00  0.00    -0.258 N 
ATOM     25  C   UNL     1      -1.608   4.042  24.901  0.00  0.00    +0.127 C 
ATOM     26  C   UNL     1      -1.826   4.775  25.211  0.00  0.00    +0.164 C 
ATOM     27  O   UNL     1      -1.290   5.402  25.206  0.00  0.00    -0.350 OA
ATOM     28  C   UNL     1      -0.535   5.297  24.890  0.00  0.00    +0.164 C 
ATOM     29  C   UNL     1      -0.317   4.564  24.579  0.00  0.00    +0.127 C 
ENDBRANCH  20  21
ENDBRANCH  19  20
TORSDOF 7
ENDMDL
