MODEL 1
REMARK VINA RESULT:     -14.4      0.000      0.000
REMARK  Name = 
REMARK  3 active torsions:
REMARK  status: ('A' for Active; 'I' for Inactive)
REMARK    1  A    between atoms: S_2  and  C_3
REMARK    2  A    between atoms: C_3  and  C_4
REMARK    3  A    between atoms: C_13  and  C_20
REMARK                            x       y       z     vdW  Elec       q    Type
REMARK                         _______ _______ _______ _____ _____    ______ ____
ROOT
ATOM      4  C   UNL     1      -4.228   2.804  24.411  0.00  0.00    +0.237 C 
ATOM      5  O   UNL     1      -4.300   3.625  24.374  0.00  0.00    -0.274 OA
ATOM      6  N   UNL     1      -3.631   2.423  23.987  0.00  0.00    -0.278 N 
ATOM      7  C   UNL     1      -2.972   2.329  23.482  0.00  0.00    +0.095 C 
ATOM      8  C   UNL     1      -2.874   1.347  23.518  0.00  0.00    +0.043 C 
ATOM      9  C   UNL     1      -2.663   0.564  23.442  0.00  0.00    +0.011 C 
ATOM     10  C   UNL     1      -3.150   0.939  23.780  0.00  0.00    +0.058 C 
ATOM     11  C   UNL     1      -3.231   1.890  23.735  0.00  0.00    +0.099 C 
ATOM     12  C   UNL     1      -3.864   0.846  24.350  0.00  0.00    +0.041 A 
ATOM     13  C   UNL     1      -4.292   0.266  24.752  0.00  0.00    +0.012 A 
ATOM     14  C   UNL     1      -4.931   0.480  25.227  0.00  0.00    +0.006 A 
ATOM     15  C   UNL     1      -5.142   1.274  25.302  0.00  0.00    +0.061 A 
ATOM     16  C   UNL     1      -4.714   1.854  24.901  0.00  0.00    +0.261 A 
ATOM     17  O   UNL     1      -5.247   2.372  25.259  0.00  0.00    -0.267 OA
ATOM     18  N   UNL     1      -4.076   1.640  24.425  0.00  0.00    -0.299 N 
ATOM     19  C   UNL     1      -3.622   1.259  24.113  0.00  0.00    +0.110 C 
ENDROOT
BRANCH  13  20
ATOM     20  C   UNL     1      -4.081  -0.528  24.677  0.00  0.00    +0.001 A 
ATOM     21  C   UNL     1      -3.569  -0.872  25.225  0.00  0.00    +0.001 A 
ATOM     22  C   UNL     1      -3.358  -1.666  25.150  0.00  0.00    +0.011 A 
ATOM     23  C   UNL     1      -3.658  -2.116  24.528  0.00  0.00    +0.058 A 
ATOM     24 CL   UNL     1      -3.447  -2.910  24.453  0.00  0.00    -0.082 Cl
ATOM     25  C   UNL     1      -4.170  -1.773  23.980  0.00  0.00    +0.011 A 
ATOM     26  C   UNL     1      -4.381  -0.978  24.055  0.00  0.00    +0.001 A 
ENDBRANCH  13  20
BRANCH   4   3
ATOM      3  C   UNL     1      -4.752   2.364  24.872  0.00  0.00    +0.143 C 
BRANCH   3   2
ATOM      1  C   UNL     1      -5.342   3.335  25.738  0.00  0.00    +0.070 C 
ATOM      2  S   UNL     1      -5.422   2.724  25.191  0.00  0.00    -0.130 S 
ENDBRANCH   3   2
ENDBRANCH   4   3
TORSDOF 3
ENDMDL
MODEL 2
REMARK VINA RESULT:     -13.8      1.118      1.906
REMARK  Name = 
REMARK  3 active torsions:
REMARK  status: ('A' for Active; 'I' for Inactive)
REMARK    1  A    between atoms: S_2  and  C_3
REMARK    2  A    between atoms: C_3  and  C_4
REMARK    3  A    between atoms: C_13  and  C_20
REMARK                            x       y       z     vdW  Elec       q    Type
REMARK                         _______ _______ _______ _____ _____    ______ ____
ROOT
ATOM      4  C   UNL     1      -4.015   3.260  25.133  0.00  0.00    +0.237 C 
ATOM      5  O   UNL     1      -4.066   4.075  25.249  0.00  0.00    -0.274 OA
ATOM      6  N   UNL     1      -4.697   2.795  25.164  0.00  0.00    -0.278 N 
ATOM      7  C   UNL     1      -5.505   2.603  25.250  0.00  0.00    +0.095 C 
ATOM      8  C   UNL     1      -5.458   1.625  25.112  0.00  0.00    +0.043 C 
ATOM      9  C   UNL     1      -5.587   0.826  25.023  0.00  0.00    +0.011 C 
ATOM     10  C   UNL     1      -5.042   1.268  25.007  0.00  0.00    +0.058 C 
ATOM     11  C   UNL     1      -5.105   2.212  25.142  0.00  0.00    +0.099 C 
ATOM     12  C   UNL     1      -4.132   1.286  24.885  0.00  0.00    +0.041 A 
ATOM     13  C   UNL     1      -3.496   0.784  24.730  0.00  0.00    +0.012 A 
ATOM     14  C   UNL     1      -2.733   1.092  24.667  0.00  0.00    +0.006 A 
ATOM     15  C   UNL     1      -2.606   1.902  24.758  0.00  0.00    +0.061 A 
ATOM     16  C   UNL     1      -3.242   2.404  24.913  0.00  0.00    +0.261 A 
ATOM     17  O   UNL     1      -2.664   2.993  24.912  0.00  0.00    -0.267 OA
ATOM     18  N   UNL     1      -4.005   2.096  24.976  0.00  0.00    -0.299 N 
ATOM     19  C   UNL     1      -4.507   1.654  24.986  0.00  0.00    +0.110 C 
ENDROOT
BRANCH  13  20
ATOM     20  C   UNL     1      -3.624  -0.026  24.639  0.00  0.00    +0.001 A 
ATOM     21  C   UNL     1      -3.561  -0.529  25.290  0.00  0.00    +0.001 A 
ATOM     22  C   UNL     1      -3.688  -1.340  25.199  0.00  0.00    +0.011 A 
ATOM     23  C   UNL     1      -3.878  -1.647  24.457  0.00  0.00    +0.058 A 
ATOM     24 CL   UNL     1      -4.005  -2.456  24.366  0.00  0.00    -0.082 Cl
ATOM     25  C   UNL     1      -3.941  -1.144  23.807  0.00  0.00    +0.011 A 
ATOM     26  C   UNL     1      -3.813  -0.333  23.898  0.00  0.00    +0.001 A 
ENDBRANCH  13  20
BRANCH   4   3
ATOM      3  C   UNL     1      -3.283   2.909  24.986  0.00  0.00    +0.143 C 
BRANCH   3   2
ATOM      1  C   UNL     1      -2.315   3.871  25.409  0.00  0.00    +0.070 C 
ATOM      2  S   UNL     1      -2.626   3.380  24.824  0.00  0.00    -0.130 S 
ENDBRANCH   3   2
ENDBRANCH   4   3
TORSDOF 3
ENDMDL
