MODEL 1
REMARK VINA RESULT:     -10.8      0.000      0.000
REMARK  Name = 
REMARK  6 active torsions:
REMARK  status: ('A' for Active; 'I' for Inactive)
REMARK    1  A    between atoms: C_2  and  C_4
REMARK    2  A    between atoms: C_6  and  C_7
REMARK    3  A    between atoms: C_7  and  C_8
REMARK    4  A    between atoms: C_11  and  C_13
REMARK    5  A    between atoms: C_22  and  C_23
REMARK    6  A    between atoms: C_23  and  N_24
REMARK                            x       y       z     vdW  Elec       q    Type
REMARK                         _______ _______ _______ _____ _____    ______ ____
ROOT
ATOM      4  C   UNL     1      -4.732   1.638  24.735  0.00  0.00    +0.006 C 
ATOM      5  C   UNL     1      -4.317   2.326  24.551  0.00  0.00    +0.005 C 
ATOM      6  C   UNL     1      -3.676   2.294  24.032  0.00  0.00    +0.027 C 
ATOM     19  C   UNL     1      -3.451   1.573  23.698  0.00  0.00    -0.048 C 
ATOM     20  C   UNL     1      -2.811   1.541  23.179  0.00  0.00    +0.026 C 
ATOM     21  C   UNL     1      -3.868   0.886  23.883  0.00  0.00    -0.034 C 
ATOM     22  C   UNL     1      -4.508   0.918  24.401  0.00  0.00    +0.037 C 
ENDROOT
BRANCH   4   2
ATOM      1  C   UNL     1      -6.143   1.700  24.957  0.00  0.00    +0.000 C 
ATOM      2  C   UNL     1      -5.373   1.671  25.254  0.00  0.00    +0.000 C 
ATOM      3  C   UNL     1      -5.245   1.674  26.068  0.00  0.00    +0.000 C 
ENDBRANCH   4   2
BRANCH   6   7
ATOM      7  C   UNL     1      -3.260   2.982  23.847  0.00  0.00    +0.091 C 
BRANCH   7   8
ATOM      8  C   UNL     1      -2.692   3.273  24.368  0.00  0.00    +0.227 A 
ATOM      9  N   UNL     1      -2.694   4.020  24.719  0.00  0.00    -0.111 NA
ATOM     10  N   UNL     1      -2.024   4.078  25.199  0.00  0.00    -0.107 NA
ATOM     11  C   UNL     1      -1.610   3.367  25.144  0.00  0.00    +0.250 A 
ATOM     12  O   UNL     1      -2.023   2.869  24.631  0.00  0.00    -0.420 OA
BRANCH  11  13
ATOM     13  C   UNL     1      -0.907   3.184  25.534  0.00  0.00    +0.058 A 
ATOM     14  C   UNL     1      -0.927   2.791  26.259  0.00  0.00    +0.025 A 
ATOM     15  C   UNL     1      -0.224   2.608  26.651  0.00  0.00    +0.099 A 
ATOM     16  N   UNL     1       0.501   2.819  26.315  0.00  0.00    -0.242 NA
ATOM     17  C   UNL     1       0.522   3.212  25.590  0.00  0.00    +0.099 A 
ATOM     18  C   UNL     1      -0.183   3.395  25.200  0.00  0.00    +0.025 A 
ENDBRANCH  11  13
ENDBRANCH   7   8
ENDBRANCH   6   7
BRANCH  22  23
ATOM     23  C   UNL     1      -4.924   0.230  24.586  0.00  0.00    +0.076 C 
BRANCH  23  24
ATOM     24  N   UNL     1      -4.537  -0.500  24.582  0.00  0.00    -0.269 NA
ATOM     25  C   UNL     1      -4.049  -0.712  25.212  0.00  0.00    +0.094 C 
ATOM     26  C   UNL     1      -3.663  -1.441  25.207  0.00  0.00    +0.111 C 
ATOM     27  N   UNL     1      -3.766  -1.958  24.572  0.00  0.00    -0.277 N 
ATOM     28  C   UNL     1      -4.255  -1.746  23.943  0.00  0.00    +0.111 C 
ATOM     29  C   UNL     1      -4.640  -1.016  23.947  0.00  0.00    +0.094 C 
ATOM     30  C   UNL     1      -3.380  -2.687  24.567  0.00  0.00    +0.226 C 
ATOM     31  C   UNL     1      -2.891  -2.899  25.197  0.00  0.00    +0.095 C 
ATOM     32  O   UNL     1      -3.483  -3.204  23.933  0.00  0.00    -0.275 OA
ENDBRANCH  23  24
ENDBRANCH  22  23
TORSDOF 6
ENDMDL
MODEL 2
REMARK VINA RESULT:     -10.7      1.200      2.069
REMARK  Name = 
REMARK  6 active torsions:
REMARK  status: ('A' for Active; 'I' for Inactive)
REMARK    1  A    between atoms: C_2  and  C_4
REMARK    2  A    between atoms: C_6  and  C_7
REMARK    3  A    between atoms: C_7  and  C_8
REMARK    4  A    between atoms: C_11  and  C_13
REMARK    5  A    between atoms: C_22  and  C_23
REMARK    6  A    between atoms: C_23  and  N_24
REMARK                            x       y       z     vdW  Elec       q    Type
REMARK                         _______ _______ _______ _____ _____    ______ ____
ROOT
ATOM      4  C   UNL     1      -3.279   1.592  23.589  0.00  0.00    +0.006 C 
ATOM      5  C   UNL     1      -3.500   2.277  23.991  0.00  0.00    +0.005 C 
ATOM      6  C   UNL     1      -4.055   2.237  24.601  0.00  0.00    +0.027 C 
ATOM     19  C   UNL     1      -4.389   1.511  24.807  0.00  0.00    -0.048 C 
ATOM     20  C   UNL     1      -4.944   1.472  25.416  0.00  0.00    +0.026 C 
ATOM     21  C   UNL     1      -4.168   0.826  24.404  0.00  0.00    -0.034 C 
ATOM     22  C   UNL     1      -3.614   0.866  23.795  0.00  0.00    +0.037 C 
ENDROOT
BRANCH   4   2
ATOM      1  C   UNL     1      -1.928   1.485  23.138  0.00  0.00    +0.000 C 
ATOM      2  C   UNL     1      -2.725   1.632  22.980  0.00  0.00    +0.000 C 
ATOM      3  C   UNL     1      -2.965   1.820  22.214  0.00  0.00    +0.000 C 
ENDBRANCH   4   2
BRANCH   6   7
ATOM      7  C   UNL     1      -4.275   2.922  25.003  0.00  0.00    +0.091 C 
BRANCH   7   8
ATOM      8  C   UNL     1      -3.698   3.417  25.321  0.00  0.00    +0.227 A 
ATOM      9  N   UNL     1      -3.656   3.671  26.106  0.00  0.00    -0.111 NA
ATOM     10  N   UNL     1      -2.993   4.157  26.181  0.00  0.00    -0.107 NA
ATOM     11  C   UNL     1      -2.626   4.203  25.443  0.00  0.00    +0.250 A 
ATOM     12  O   UNL     1      -3.062   3.746  24.912  0.00  0.00    -0.420 OA
BRANCH  11  13
ATOM     13  C   UNL     1      -1.943   4.631  25.268  0.00  0.00    +0.058 A 
ATOM     14  C   UNL     1      -1.214   4.246  25.225  0.00  0.00    +0.025 A 
ATOM     15  C   UNL     1      -0.531   4.673  25.049  0.00  0.00    +0.099 A 
ATOM     16  N   UNL     1      -0.576   5.487  24.915  0.00  0.00    -0.242 NA
ATOM     17  C   UNL     1      -1.304   5.872  24.957  0.00  0.00    +0.099 A 
ATOM     18  C   UNL     1      -1.988   5.443  25.134  0.00  0.00    +0.025 A 
ENDBRANCH  11  13
ENDBRANCH   7   8
ENDBRANCH   6   7
BRANCH  22  23
ATOM     23  C   UNL     1      -3.393   0.182  23.392  0.00  0.00    +0.076 C 
BRANCH  23  24
ATOM     24  N   UNL     1      -3.423  -0.550  23.775  0.00  0.00    -0.269 NA
ATOM     25  C   UNL     1      -2.853  -0.743  24.340  0.00  0.00    +0.094 C 
ATOM     26  C   UNL     1      -2.883  -1.473  24.722  0.00  0.00    +0.111 C 
ATOM     27  N   UNL     1      -3.482  -2.011  24.539  0.00  0.00    -0.277 N 
ATOM     28  C   UNL     1      -4.050  -1.817  23.974  0.00  0.00    +0.111 C 
ATOM     29  C   UNL     1      -4.021  -1.087  23.592  0.00  0.00    +0.094 C 
ATOM     30  C   UNL     1      -3.511  -2.741  24.920  0.00  0.00    +0.226 C 
ATOM     31  C   UNL     1      -2.941  -2.934  25.486  0.00  0.00    +0.095 C 
ATOM     32  O   UNL     1      -4.109  -3.279  24.738  0.00  0.00    -0.275 OA
ENDBRANCH  23  24
ENDBRANCH  22  23
TORSDOF 6
ENDMDL
MODEL 3
REMARK VINA RESULT:     -10.5      2.844      4.340
REMARK  Name = 
REMARK  6 active torsions:
REMARK  status: ('A' for Active; 'I' for Inactive)
REMARK    1  A    between atoms: C_2  and  C_4
REMARK    2  A    between atoms: C_6  and  C_7
REMARK    3  A    between atoms: C_7  and  C_8
REMARK    4  A    between atoms: C_11  and  C_13
REMARK    5  A    between atoms: C_22  and  C_23
REMARK    6  A    between atoms: C_23  and  N_24
REMARK                            x       y       z     vdW  Elec       q    Type
REMARK                         _______ _______ _______ _____ _____    ______ ____
ROOT
ATOM      4  C   UNL     1      -3.106  -0.259  24.582  0.00  0.00    +0.006 C 
ATOM      5  C   UNL     1      -2.330  -0.439  24.797  0.00  0.00    +0.005 C 
ATOM      6  C   UNL     1      -1.831   0.158  25.075  0.00  0.00    +0.027 C 
ATOM     19  C   UNL     1      -2.109   0.932  25.138  0.00  0.00    -0.048 C 
ATOM     20  C   UNL     1      -1.611   1.527  25.416  0.00  0.00    +0.026 C 
ATOM     21  C   UNL     1      -2.885   1.110  24.922  0.00  0.00    -0.034 C 
ATOM     22  C   UNL     1      -3.384   0.515  24.644  0.00  0.00    +0.037 C 
ENDROOT
BRANCH   4   2
ATOM      1  C   UNL     1      -3.963  -1.374  24.836  0.00  0.00    +0.000 C 
ATOM      2  C   UNL     1      -3.604  -0.855  24.304  0.00  0.00    +0.000 C 
ATOM      3  C   UNL     1      -3.743  -0.933  23.495  0.00  0.00    +0.000 C 
ENDBRANCH   4   2
BRANCH   6   7
ATOM      7  C   UNL     1      -1.056  -0.022  25.291  0.00  0.00    +0.091 C 
BRANCH   7   8
ATOM      8  C   UNL     1      -0.540  -0.351  24.739  0.00  0.00    +0.227 A 
ATOM      9  N   UNL     1      -0.414  -1.157  24.613  0.00  0.00    -0.111 NA
ATOM     10  N   UNL     1       0.146  -1.237  24.011  0.00  0.00    -0.107 NA
ATOM     11  C   UNL     1       0.365  -0.480  23.765  0.00  0.00    +0.250 A 
ATOM     12  O   UNL     1      -0.059   0.067  24.215  0.00  0.00    -0.420 OA
BRANCH  11  13
ATOM     13  C   UNL     1       0.911  -0.302  23.174  0.00  0.00    +0.058 A 
ATOM     14  C   UNL     1       0.751  -0.504  22.390  0.00  0.00    +0.025 A 
ATOM     15  C   UNL     1       1.297  -0.326  21.797  0.00  0.00    +0.099 A 
ATOM     16  N   UNL     1       2.004   0.055  21.990  0.00  0.00    -0.242 NA
ATOM     17  C   UNL     1       2.164   0.258  22.773  0.00  0.00    +0.099 A 
ATOM     18  C   UNL     1       1.617   0.079  23.365  0.00  0.00    +0.025 A 
ENDBRANCH  11  13
ENDBRANCH   7   8
ENDBRANCH   6   7
BRANCH  22  23
ATOM     23  C   UNL     1      -4.159   0.694  24.429  0.00  0.00    +0.076 C 
BRANCH  23  24
ATOM     24  N   UNL     1      -4.521   1.377  24.719  0.00  0.00    -0.269 NA
ATOM     25  C   UNL     1      -4.389   2.102  24.347  0.00  0.00    +0.094 C 
ATOM     26  C   UNL     1      -4.751   2.785  24.637  0.00  0.00    +0.111 C 
ATOM     27  N   UNL     1      -5.244   2.742  25.298  0.00  0.00    -0.277 N 
ATOM     28  C   UNL     1      -5.375   2.017  25.668  0.00  0.00    +0.111 C 
ATOM     29  C   UNL     1      -5.014   1.334  25.378  0.00  0.00    +0.094 C 
ATOM     30  C   UNL     1      -5.606   3.424  25.587  0.00  0.00    +0.226 C 
ATOM     31  C   UNL     1      -5.474   4.150  25.216  0.00  0.00    +0.095 C 
ATOM     32  O   UNL     1      -6.099   3.382  26.247  0.00  0.00    -0.275 OA
ENDBRANCH  23  24
ENDBRANCH  22  23
TORSDOF 6
ENDMDL
MODEL 4
REMARK VINA RESULT:     -10.3      2.108      4.628
REMARK  Name = 
REMARK  6 active torsions:
REMARK  status: ('A' for Active; 'I' for Inactive)
REMARK    1  A    between atoms: C_2  and  C_4
REMARK    2  A    between atoms: C_6  and  C_7
REMARK    3  A    between atoms: C_7  and  C_8
REMARK    4  A    between atoms: C_11  and  C_13
REMARK    5  A    between atoms: C_22  and  C_23
REMARK    6  A    between atoms: C_23  and  N_24
REMARK                            x       y       z     vdW  Elec       q    Type
REMARK                         _______ _______ _______ _____ _____    ______ ____
ROOT
ATOM      4  C   UNL     1      -1.339   2.929  24.789  0.00  0.00    +0.006 C 
ATOM      5  C   UNL     1      -0.953   2.388  24.300  0.00  0.00    +0.005 C 
ATOM      6  C   UNL     1      -1.364   2.021  23.686  0.00  0.00    +0.027 C 
ATOM     19  C   UNL     1      -2.161   2.195  23.561  0.00  0.00    -0.048 C 
ATOM     20  C   UNL     1      -2.571   1.828  22.947  0.00  0.00    +0.026 C 
ATOM     21  C   UNL     1      -2.546   2.736  24.050  0.00  0.00    -0.034 C 
ATOM     22  C   UNL     1      -2.136   3.103  24.663  0.00  0.00    +0.037 C 
ENDROOT
BRANCH   4   2
ATOM      1  C   UNL     1      -0.639   4.063  25.304  0.00  0.00    +0.000 C 
ATOM      2  C   UNL     1      -0.928   3.296  25.402  0.00  0.00    +0.000 C 
ATOM      3  C   UNL     1      -0.805   2.897  26.113  0.00  0.00    +0.000 C 
ENDBRANCH   4   2
BRANCH   6   7
ATOM      7  C   UNL     1      -0.978   1.480  23.197  0.00  0.00    +0.091 C 
BRANCH   7   8
ATOM      8  C   UNL     1      -0.683   0.778  23.512  0.00  0.00    +0.227 A 
ATOM      9  N   UNL     1       0.110   0.547  23.525  0.00  0.00    -0.111 NA
ATOM     10  N   UNL     1       0.154  -0.192  23.890  0.00  0.00    -0.107 NA
ATOM     11  C   UNL     1      -0.611  -0.418  24.101  0.00  0.00    +0.250 A 
ATOM     12  O   UNL     1      -1.128   0.181  23.868  0.00  0.00    -0.420 OA
BRANCH  11  13
ATOM     13  C   UNL     1      -0.822  -1.120  24.480  0.00  0.00    +0.058 A 
ATOM     14  C   UNL     1      -1.405  -1.605  24.156  0.00  0.00    +0.025 A 
ATOM     15  C   UNL     1      -1.617  -2.307  24.534  0.00  0.00    +0.099 A 
ATOM     16  N   UNL     1      -1.244  -2.523  25.238  0.00  0.00    -0.242 NA
ATOM     17  C   UNL     1      -0.661  -2.039  25.563  0.00  0.00    +0.099 A 
ATOM     18  C   UNL     1      -0.450  -1.337  25.183  0.00  0.00    +0.025 A 
ENDBRANCH  11  13
ENDBRANCH   7   8
ENDBRANCH   6   7
BRANCH  22  23
ATOM     23  C   UNL     1      -2.521   3.644  25.152  0.00  0.00    +0.076 C 
BRANCH  23  24
ATOM     24  N   UNL     1      -3.329   3.562  25.301  0.00  0.00    -0.269 NA
ATOM     25  C   UNL     1      -3.613   2.880  25.670  0.00  0.00    +0.094 C 
ATOM     26  C   UNL     1      -4.421   2.799  25.819  0.00  0.00    +0.111 C 
ATOM     27  N   UNL     1      -4.944   3.399  25.600  0.00  0.00    -0.277 N 
ATOM     28  C   UNL     1      -4.659   4.080  25.232  0.00  0.00    +0.111 C 
ATOM     29  C   UNL     1      -3.851   4.161  25.083  0.00  0.00    +0.094 C 
ATOM     30  C   UNL     1      -5.750   3.317  25.749  0.00  0.00    +0.226 C 
ATOM     31  C   UNL     1      -6.035   2.636  26.117  0.00  0.00    +0.095 C 
ATOM     32  O   UNL     1      -6.273   3.916  25.530  0.00  0.00    -0.275 OA
ENDBRANCH  23  24
ENDBRANCH  22  23
TORSDOF 6
ENDMDL
MODEL 5
REMARK VINA RESULT:     -10.2      2.015      3.949
REMARK  Name = 
REMARK  6 active torsions:
REMARK  status: ('A' for Active; 'I' for Inactive)
REMARK    1  A    between atoms: C_2  and  C_4
REMARK    2  A    between atoms: C_6  and  C_7
REMARK    3  A    between atoms: C_7  and  C_8
REMARK    4  A    between atoms: C_11  and  C_13
REMARK    5  A    between atoms: C_22  and  C_23
REMARK    6  A    between atoms: C_23  and  N_24
REMARK                            x       y       z     vdW  Elec       q    Type
REMARK                         _______ _______ _______ _____ _____    ______ ____
ROOT
ATOM      4  C   UNL     1      -1.320   2.710  24.724  0.00  0.00    +0.006 C 
ATOM      5  C   UNL     1      -1.978   3.135  24.467  0.00  0.00    +0.005 C 
ATOM      6  C   UNL     1      -2.443   2.842  23.850  0.00  0.00    +0.027 C 
ATOM     19  C   UNL     1      -2.249   2.125  23.492  0.00  0.00    -0.048 C 
ATOM     20  C   UNL     1      -2.713   1.833  22.876  0.00  0.00    +0.026 C 
ATOM     21  C   UNL     1      -1.590   1.700  23.750  0.00  0.00    -0.034 C 
ATOM     22  C   UNL     1      -1.126   1.992  24.366  0.00  0.00    +0.037 C 
ENDROOT
BRANCH   4   2
ATOM      1  C   UNL     1      -0.157   3.408  25.172  0.00  0.00    +0.000 C 
ATOM      2  C   UNL     1      -0.856   3.002  25.340  0.00  0.00    +0.000 C 
ATOM      3  C   UNL     1      -1.090   2.890  26.122  0.00  0.00    +0.000 C 
ENDBRANCH   4   2
BRANCH   6   7
ATOM      7  C   UNL     1      -3.101   3.267  23.593  0.00  0.00    +0.091 C 
BRANCH   7   8
ATOM      8  C   UNL     1      -3.759   3.345  24.083  0.00  0.00    +0.227 A 
ATOM      9  N   UNL     1      -4.073   4.055  24.364  0.00  0.00    -0.111 NA
ATOM     10  N   UNL     1      -4.728   3.875  24.834  0.00  0.00    -0.107 NA
ATOM     11  C   UNL     1      -4.819   3.055  24.843  0.00  0.00    +0.250 A 
ATOM     12  O   UNL     1      -4.220   2.728  24.379  0.00  0.00    -0.420 OA
BRANCH  11  13
ATOM     13  C   UNL     1      -5.404   2.636  25.244  0.00  0.00    +0.058 A 
ATOM     14  C   UNL     1      -5.860   2.077  24.844  0.00  0.00    +0.025 A 
ATOM     15  C   UNL     1      -6.446   1.657  25.245  0.00  0.00    +0.099 A 
ATOM     16  N   UNL     1      -6.576   1.797  26.048  0.00  0.00    -0.242 NA
ATOM     17  C   UNL     1      -6.121   2.356  26.449  0.00  0.00    +0.099 A 
ATOM     18  C   UNL     1      -5.535   2.775  26.047  0.00  0.00    +0.025 A 
ENDBRANCH  11  13
ENDBRANCH   7   8
ENDBRANCH   6   7
BRANCH  22  23
ATOM     23  C   UNL     1      -0.468   1.568  24.623  0.00  0.00    +0.076 C 
BRANCH  23  24
ATOM     24  N   UNL     1      -0.494   0.743  24.652  0.00  0.00    -0.269 NA
ATOM     25  C   UNL     1      -0.877   0.365  25.278  0.00  0.00    +0.094 C 
ATOM     26  C   UNL     1      -0.903  -0.459  25.306  0.00  0.00    +0.111 C 
ATOM     27  N   UNL     1      -0.546  -0.905  24.710  0.00  0.00    -0.277 N 
ATOM     28  C   UNL     1      -0.164  -0.526  24.085  0.00  0.00    +0.111 C 
ATOM     29  C   UNL     1      -0.138   0.298  24.056  0.00  0.00    +0.094 C 
ATOM     30  C   UNL     1      -0.572  -1.728  24.739  0.00  0.00    +0.226 C 
ATOM     31  C   UNL     1      -0.955  -2.108  25.364  0.00  0.00    +0.095 C 
ATOM     32  O   UNL     1      -0.216  -2.174  24.143  0.00  0.00    -0.275 OA
ENDBRANCH  23  24
ENDBRANCH  22  23
TORSDOF 6
ENDMDL
MODEL 6
REMARK VINA RESULT:     -10.2      2.888      4.674
REMARK  Name = 
REMARK  6 active torsions:
REMARK  status: ('A' for Active; 'I' for Inactive)
REMARK    1  A    between atoms: C_2  and  C_4
REMARK    2  A    between atoms: C_6  and  C_7
REMARK    3  A    between atoms: C_7  and  C_8
REMARK    4  A    between atoms: C_11  and  C_13
REMARK    5  A    between atoms: C_22  and  C_23
REMARK    6  A    between atoms: C_23  and  N_24
REMARK                            x       y       z     vdW  Elec       q    Type
REMARK                         _______ _______ _______ _____ _____    ______ ____
ROOT
ATOM      4  C   UNL     1      -1.308   0.589  24.765  0.00  0.00    +0.006 C 
ATOM      5  C   UNL     1      -1.725   1.275  24.952  0.00  0.00    +0.005 C 
ATOM      6  C   UNL     1      -1.450   2.009  24.691  0.00  0.00    +0.027 C 
ATOM     19  C   UNL     1      -0.758   2.054  24.244  0.00  0.00    -0.048 C 
ATOM     20  C   UNL     1      -0.484   2.787  23.983  0.00  0.00    +0.026 C 
ATOM     21  C   UNL     1      -0.342   1.367  24.057  0.00  0.00    -0.034 C 
ATOM     22  C   UNL     1      -0.617   0.634  24.318  0.00  0.00    +0.037 C 
ENDROOT
BRANCH   4   2
ATOM      1  C   UNL     1      -2.103  -0.580  24.556  0.00  0.00    +0.000 C 
ATOM      2  C   UNL     1      -1.584  -0.144  25.026  0.00  0.00    +0.000 C 
ATOM      3  C   UNL     1      -1.341  -0.440  25.756  0.00  0.00    +0.000 C 
ENDBRANCH   4   2
BRANCH   6   7
ATOM      7  C   UNL     1      -1.867   2.696  24.878  0.00  0.00    +0.091 C 
BRANCH   7   8
ATOM      8  C   UNL     1      -2.665   2.760  24.683  0.00  0.00    +0.227 A 
ATOM      9  N   UNL     1      -2.969   3.045  23.971  0.00  0.00    -0.111 NA
ATOM     10  N   UNL     1      -3.792   3.011  24.013  0.00  0.00    -0.107 NA
ATOM     11  C   UNL     1      -3.997   2.706  24.752  0.00  0.00    +0.250 A 
ATOM     12  O   UNL     1      -3.300   2.550  25.166  0.00  0.00    -0.420 OA
BRANCH  11  13
ATOM     13  C   UNL     1      -4.764   2.578  25.028  0.00  0.00    +0.058 A 
ATOM     14  C   UNL     1      -5.108   3.114  25.552  0.00  0.00    +0.025 A 
ATOM     15  C   UNL     1      -5.875   2.987  25.829  0.00  0.00    +0.099 A 
ATOM     16  N   UNL     1      -6.297   2.322  25.581  0.00  0.00    -0.242 NA
ATOM     17  C   UNL     1      -5.954   1.786  25.057  0.00  0.00    +0.099 A 
ATOM     18  C   UNL     1      -5.186   1.914  24.781  0.00  0.00    +0.025 A 
ENDBRANCH  11  13
ENDBRANCH   7   8
ENDBRANCH   6   7
BRANCH  22  23
ATOM     23  C   UNL     1      -0.200  -0.052  24.131  0.00  0.00    +0.076 C 
BRANCH  23  24
ATOM     24  N   UNL     1       0.459  -0.014  23.635  0.00  0.00    -0.269 NA
ATOM     25  C   UNL     1       1.185   0.241  23.934  0.00  0.00    +0.094 C 
ATOM     26  C   UNL     1       1.843   0.280  23.438  0.00  0.00    +0.111 C 
ATOM     27  N   UNL     1       1.775   0.064  22.644  0.00  0.00    -0.277 N 
ATOM     28  C   UNL     1       1.049  -0.191  22.347  0.00  0.00    +0.111 C 
ATOM     29  C   UNL     1       0.391  -0.229  22.842  0.00  0.00    +0.094 C 
ATOM     30  C   UNL     1       2.433   0.102  22.149  0.00  0.00    +0.226 C 
ATOM     31  C   UNL     1       3.160   0.357  22.446  0.00  0.00    +0.095 C 
ATOM     32  O   UNL     1       2.366  -0.114  21.355  0.00  0.00    -0.275 OA
ENDBRANCH  23  24
ENDBRANCH  22  23
TORSDOF 6
ENDMDL
MODEL 7
REMARK VINA RESULT:     -10.2      1.422      4.674
REMARK  Name = 
REMARK  6 active torsions:
REMARK  status: ('A' for Active; 'I' for Inactive)
REMARK    1  A    between atoms: C_2  and  C_4
REMARK    2  A    between atoms: C_6  and  C_7
REMARK    3  A    between atoms: C_7  and  C_8
REMARK    4  A    between atoms: C_11  and  C_13
REMARK    5  A    between atoms: C_22  and  C_23
REMARK    6  A    between atoms: C_23  and  N_24
REMARK                            x       y       z     vdW  Elec       q    Type
REMARK                         _______ _______ _______ _____ _____    ______ ____
ROOT
ATOM      4  C   UNL     1      -4.771   1.616  24.859  0.00  0.00    +0.006 C 
ATOM      5  C   UNL     1      -4.713   0.865  24.523  0.00  0.00    +0.005 C 
ATOM      6  C   UNL     1      -4.138   0.713  23.951  0.00  0.00    +0.027 C 
ATOM     19  C   UNL     1      -3.622   1.313  23.715  0.00  0.00    -0.048 C 
ATOM     20  C   UNL     1      -3.048   1.161  23.143  0.00  0.00    +0.026 C 
ATOM     21  C   UNL     1      -3.681   2.064  24.052  0.00  0.00    -0.034 C 
ATOM     22  C   UNL     1      -4.256   2.216  24.623  0.00  0.00    +0.037 C 
ENDROOT
BRANCH   4   2
ATOM      1  C   UNL     1      -6.055   2.133  25.217  0.00  0.00    +0.000 C 
ATOM      2  C   UNL     1      -5.346   1.768  25.431  0.00  0.00    +0.000 C 
ATOM      3  C   UNL     1      -5.213   1.555  26.216  0.00  0.00    +0.000 C 
ENDBRANCH   4   2
BRANCH   6   7
ATOM      7  C   UNL     1      -4.079  -0.038  23.615  0.00  0.00    +0.091 C 
BRANCH   7   8
ATOM      8  C   UNL     1      -3.707  -0.646  24.027  0.00  0.00    +0.227 A 
ATOM      9  N   UNL     1      -4.080  -1.288  24.388  0.00  0.00    -0.111 NA
ATOM     10  N   UNL     1      -3.498  -1.759  24.735  0.00  0.00    -0.107 NA
ATOM     11  C   UNL     1      -2.766  -1.409  24.589  0.00  0.00    +0.250 A 
ATOM     12  O   UNL     1      -2.895  -0.721  24.152  0.00  0.00    -0.420 OA
BRANCH  11  13
ATOM     13  C   UNL     1      -2.033  -1.695  24.837  0.00  0.00    +0.058 A 
ATOM     14  C   UNL     1      -1.568  -1.248  25.351  0.00  0.00    +0.025 A 
ATOM     15  C   UNL     1      -0.835  -1.534  25.600  0.00  0.00    +0.099 A 
ATOM     16  N   UNL     1      -0.568  -2.268  25.334  0.00  0.00    -0.242 NA
ATOM     17  C   UNL     1      -1.032  -2.716  24.820  0.00  0.00    +0.099 A 
ATOM     18  C   UNL     1      -1.766  -2.429  24.572  0.00  0.00    +0.025 A 
ENDBRANCH  11  13
ENDBRANCH   7   8
ENDBRANCH   6   7
BRANCH  22  23
ATOM     23  C   UNL     1      -4.315   2.966  24.959  0.00  0.00    +0.076 C 
BRANCH  23  24
ATOM     24  N   UNL     1      -3.644   3.444  25.023  0.00  0.00    -0.269 NA
ATOM     25  C   UNL     1      -3.541   4.079  24.506  0.00  0.00    +0.094 C 
ATOM     26  C   UNL     1      -2.871   4.557  24.569  0.00  0.00    +0.111 C 
ATOM     27  N   UNL     1      -2.304   4.399  25.149  0.00  0.00    -0.277 N 
ATOM     28  C   UNL     1      -2.408   3.763  25.664  0.00  0.00    +0.111 C 
ATOM     29  C   UNL     1      -3.078   3.286  25.601  0.00  0.00    +0.094 C 
ATOM     30  C   UNL     1      -1.635   4.875  25.212  0.00  0.00    +0.226 C 
ATOM     31  C   UNL     1      -1.531   5.511  24.696  0.00  0.00    +0.095 C 
ATOM     32  O   UNL     1      -1.068   4.718  25.790  0.00  0.00    -0.275 OA
ENDBRANCH  23  24
ENDBRANCH  22  23
TORSDOF 6
ENDMDL
MODEL 8
REMARK VINA RESULT:      -9.9      2.101      5.920
REMARK  Name = 
REMARK  6 active torsions:
REMARK  status: ('A' for Active; 'I' for Inactive)
REMARK    1  A    between atoms: C_2  and  C_4
REMARK    2  A    between atoms: C_6  and  C_7
REMARK    3  A    between atoms: C_7  and  C_8
REMARK    4  A    between atoms: C_11  and  C_13
REMARK    5  A    between atoms: C_22  and  C_23
REMARK    6  A    between atoms: C_23  and  N_24
REMARK                            x       y       z     vdW  Elec       q    Type
REMARK                         _______ _______ _______ _____ _____    ______ ____
ROOT
ATOM      4  C   UNL     1      -0.092   0.366  24.126  0.00  0.00    +0.006 C 
ATOM      5  C   UNL     1      -0.267  -0.369  24.457  0.00  0.00    +0.005 C 
ATOM      6  C   UNL     1      -0.664  -0.412  25.180  0.00  0.00    +0.027 C 
ATOM     19  C   UNL     1      -0.885   0.280  25.570  0.00  0.00    -0.048 C 
ATOM     20  C   UNL     1      -1.281   0.237  26.292  0.00  0.00    +0.026 C 
ATOM     21  C   UNL     1      -0.710   1.015  25.238  0.00  0.00    -0.034 C 
ATOM     22  C   UNL     1      -0.314   1.058  24.516  0.00  0.00    +0.037 C 
ENDROOT
BRANCH   4   2
ATOM      1  C   UNL     1      -0.117   0.334  22.697  0.00  0.00    +0.000 C 
ATOM      2  C   UNL     1       0.304   0.408  23.404  0.00  0.00    +0.000 C 
ATOM      3  C   UNL     1       1.120   0.523  23.387  0.00  0.00    +0.000 C 
ENDBRANCH   4   2
BRANCH   6   7
ATOM      7  C   UNL     1      -0.839  -1.147  25.511  0.00  0.00    +0.091 C 
BRANCH   7   8
ATOM      8  C   UNL     1      -1.350  -1.664  25.122  0.00  0.00    +0.227 A 
ATOM      9  N   UNL     1      -1.156  -2.413  24.836  0.00  0.00    -0.111 NA
ATOM     10  N   UNL     1      -1.831  -2.735  24.488  0.00  0.00    -0.107 NA
ATOM     11  C   UNL     1      -2.442  -2.185  24.559  0.00  0.00    +0.250 A 
ATOM     12  O   UNL     1      -2.144  -1.523  24.951  0.00  0.00    -0.420 OA
BRANCH  11  13
ATOM     13  C   UNL     1      -3.214  -2.280  24.286  0.00  0.00    +0.058 A 
ATOM     14  C   UNL     1      -3.666  -1.619  24.087  0.00  0.00    +0.025 A 
ATOM     15  C   UNL     1      -4.439  -1.712  23.814  0.00  0.00    +0.099 A 
ATOM     16  N   UNL     1      -4.760  -2.469  23.740  0.00  0.00    -0.242 NA
ATOM     17  C   UNL     1      -4.310  -3.130  23.939  0.00  0.00    +0.099 A 
ATOM     18  C   UNL     1      -3.536  -3.035  24.212  0.00  0.00    +0.025 A 
ENDBRANCH  11  13
ENDBRANCH   7   8
ENDBRANCH   6   7
BRANCH  22  23
ATOM     23  C   UNL     1      -0.139   1.792  24.185  0.00  0.00    +0.076 C 
BRANCH  23  24
ATOM     24  N   UNL     1      -0.594   2.453  24.381  0.00  0.00    -0.269 NA
ATOM     25  C   UNL     1      -0.281   3.038  24.872  0.00  0.00    +0.094 C 
ATOM     26  C   UNL     1      -0.735   3.698  25.068  0.00  0.00    +0.111 C 
ATOM     27  N   UNL     1      -1.503   3.773  24.774  0.00  0.00    -0.277 N 
ATOM     28  C   UNL     1      -1.815   3.187  24.283  0.00  0.00    +0.111 C 
ATOM     29  C   UNL     1      -1.360   2.527  24.087  0.00  0.00    +0.094 C 
ATOM     30  C   UNL     1      -1.957   4.432  24.970  0.00  0.00    +0.226 C 
ATOM     31  C   UNL     1      -1.644   5.017  25.460  0.00  0.00    +0.095 C 
ATOM     32  O   UNL     1      -2.724   4.507  24.676  0.00  0.00    -0.275 OA
ENDBRANCH  23  24
ENDBRANCH  22  23
TORSDOF 6
ENDMDL
MODEL 9
REMARK VINA RESULT:      -9.8      2.376      4.130
REMARK  Name = 
REMARK  6 active torsions:
REMARK  status: ('A' for Active; 'I' for Inactive)
REMARK    1  A    between atoms: C_2  and  C_4
REMARK    2  A    between atoms: C_6  and  C_7
REMARK    3  A    between atoms: C_7  and  C_8
REMARK    4  A    between atoms: C_11  and  C_13
REMARK    5  A    between atoms: C_22  and  C_23
REMARK    6  A    between atoms: C_23  and  N_24
REMARK                            x       y       z     vdW  Elec       q    Type
REMARK                         _______ _______ _______ _____ _____    ______ ____
ROOT
ATOM      4  C   UNL     1      -3.032  -0.826  25.100  0.00  0.00    +0.006 C 
ATOM      5  C   UNL     1      -3.773  -0.503  24.938  0.00  0.00    +0.005 C 
ATOM      6  C   UNL     1      -3.864   0.029  24.313  0.00  0.00    +0.027 C 
ATOM     19  C   UNL     1      -3.213   0.237  23.851  0.00  0.00    -0.048 C 
ATOM     20  C   UNL     1      -3.303   0.768  23.226  0.00  0.00    +0.026 C 
ATOM     21  C   UNL     1      -2.471  -0.087  24.014  0.00  0.00    -0.034 C 
ATOM     22  C   UNL     1      -2.381  -0.618  24.638  0.00  0.00    +0.037 C 
ENDROOT
BRANCH   4   2
ATOM      1  C   UNL     1      -3.101  -2.159  25.610  0.00  0.00    +0.000 C 
ATOM      2  C   UNL     1      -2.942  -1.357  25.725  0.00  0.00    +0.000 C 
ATOM      3  C   UNL     1      -2.694  -1.088  26.463  0.00  0.00    +0.000 C 
ENDBRANCH   4   2
BRANCH   6   7
ATOM      7  C   UNL     1      -4.605   0.352  24.151  0.00  0.00    +0.091 C 
BRANCH   7   8
ATOM      8  C   UNL     1      -4.925   0.922  24.652  0.00  0.00    +0.227 A 
ATOM      9  N   UNL     1      -5.517   0.797  25.214  0.00  0.00    -0.111 NA
ATOM     10  N   UNL     1      -5.668   1.516  25.590  0.00  0.00    -0.107 NA
ATOM     11  C   UNL     1      -5.169   2.085  25.261  0.00  0.00    +0.250 A 
ATOM     12  O   UNL     1      -4.710   1.718  24.682  0.00  0.00    -0.420 OA
BRANCH  11  13
ATOM     13  C   UNL     1      -5.135   2.881  25.474  0.00  0.00    +0.058 A 
ATOM     14  C   UNL     1      -5.827   3.328  25.510  0.00  0.00    +0.025 A 
ATOM     15  C   UNL     1      -5.795   4.125  25.723  0.00  0.00    +0.099 A 
ATOM     16  N   UNL     1      -5.068   4.474  25.900  0.00  0.00    -0.242 NA
ATOM     17  C   UNL     1      -4.375   4.027  25.864  0.00  0.00    +0.099 A 
ATOM     18  C   UNL     1      -4.410   3.230  25.651  0.00  0.00    +0.025 A 
ENDBRANCH  11  13
ENDBRANCH   7   8
ENDBRANCH   6   7
BRANCH  22  23
ATOM     23  C   UNL     1      -1.640  -0.942  24.800  0.00  0.00    +0.076 C 
BRANCH  23  24
ATOM     24  N   UNL     1      -0.968  -0.643  24.424  0.00  0.00    -0.269 NA
ATOM     25  C   UNL     1      -0.637  -1.050  23.788  0.00  0.00    +0.094 C 
ATOM     26  C   UNL     1       0.035  -0.752  23.412  0.00  0.00    +0.111 C 
ATOM     27  N   UNL     1       0.375  -0.047  23.674  0.00  0.00    -0.277 N 
ATOM     28  C   UNL     1       0.043   0.360  24.310  0.00  0.00    +0.111 C 
ATOM     29  C   UNL     1      -0.629   0.061  24.686  0.00  0.00    +0.094 C 
ATOM     30  C   UNL     1       1.046   0.251  23.299  0.00  0.00    +0.226 C 
ATOM     31  C   UNL     1       1.378  -0.155  22.662  0.00  0.00    +0.095 C 
ATOM     32  O   UNL     1       1.386   0.956  23.560  0.00  0.00    -0.275 OA
ENDBRANCH  23  24
ENDBRANCH  22  23
TORSDOF 6
ENDMDL
