REMARK  Name = 
REMARK  6 active torsions:
REMARK  status: ('A' for Active; 'I' for Inactive)
REMARK    1  A    between atoms: C_2  and  C_5
REMARK    2  A    between atoms: C_5  and  N_6
REMARK    3  A    between atoms: N_6  and  C_7
REMARK    4  A    between atoms: C_10  and  C_11
REMARK    5  A    between atoms: C_11  and  N_12
REMARK    6  A    between atoms: C_13  and  C_15
REMARK                            x       y       z     vdW  Elec       q    Type
REMARK                         _______ _______ _______ _____ _____    ______ ____
ROOT
ATOM      7  C   UNL     1       3.595  -1.611   0.000  0.00  0.00    +0.135 C 
ATOM      8  C   UNL     1       4.262  -2.096   0.000  0.00  0.00    +0.162 C 
ATOM      9  O   UNL     1       4.007  -2.881   0.000  0.00  0.00    -0.350 OA
ATOM     10  C   UNL     1       3.182  -2.881   0.000  0.00  0.00    +0.169 C 
ATOM     20  C   UNL     1       2.928  -2.096   0.000  0.00  0.00    +0.199 C 
ATOM     21  O   UNL     1       2.143  -1.841   0.000  0.00  0.00    -0.219 OA
ENDROOT
BRANCH   7   6
ATOM      6  N   UNL     1       3.595  -0.786   0.000  0.00  0.00    -0.214 NA
BRANCH   6   5
ATOM      5  C   UNL     1       4.309  -0.374   0.000  0.00  0.00    +0.089 C 
BRANCH   5   2
ATOM      1  C   UNL     1       4.309   1.276   0.000  0.00  0.00    +0.001 C 
ATOM      2  C   UNL     1       4.309   0.451   0.000  0.00  0.00    +0.016 C 
ATOM      3  C   UNL     1       3.484   0.451   0.000  0.00  0.00    +0.001 C 
ATOM      4  C   UNL     1       5.134   0.451   0.000  0.00  0.00    +0.001 C 
ENDBRANCH   5   2
ENDBRANCH   6   5
ENDBRANCH   7   6
BRANCH  10  11
ATOM     11  C   UNL     1       2.697  -3.548   0.000  0.00  0.00    +0.147 C 
BRANCH  11  12
ATOM     12  N   UNL     1       1.877  -3.462   0.000  0.00  0.00    -0.203 NA
ATOM     13  C   UNL     1       1.392  -4.130   0.000  0.00  0.00    +0.241 C 
ATOM     14  O   UNL     1       1.728  -4.883   0.000  0.00  0.00    -0.273 OA
BRANCH  13  15
ATOM     15  C   UNL     1       0.572  -4.043   0.000  0.00  0.00    +0.078 C 
ATOM     16  C   UNL     1       0.020  -4.656   0.000  0.00  0.00    +0.009 C 
ATOM     17  C   UNL     1      -0.734  -4.321   0.000  0.00  0.00    +0.001 C 
ATOM     18  C   UNL     1      -0.648  -3.500   0.000  0.00  0.00    +0.001 C 
ATOM     19  C   UNL     1       0.159  -3.329   0.000  0.00  0.00    +0.009 C 
ENDBRANCH  13  15
ENDBRANCH  11  12
ENDBRANCH  10  11
TORSDOF 6
