MODEL 1
REMARK VINA RESULT:     -16.3      0.000      0.000
REMARK  Name = 
REMARK  5 active torsions:
REMARK  status: ('A' for Active; 'I' for Inactive)
REMARK    1  A    between atoms: C_2  and  C_3
REMARK    2  A    between atoms: C_11  and  C_12
REMARK    3  A    between atoms: C_12  and  C_13
REMARK    4  A    between atoms: N_15  and  C_16
REMARK    5  A    between atoms: C_28  and  C_30
REMARK                            x       y       z     vdW  Elec       q    Type
REMARK                         _______ _______ _______ _____ _____    ______ ____
ROOT
ATOM      1  C   UNL     1      -2.438  -2.817  24.652  0.00  0.00    +0.005 C 
ATOM      2  C   UNL     1      -2.732  -2.052  24.565  0.00  0.00    +0.059 C 
ATOM      5  C   UNL     1      -3.414  -2.485  24.404  0.00  0.00    +0.154 C 
ATOM      6  O   UNL     1      -3.394  -3.310  24.424  0.00  0.00    -0.223 OA
ATOM      7  C   UNL     1      -4.119  -2.094  24.223  0.00  0.00    +0.033 C 
ATOM      8  C   UNL     1      -4.139  -1.270  24.203  0.00  0.00    +0.003 C 
ATOM      9  C   UNL     1      -3.457  -0.837  24.364  0.00  0.00    +0.006 C 
ATOM     10  C   UNL     1      -4.160  -0.447  24.183  0.00  0.00    +0.000 C 
ATOM     11  C   UNL     1      -3.477  -0.012  24.344  0.00  0.00    +0.050 C 
ATOM     21  C   UNL     1      -2.795   0.422  24.506  0.00  0.00    +0.063 A 
ATOM     22  C   UNL     1      -2.091   0.031  24.687  0.00  0.00    +0.023 A 
ATOM     23  C   UNL     1      -2.070  -0.793  24.707  0.00  0.00    +0.034 C 
ATOM     24  C   UNL     1      -2.753  -1.228  24.546  0.00  0.00    +0.010 C 
ATOM     25  S   UNL     1      -1.510   0.602  24.820  0.00  0.00    -0.054 S 
ATOM     26  C   UNL     1      -1.854   1.345  24.722  0.00  0.00    +0.185 A 
ATOM     27  N   UNL     1      -1.472   2.071  24.803  0.00  0.00    -0.151 NA
ATOM     28  C   UNL     1      -1.890   2.772  24.687  0.00  0.00    +0.271 C 
ATOM     29  O   UNL     1      -2.691   2.748  24.490  0.00  0.00    -0.268 OA
ATOM     37  N   UNL     1      -2.648   1.233  24.527  0.00  0.00    -0.227 NA
ENDROOT
BRANCH  28  30
ATOM     30  C   UNL     1      -1.508   3.499  24.769  0.00  0.00    +0.056 A 
ATOM     31  C   UNL     1      -1.888   4.125  25.150  0.00  0.00    +0.007 A 
ATOM     32  C   UNL     1      -1.506   4.851  25.232  0.00  0.00    +0.030 A 
ATOM     33  C   UNL     1      -0.744   4.952  24.932  0.00  0.00    +0.140 A 
ATOM     34  F   UNL     1      -0.361   5.678  25.014  0.00  0.00    -0.204 F 
ATOM     35  C   UNL     1      -0.364   4.327  24.551  0.00  0.00    +0.030 A 
ATOM     36  C   UNL     1      -0.746   3.600  24.470  0.00  0.00    +0.007 A 
ENDBRANCH  28  30
BRANCH   2   3
ATOM      3  C   UNL     1      -1.947  -1.884  24.757  0.00  0.00    +0.184 C 
ATOM      4  O   UNL     1      -1.412  -2.500  24.880  0.00  0.00    -0.220 OA
ENDBRANCH   2   3
BRANCH  11  12
ATOM     12  C   UNL     1      -4.181   0.379  24.163  0.00  0.00    +0.093 C 
BRANCH  12  13
ATOM     13  C   UNL     1      -4.600   0.772  24.756  0.00  0.00    +0.242 C 
ATOM     14  O   UNL     1      -4.497   0.555  25.546  0.00  0.00    -0.273 OA
ATOM     15  N   UNL     1      -5.120   1.380  24.560  0.00  0.00    -0.207 NA
BRANCH  15  16
ATOM     16  C   UNL     1      -5.539   1.773  25.152  0.00  0.00    +0.095 C 
ATOM     17  C   UNL     1      -5.417   2.552  25.396  0.00  0.00    +0.022 C 
ATOM     18  C   UNL     1      -5.955   2.717  25.999  0.00  0.00    +0.002 C 
ATOM     19  C   UNL     1      -6.409   2.040  26.128  0.00  0.00    +0.002 C 
ATOM     20  C   UNL     1      -6.152   1.456  25.605  0.00  0.00    +0.022 C 
ENDBRANCH  15  16
ENDBRANCH  12  13
ENDBRANCH  11  12
TORSDOF 5
ENDMDL
MODEL 2
REMARK VINA RESULT:     -14.6      2.024      4.917
REMARK  Name = 
REMARK  5 active torsions:
REMARK  status: ('A' for Active; 'I' for Inactive)
REMARK    1  A    between atoms: C_2  and  C_3
REMARK    2  A    between atoms: C_11  and  C_12
REMARK    3  A    between atoms: C_12  and  C_13
REMARK    4  A    between atoms: N_15  and  C_16
REMARK    5  A    between atoms: C_28  and  C_30
REMARK                            x       y       z     vdW  Elec       q    Type
REMARK                         _______ _______ _______ _____ _____    ______ ____
ROOT
ATOM      1  C   UNL     1      -0.196   4.121  25.279  0.00  0.00    +0.005 C 
ATOM      2  C   UNL     1      -0.898   3.731  25.090  0.00  0.00    +0.059 C 
ATOM      5  C   UNL     1      -1.146   4.514  25.022  0.00  0.00    +0.154 C 
ATOM      6  O   UNL     1      -0.616   5.130  25.165  0.00  0.00    -0.223 OA
ATOM      7  C   UNL     1      -1.927   4.683  24.812  0.00  0.00    +0.033 C 
ATOM      8  C   UNL     1      -2.457   4.068  24.669  0.00  0.00    +0.003 C 
ATOM      9  C   UNL     1      -2.209   3.285  24.737  0.00  0.00    +0.006 C 
ATOM     10  C   UNL     1      -2.987   3.453  24.527  0.00  0.00    +0.000 C 
ATOM     11  C   UNL     1      -2.739   2.669  24.595  0.00  0.00    +0.050 C 
ATOM     21  C   UNL     1      -2.491   1.886  24.662  0.00  0.00    +0.063 A 
ATOM     22  C   UNL     1      -1.710   1.717  24.873  0.00  0.00    +0.023 A 
ATOM     23  C   UNL     1      -1.180   2.332  25.015  0.00  0.00    +0.034 C 
ATOM     24  C   UNL     1      -1.428   3.116  24.948  0.00  0.00    +0.010 C 
ATOM     25  S   UNL     1      -1.625   0.897  24.897  0.00  0.00    -0.054 S 
ATOM     26  C   UNL     1      -2.351   0.558  24.701  0.00  0.00    +0.185 A 
ATOM     27  N   UNL     1      -2.514  -0.250  24.658  0.00  0.00    -0.151 NA
ATOM     28  C   UNL     1      -3.270  -0.507  24.455  0.00  0.00    +0.271 C 
ATOM     29  O   UNL     1      -3.864   0.042  24.294  0.00  0.00    -0.268 OA
ATOM     37  N   UNL     1      -2.886   1.169  24.557  0.00  0.00    -0.227 NA
ENDROOT
BRANCH  28  30
ATOM     30  C   UNL     1      -3.433  -1.315  24.412  0.00  0.00    +0.056 A 
ATOM     31  C   UNL     1      -3.987  -1.596  23.868  0.00  0.00    +0.007 A 
ATOM     32  C   UNL     1      -4.150  -2.404  23.825  0.00  0.00    +0.030 A 
ATOM     33  C   UNL     1      -3.758  -2.930  24.326  0.00  0.00    +0.140 A 
ATOM     34  F   UNL     1      -3.921  -3.738  24.282  0.00  0.00    -0.204 F 
ATOM     35  C   UNL     1      -3.205  -2.650  24.868  0.00  0.00    +0.030 A 
ATOM     36  C   UNL     1      -3.042  -1.842  24.912  0.00  0.00    +0.007 A 
ENDBRANCH  28  30
BRANCH   2   3
ATOM      3  C   UNL     1      -0.405   3.083  25.224  0.00  0.00    +0.184 C 
ATOM      4  O   UNL     1       0.360   3.199  25.512  0.00  0.00    -0.220 OA
ENDBRANCH   2   3
BRANCH  11  12
ATOM     12  C   UNL     1      -3.519   2.837  24.384  0.00  0.00    +0.093 C 
BRANCH  12  13
ATOM     13  C   UNL     1      -4.130   2.708  24.925  0.00  0.00    +0.242 C 
ATOM     14  O   UNL     1      -3.965   2.680  25.733  0.00  0.00    -0.273 OA
ATOM     15  N   UNL     1      -4.902   2.607  24.657  0.00  0.00    -0.207 NA
BRANCH  15  16
ATOM     16  C   UNL     1      -5.513   2.478  25.197  0.00  0.00    +0.095 C 
ATOM     17  C   UNL     1      -5.967   1.791  25.259  0.00  0.00    +0.022 C 
ATOM     18  C   UNL     1      -6.512   1.901  25.869  0.00  0.00    +0.002 C 
ATOM     19  C   UNL     1      -6.393   2.655  26.184  0.00  0.00    +0.002 C 
ATOM     20  C   UNL     1      -5.776   3.011  25.769  0.00  0.00    +0.022 C 
ENDBRANCH  15  16
ENDBRANCH  12  13
ENDBRANCH  11  12
TORSDOF 5
ENDMDL
MODEL 3
REMARK VINA RESULT:     -14.0      1.729      3.540
REMARK  Name = 
REMARK  5 active torsions:
REMARK  status: ('A' for Active; 'I' for Inactive)
REMARK    1  A    between atoms: C_2  and  C_3
REMARK    2  A    between atoms: C_11  and  C_12
REMARK    3  A    between atoms: C_12  and  C_13
REMARK    4  A    between atoms: N_15  and  C_16
REMARK    5  A    between atoms: C_28  and  C_30
REMARK                            x       y       z     vdW  Elec       q    Type
REMARK                         _______ _______ _______ _____ _____    ______ ____
ROOT
ATOM      1  C   UNL     1      -4.154  -2.239  24.275  0.00  0.00    +0.005 C 
ATOM      2  C   UNL     1      -3.490  -1.762  24.388  0.00  0.00    +0.059 C 
ATOM      5  C   UNL     1      -3.131  -2.503  24.362  0.00  0.00    +0.154 C 
ATOM      6  O   UNL     1      -3.588  -3.181  24.254  0.00  0.00    -0.223 OA
ATOM      7  C   UNL     1      -2.311  -2.568  24.445  0.00  0.00    +0.033 C 
ATOM      8  C   UNL     1      -1.854  -1.891  24.553  0.00  0.00    +0.003 C 
ATOM      9  C   UNL     1      -2.213  -1.149  24.579  0.00  0.00    +0.006 C 
ATOM     10  C   UNL     1      -1.396  -1.213  24.661  0.00  0.00    +0.000 C 
ATOM     11  C   UNL     1      -1.756  -0.471  24.687  0.00  0.00    +0.050 C 
ATOM     21  C   UNL     1      -2.116   0.270  24.713  0.00  0.00    +0.063 A 
ATOM     22  C   UNL     1      -2.935   0.334  24.630  0.00  0.00    +0.023 A 
ATOM     23  C   UNL     1      -3.393  -0.343  24.522  0.00  0.00    +0.034 C 
ATOM     24  C   UNL     1      -3.033  -1.085  24.496  0.00  0.00    +0.010 C 
ATOM     25  S   UNL     1      -3.133   1.134  24.678  0.00  0.00    -0.054 S 
ATOM     26  C   UNL     1      -2.438   1.564  24.791  0.00  0.00    +0.185 A 
ATOM     27  N   UNL     1      -2.382   2.383  24.868  0.00  0.00    -0.151 NA
ATOM     28  C   UNL     1      -1.646   2.737  24.978  0.00  0.00    +0.271 C 
ATOM     29  O   UNL     1      -0.964   2.272  25.011  0.00  0.00    -0.268 OA
ATOM     37  N   UNL     1      -1.810   1.030  24.812  0.00  0.00    -0.227 NA
ENDROOT
BRANCH  28  30
ATOM     30  C   UNL     1      -1.589   3.556  25.055  0.00  0.00    +0.056 A 
ATOM     31  C   UNL     1      -2.195   3.979  25.423  0.00  0.00    +0.007 A 
ATOM     32  C   UNL     1      -2.139   4.798  25.501  0.00  0.00    +0.030 A 
ATOM     33  C   UNL     1      -1.476   5.195  25.210  0.00  0.00    +0.140 A 
ATOM     34  F   UNL     1      -1.420   6.014  25.287  0.00  0.00    -0.204 F 
ATOM     35  C   UNL     1      -0.871   4.773  24.842  0.00  0.00    +0.030 A 
ATOM     36  C   UNL     1      -0.927   3.954  24.765  0.00  0.00    +0.007 A 
ENDBRANCH  28  30
BRANCH   2   3
ATOM      3  C   UNL     1      -4.081  -1.187  24.375  0.00  0.00    +0.184 C 
ATOM      4  O   UNL     1      -4.850  -1.389  24.154  0.00  0.00    -0.220 OA
ENDBRANCH   2   3
BRANCH  11  12
ATOM     12  C   UNL     1      -0.938  -0.535  24.770  0.00  0.00    +0.093 C 
BRANCH  12  13
ATOM     13  C   UNL     1      -0.441  -0.322  24.145  0.00  0.00    +0.242 C 
ATOM     14  O   UNL     1      -0.764  -0.132  23.410  0.00  0.00    -0.273 OA
ATOM     15  N   UNL     1       0.375  -0.298  24.256  0.00  0.00    -0.207 NA
BRANCH  15  16
ATOM     16  C   UNL     1       0.871  -0.085  23.633  0.00  0.00    +0.095 C 
ATOM     17  C   UNL     1       1.025  -0.538  22.960  0.00  0.00    +0.022 C 
ATOM     18  C   UNL     1       1.549  -0.115  22.483  0.00  0.00    +0.002 C 
ATOM     19  C   UNL     1       1.718   0.599  22.862  0.00  0.00    +0.002 C 
ATOM     20  C   UNL     1       1.299   0.618  23.572  0.00  0.00    +0.022 C 
ENDBRANCH  15  16
ENDBRANCH  12  13
ENDBRANCH  11  12
TORSDOF 5
ENDMDL
MODEL 4
REMARK VINA RESULT:     -13.9      2.401      5.972
REMARK  Name = 
REMARK  5 active torsions:
REMARK  status: ('A' for Active; 'I' for Inactive)
REMARK    1  A    between atoms: C_2  and  C_3
REMARK    2  A    between atoms: C_11  and  C_12
REMARK    3  A    between atoms: C_12  and  C_13
REMARK    4  A    between atoms: N_15  and  C_16
REMARK    5  A    between atoms: C_28  and  C_30
REMARK                            x       y       z     vdW  Elec       q    Type
REMARK                         _______ _______ _______ _____ _____    ______ ____
ROOT
ATOM      1  C   UNL     1      -2.497   4.857  25.110  0.00  0.00    +0.005 C 
ATOM      2  C   UNL     1      -2.177   4.097  25.089  0.00  0.00    +0.059 C 
ATOM      5  C   UNL     1      -1.493   4.537  25.226  0.00  0.00    +0.154 C 
ATOM      6  O   UNL     1      -1.536   5.358  25.292  0.00  0.00    -0.223 OA
ATOM      7  C   UNL     1      -0.764   4.155  25.297  0.00  0.00    +0.033 C 
ATOM      8  C   UNL     1      -0.720   3.335  25.231  0.00  0.00    +0.003 C 
ATOM      9  C   UNL     1      -1.404   2.895  25.094  0.00  0.00    +0.006 C 
ATOM     10  C   UNL     1      -0.677   2.514  25.165  0.00  0.00    +0.000 C 
ATOM     11  C   UNL     1      -1.361   2.073  25.028  0.00  0.00    +0.050 C 
ATOM     21  C   UNL     1      -2.044   1.634  24.891  0.00  0.00    +0.063 A 
ATOM     22  C   UNL     1      -2.774   2.015  24.820  0.00  0.00    +0.023 A 
ATOM     23  C   UNL     1      -2.817   2.836  24.886  0.00  0.00    +0.034 C 
ATOM     24  C   UNL     1      -2.133   3.276  25.023  0.00  0.00    +0.010 C 
ATOM     25  S   UNL     1      -3.350   1.440  24.687  0.00  0.00    -0.054 S 
ATOM     26  C   UNL     1      -2.978   0.703  24.676  0.00  0.00    +0.185 A 
ATOM     27  N   UNL     1      -3.348  -0.025  24.558  0.00  0.00    -0.151 NA
ATOM     28  C   UNL     1      -2.902  -0.718  24.561  0.00  0.00    +0.271 C 
ATOM     29  O   UNL     1      -2.087  -0.685  24.681  0.00  0.00    -0.268 OA
ATOM     37  N   UNL     1      -2.172   0.823  24.802  0.00  0.00    -0.227 NA
ENDROOT
BRANCH  28  30
ATOM     30  C   UNL     1      -3.272  -1.446  24.444  0.00  0.00    +0.056 A 
ATOM     31  C   UNL     1      -3.028  -2.108  24.874  0.00  0.00    +0.007 A 
ATOM     32  C   UNL     1      -3.397  -2.836  24.757  0.00  0.00    +0.030 A 
ATOM     33  C   UNL     1      -4.012  -2.903  24.210  0.00  0.00    +0.140 A 
ATOM     34  F   UNL     1      -4.381  -3.631  24.093  0.00  0.00    -0.204 F 
ATOM     35  C   UNL     1      -4.256  -2.243  23.781  0.00  0.00    +0.030 A 
ATOM     36  C   UNL     1      -3.886  -1.515  23.898  0.00  0.00    +0.007 A 
ENDBRANCH  28  30
BRANCH   2   3
ATOM      3  C   UNL     1      -2.972   3.921  24.959  0.00  0.00    +0.184 C 
ATOM      4  O   UNL     1      -3.528   4.530  24.916  0.00  0.00    -0.220 OA
ENDBRANCH   2   3
BRANCH  11  12
ATOM     12  C   UNL     1      -0.633   1.692  25.099  0.00  0.00    +0.093 C 
BRANCH  12  13
ATOM     13  C   UNL     1      -0.247   1.410  24.426  0.00  0.00    +0.242 C 
ATOM     14  O   UNL     1      -0.441   1.712  23.683  0.00  0.00    -0.273 OA
ATOM     15  N   UNL     1       0.332   0.828  24.496  0.00  0.00    -0.207 NA
BRANCH  15  16
ATOM     16  C   UNL     1       0.718   0.546  23.824  0.00  0.00    +0.095 C 
ATOM     17  C   UNL     1       0.527  -0.141  23.408  0.00  0.00    +0.022 C 
ATOM     18  C   UNL     1       1.053  -0.211  22.776  0.00  0.00    +0.002 C 
ATOM     19  C   UNL     1       1.569   0.433  22.802  0.00  0.00    +0.002 C 
ATOM     20  C   UNL     1       1.362   0.901  23.449  0.00  0.00    +0.022 C 
ENDBRANCH  15  16
ENDBRANCH  12  13
ENDBRANCH  11  12
TORSDOF 5
ENDMDL
MODEL 5
REMARK VINA RESULT:     -13.8      2.180      4.265
REMARK  Name = 
REMARK  5 active torsions:
REMARK  status: ('A' for Active; 'I' for Inactive)
REMARK    1  A    between atoms: C_2  and  C_3
REMARK    2  A    between atoms: C_11  and  C_12
REMARK    3  A    between atoms: C_12  and  C_13
REMARK    4  A    between atoms: N_15  and  C_16
REMARK    5  A    between atoms: C_28  and  C_30
REMARK                            x       y       z     vdW  Elec       q    Type
REMARK                         _______ _______ _______ _____ _____    ______ ____
ROOT
ATOM      1  C   UNL     1      -4.775   3.672  25.763  0.00  0.00    +0.005 C 
ATOM      2  C   UNL     1      -4.443   3.021  25.381  0.00  0.00    +0.059 C 
ATOM      5  C   UNL     1      -5.236   2.795  25.386  0.00  0.00    +0.154 C 
ATOM      6  O   UNL     1      -5.804   3.289  25.724  0.00  0.00    -0.223 OA
ATOM      7  C   UNL     1      -5.462   2.074  25.053  0.00  0.00    +0.033 C 
ATOM      8  C   UNL     1      -4.894   1.580  24.715  0.00  0.00    +0.003 C 
ATOM      9  C   UNL     1      -4.101   1.806  24.710  0.00  0.00    +0.006 C 
ATOM     10  C   UNL     1      -4.327   1.087  24.377  0.00  0.00    +0.000 C 
ATOM     11  C   UNL     1      -3.533   1.313  24.372  0.00  0.00    +0.050 C 
ATOM     21  C   UNL     1      -2.740   1.539  24.367  0.00  0.00    +0.063 A 
ATOM     22  C   UNL     1      -2.514   2.260  24.700  0.00  0.00    +0.023 A 
ATOM     23  C   UNL     1      -3.082   2.753  25.038  0.00  0.00    +0.034 C 
ATOM     24  C   UNL     1      -3.876   2.528  25.043  0.00  0.00    +0.010 C 
ATOM     25  S   UNL     1      -1.697   2.335  24.614  0.00  0.00    -0.054 S 
ATOM     26  C   UNL     1      -1.418   1.661  24.228  0.00  0.00    +0.185 A 
ATOM     27  N   UNL     1      -0.632   1.507  24.030  0.00  0.00    -0.151 NA
ATOM     28  C   UNL     1      -0.435   0.806  23.643  0.00  0.00    +0.271 C 
ATOM     29  O   UNL     1      -1.023   0.259  23.453  0.00  0.00    -0.268 OA
ATOM     37  N   UNL     1      -2.062   1.170  24.076  0.00  0.00    -0.227 NA
ENDROOT
BRANCH  28  30
ATOM     30  C   UNL     1       0.351   0.652  23.445  0.00  0.00    +0.056 A 
ATOM     31  C   UNL     1       0.551  -0.056  23.069  0.00  0.00    +0.007 A 
ATOM     32  C   UNL     1       1.337  -0.210  22.871  0.00  0.00    +0.030 A 
ATOM     33  C   UNL     1       1.923   0.343  23.049  0.00  0.00    +0.140 A 
ATOM     34  F   UNL     1       2.709   0.188  22.850  0.00  0.00    -0.204 F 
ATOM     35  C   UNL     1       1.724   1.050  23.423  0.00  0.00    +0.030 A 
ATOM     36  C   UNL     1       0.938   1.204  23.622  0.00  0.00    +0.007 A 
ENDBRANCH  28  30
BRANCH   2   3
ATOM      3  C   UNL     1      -3.765   3.474  25.509  0.00  0.00    +0.184 C 
ATOM      4  O   UNL     1      -3.818   4.191  25.913  0.00  0.00    -0.220 OA
ENDBRANCH   2   3
BRANCH  11  12
ATOM     12  C   UNL     1      -3.759   0.592  24.039  0.00  0.00    +0.093 C 
BRANCH  12  13
ATOM     13  C   UNL     1      -3.589  -0.115  24.430  0.00  0.00    +0.242 C 
ATOM     14  O   UNL     1      -3.412  -0.107  25.236  0.00  0.00    -0.273 OA
ATOM     15  N   UNL     1      -3.596  -0.827  24.016  0.00  0.00    -0.207 NA
BRANCH  15  16
ATOM     16  C   UNL     1      -3.427  -1.534  24.407  0.00  0.00    +0.095 C 
ATOM     17  C   UNL     1      -3.920  -1.921  24.943  0.00  0.00    +0.022 C 
ATOM     18  C   UNL     1      -3.533  -2.604  25.198  0.00  0.00    +0.002 C 
ATOM     19  C   UNL     1      -2.801  -2.638  24.819  0.00  0.00    +0.002 C 
ATOM     20  C   UNL     1      -2.735  -1.977  24.330  0.00  0.00    +0.022 C 
ENDBRANCH  15  16
ENDBRANCH  12  13
ENDBRANCH  11  12
TORSDOF 5
ENDMDL
MODEL 6
REMARK VINA RESULT:     -13.5      1.578      3.518
REMARK  Name = 
REMARK  5 active torsions:
REMARK  status: ('A' for Active; 'I' for Inactive)
REMARK    1  A    between atoms: C_2  and  C_3
REMARK    2  A    between atoms: C_11  and  C_12
REMARK    3  A    between atoms: C_12  and  C_13
REMARK    4  A    between atoms: N_15  and  C_16
REMARK    5  A    between atoms: C_28  and  C_30
REMARK                            x       y       z     vdW  Elec       q    Type
REMARK                         _______ _______ _______ _____ _____    ______ ____
ROOT
ATOM      1  C   UNL     1      -3.342  -3.012  24.034  0.00  0.00    +0.005 C 
ATOM      2  C   UNL     1      -3.140  -2.274  24.340  0.00  0.00    +0.059 C 
ATOM      5  C   UNL     1      -2.432  -2.678  24.465  0.00  0.00    +0.154 C 
ATOM      6  O   UNL     1      -2.363  -3.469  24.239  0.00  0.00    -0.223 OA
ATOM      7  C   UNL     1      -1.792  -2.292  24.815  0.00  0.00    +0.033 C 
ATOM      8  C   UNL     1      -1.860  -1.502  25.041  0.00  0.00    +0.003 C 
ATOM      9  C   UNL     1      -2.568  -1.098  24.917  0.00  0.00    +0.006 C 
ATOM     10  C   UNL     1      -1.929  -0.712  25.267  0.00  0.00    +0.000 C 
ATOM     11  C   UNL     1      -2.637  -0.307  25.143  0.00  0.00    +0.050 C 
ATOM     21  C   UNL     1      -3.344   0.098  25.018  0.00  0.00    +0.063 A 
ATOM     22  C   UNL     1      -3.984  -0.288  24.667  0.00  0.00    +0.023 A 
ATOM     23  C   UNL     1      -3.916  -1.078  24.442  0.00  0.00    +0.034 C 
ATOM     24  C   UNL     1      -3.208  -1.484  24.566  0.00  0.00    +0.010 C 
ATOM     25  S   UNL     1      -4.608   0.250  24.615  0.00  0.00    -0.054 S 
ATOM     26  C   UNL     1      -4.354   0.967  24.933  0.00  0.00    +0.185 A 
ATOM     27  N   UNL     1      -4.802   1.657  24.991  0.00  0.00    -0.151 NA
ATOM     28  C   UNL     1      -4.472   2.336  25.324  0.00  0.00    +0.271 C 
ATOM     29  O   UNL     1      -3.694   2.325  25.598  0.00  0.00    -0.268 OA
ATOM     37  N   UNL     1      -3.573   0.873  25.182  0.00  0.00    -0.227 NA
ENDROOT
BRANCH  28  30
ATOM     30  C   UNL     1      -4.920   3.026  25.382  0.00  0.00    +0.056 A 
ATOM     31  C   UNL     1      -4.604   3.747  25.133  0.00  0.00    +0.007 A 
ATOM     32  C   UNL     1      -5.052   4.437  25.191  0.00  0.00    +0.030 A 
ATOM     33  C   UNL     1      -5.817   4.406  25.500  0.00  0.00    +0.140 A 
ATOM     34  F   UNL     1      -6.265   5.097  25.558  0.00  0.00    -0.204 F 
ATOM     35  C   UNL     1      -6.133   3.687  25.749  0.00  0.00    +0.030 A 
ATOM     36  C   UNL     1      -5.685   2.997  25.690  0.00  0.00    +0.007 A 
ENDBRANCH  28  30
BRANCH   2   3
ATOM      3  C   UNL     1      -3.917  -2.126  24.109  0.00  0.00    +0.184 C 
ATOM      4  O   UNL     1      -4.355  -2.715  23.732  0.00  0.00    -0.220 OA
ENDBRANCH   2   3
BRANCH  11  12
ATOM     12  C   UNL     1      -1.997   0.079  25.493  0.00  0.00    +0.093 C 
BRANCH  12  13
ATOM     13  C   UNL     1      -1.546   0.613  25.054  0.00  0.00    +0.242 C 
ATOM     14  O   UNL     1      -1.615   0.632  24.232  0.00  0.00    -0.273 OA
ATOM     15  N   UNL     1      -1.028   1.127  25.437  0.00  0.00    -0.207 NA
BRANCH  15  16
ATOM     16  C   UNL     1      -0.577   1.661  24.998  0.00  0.00    +0.095 C 
ATOM     17  C   UNL     1      -0.745   2.462  24.889  0.00  0.00    +0.022 C 
ATOM     18  C   UNL     1      -0.152   2.785  24.416  0.00  0.00    +0.002 C 
ATOM     19  C   UNL     1       0.383   2.183  24.233  0.00  0.00    +0.002 C 
ATOM     20  C   UNL     1       0.121   1.489  24.593  0.00  0.00    +0.022 C 
ENDBRANCH  15  16
ENDBRANCH  12  13
ENDBRANCH  11  12
TORSDOF 5
ENDMDL
MODEL 7
REMARK VINA RESULT:     -13.1      2.342      5.645
REMARK  Name = 
REMARK  5 active torsions:
REMARK  status: ('A' for Active; 'I' for Inactive)
REMARK    1  A    between atoms: C_2  and  C_3
REMARK    2  A    between atoms: C_11  and  C_12
REMARK    3  A    between atoms: C_12  and  C_13
REMARK    4  A    between atoms: N_15  and  C_16
REMARK    5  A    between atoms: C_28  and  C_30
REMARK                            x       y       z     vdW  Elec       q    Type
REMARK                         _______ _______ _______ _____ _____    ______ ____
ROOT
ATOM      1  C   UNL     1      -5.732   4.119  25.727  0.00  0.00    +0.005 C 
ATOM      2  C   UNL     1      -5.183   3.633  25.348  0.00  0.00    +0.059 C 
ATOM      5  C   UNL     1      -4.887   4.374  25.139  0.00  0.00    +0.154 C 
ATOM      6  O   UNL     1      -5.267   5.059  25.399  0.00  0.00    -0.223 OA
ATOM      7  C   UNL     1      -4.210   4.431  24.669  0.00  0.00    +0.033 C 
ATOM      8  C   UNL     1      -3.831   3.747  24.409  0.00  0.00    +0.003 C 
ATOM      9  C   UNL     1      -4.126   3.006  24.618  0.00  0.00    +0.006 C 
ATOM     10  C   UNL     1      -3.451   3.063  24.149  0.00  0.00    +0.000 C 
ATOM     11  C   UNL     1      -3.747   2.321  24.357  0.00  0.00    +0.050 C 
ATOM     21  C   UNL     1      -4.043   1.581  24.566  0.00  0.00    +0.063 A 
ATOM     22  C   UNL     1      -4.719   1.524  25.036  0.00  0.00    +0.023 A 
ATOM     23  C   UNL     1      -5.099   2.208  25.297  0.00  0.00    +0.034 C 
ATOM     24  C   UNL     1      -4.803   2.949  25.088  0.00  0.00    +0.010 C 
ATOM     25  S   UNL     1      -4.881   0.723  25.153  0.00  0.00    -0.054 S 
ATOM     26  C   UNL     1      -4.306   0.285  24.756  0.00  0.00    +0.185 A 
ATOM     27  N   UNL     1      -4.258  -0.538  24.726  0.00  0.00    -0.151 NA
ATOM     28  C   UNL     1      -3.649  -0.900  24.305  0.00  0.00    +0.271 C 
ATOM     29  O   UNL     1      -3.087  -0.440  23.913  0.00  0.00    -0.268 OA
ATOM     37  N   UNL     1      -3.788   0.815  24.393  0.00  0.00    -0.227 NA
ENDROOT
BRANCH  28  30
ATOM     30  C   UNL     1      -3.600  -1.723  24.275  0.00  0.00    +0.056 A 
ATOM     31  C   UNL     1      -2.994  -2.116  24.675  0.00  0.00    +0.007 A 
ATOM     32  C   UNL     1      -2.945  -2.939  24.645  0.00  0.00    +0.030 A 
ATOM     33  C   UNL     1      -3.503  -3.369  24.216  0.00  0.00    +0.140 A 
ATOM     34  F   UNL     1      -3.455  -4.192  24.186  0.00  0.00    -0.204 F 
ATOM     35  C   UNL     1      -4.109  -2.977  23.817  0.00  0.00    +0.030 A 
ATOM     36  C   UNL     1      -4.157  -2.154  23.846  0.00  0.00    +0.007 A 
ENDBRANCH  28  30
BRANCH   2   3
ATOM      3  C   UNL     1      -5.669   3.061  25.689  0.00  0.00    +0.184 C 
ATOM      4  O   UNL     1      -6.297   3.289  26.173  0.00  0.00    -0.220 OA
ENDBRANCH   2   3
BRANCH  11  12
ATOM     12  C   UNL     1      -3.071   2.378  23.888  0.00  0.00    +0.093 C 
BRANCH  12  13
ATOM     13  C   UNL     1      -2.325   2.260  24.222  0.00  0.00    +0.242 C 
ATOM     14  O   UNL     1      -2.240   2.238  25.042  0.00  0.00    -0.273 OA
ATOM     15  N   UNL     1      -1.666   2.165  23.736  0.00  0.00    -0.207 NA
BRANCH  15  16
ATOM     16  C   UNL     1      -0.921   2.047  24.069  0.00  0.00    +0.095 C 
ATOM     17  C   UNL     1      -0.515   1.329  24.106  0.00  0.00    +0.022 C 
ATOM     18  C   UNL     1       0.206   1.464  24.483  0.00  0.00    +0.002 C 
ATOM     19  C   UNL     1       0.246   2.265  24.679  0.00  0.00    +0.002 C 
ATOM     20  C   UNL     1      -0.451   2.625  24.424  0.00  0.00    +0.022 C 
ENDBRANCH  15  16
ENDBRANCH  12  13
ENDBRANCH  11  12
TORSDOF 5
ENDMDL
