MODEL 1
REMARK VINA RESULT:     -11.4      0.000      0.000
REMARK  Name = 
REMARK  8 active torsions:
REMARK  status: ('A' for Active; 'I' for Inactive)
REMARK    1  A    between atoms: C_2  and  N_4
REMARK    2  A    between atoms: N_7  and  C_8
REMARK    3  A    between atoms: C_10  and  C_21
REMARK    4  A    between atoms: C_13  and  C_15
REMARK    5  A    between atoms: N_23  and  C_24
REMARK    6  A    between atoms: C_24  and  C_25
REMARK    7  A    between atoms: C_24  and  C_35
REMARK    8  A    between atoms: C_25  and  C_26
REMARK                            x       y       z     vdW  Elec       q    Type
REMARK                         _______ _______ _______ _____ _____    ______ ____
ROOT
ATOM      8  C   UNL     1      -3.286   2.462  24.154  0.00  0.00    +0.119 C 
ATOM      9  C   UNL     1      -2.961   1.714  24.277  0.00  0.00    +0.053 C 
ATOM     10  C   UNL     1      -2.213   1.813  24.611  0.00  0.00    +0.156 C 
ATOM     11  N   UNL     1      -2.076   2.623  24.693  0.00  0.00    -0.266 N 
ATOM     12  C   UNL     1      -2.739   3.024  24.411  0.00  0.00    +0.116 C 
ATOM     13  C   UNL     1      -1.395   2.970  25.004  0.00  0.00    +0.265 C 
ATOM     14  O   UNL     1      -0.773   2.496  25.266  0.00  0.00    -0.268 OA
ENDROOT
BRANCH  13  15
ATOM     15  C   UNL     1      -1.337   3.792  25.052  0.00  0.00    +0.114 A 
ATOM     16  C   UNL     1      -1.829   4.287  25.490  0.00  0.00    +0.023 A 
ATOM     17  C   UNL     1      -1.573   5.065  25.380  0.00  0.00    +0.020 A 
ATOM     18  C   UNL     1      -0.923   5.048  24.873  0.00  0.00    +0.076 A 
ATOM     19  N   UNL     1      -0.776   4.261  24.670  0.00  0.00    -0.320 N 
ATOM     20  C   UNL     1      -0.176   3.993  24.173  0.00  0.00    +0.131 C 
ENDBRANCH  13  15
BRANCH   8   7
ATOM      4  N   UNL     1      -4.637   2.352  25.095  0.00  0.00    -0.189 NA
ATOM      5  C   UNL     1      -4.704   2.565  24.301  0.00  0.00    +0.339 C 
ATOM      6  O   UNL     1      -5.446   2.724  23.977  0.00  0.00    -0.249 OA
ATOM      7  N   UNL     1      -4.029   2.620  23.830  0.00  0.00    -0.187 NA
BRANCH   4   2
ATOM      1  C   UNL     1      -5.728   1.586  25.610  0.00  0.00    +0.023 C 
ATOM      2  C   UNL     1      -5.313   2.298  25.565  0.00  0.00    +0.097 C 
ATOM      3  C   UNL     1      -5.575   2.955  25.990  0.00  0.00    +0.023 C 
ENDBRANCH   4   2
ENDBRANCH   8   7
BRANCH  10  21
ATOM     21  C   UNL     1      -1.693   1.209  24.824  0.00  0.00    +0.260 C 
ATOM     22  O   UNL     1      -1.317   1.229  25.557  0.00  0.00    -0.272 OA
ATOM     23  N   UNL     1      -1.550   0.585  24.304  0.00  0.00    -0.196 NA
BRANCH  23  24
ATOM     24  C   UNL     1      -1.031  -0.019  24.517  0.00  0.00    +0.179 C 
BRANCH  24  35
ATOM     35  C   UNL     1      -0.255  -0.014  24.234  0.00  0.00    +0.281 C 
ATOM     36  N   UNL     1      -0.109   0.154  23.439  0.00  0.00    -0.086 NA
ATOM     37  O   UNL     1       0.372  -0.177  24.743  0.00  0.00    -0.270 OA
ENDBRANCH  24  35
BRANCH  24  25
ATOM     25  C   UNL     1      -1.285  -0.627  25.013  0.00  0.00    +0.059 C 
BRANCH  25  26
ATOM     26  C   UNL     1      -1.618  -1.310  24.692  0.00  0.00    +0.001 A 
ATOM     27  C   UNL     1      -1.320  -1.741  24.054  0.00  0.00    +0.095 A 
ATOM     28  N   UNL     1      -1.825  -2.379  23.920  0.00  0.00    -0.244 NA
ATOM     29  C   UNL     1      -2.435  -2.342  24.473  0.00  0.00    +0.081 A 
ATOM     30  C   UNL     1      -2.307  -1.681  24.950  0.00  0.00    +0.015 A 
ATOM     31  C   UNL     1      -2.836  -1.504  25.559  0.00  0.00    +0.001 A 
ATOM     32  C   UNL     1      -3.491  -1.986  25.690  0.00  0.00    +0.000 A 
ATOM     33  C   UNL     1      -3.619  -2.647  25.213  0.00  0.00    +0.002 A 
ATOM     34  C   UNL     1      -3.092  -2.825  24.605  0.00  0.00    +0.019 A 
ENDBRANCH  25  26
ENDBRANCH  24  25
ENDBRANCH  23  24
ENDBRANCH  10  21
TORSDOF 8
ENDMDL
MODEL 2
REMARK VINA RESULT:     -11.1      1.380      5.028
REMARK  Name = 
REMARK  8 active torsions:
REMARK  status: ('A' for Active; 'I' for Inactive)
REMARK    1  A    between atoms: C_2  and  N_4
REMARK    2  A    between atoms: N_7  and  C_8
REMARK    3  A    between atoms: C_10  and  C_21
REMARK    4  A    between atoms: C_13  and  C_15
REMARK    5  A    between atoms: N_23  and  C_24
REMARK    6  A    between atoms: C_24  and  C_25
REMARK    7  A    between atoms: C_24  and  C_35
REMARK    8  A    between atoms: C_25  and  C_26
REMARK                            x       y       z     vdW  Elec       q    Type
REMARK                         _______ _______ _______ _____ _____    ______ ____
ROOT
ATOM      8  C   UNL     1      -2.723  -0.596  25.207  0.00  0.00    +0.119 C 
ATOM      9  C   UNL     1      -3.249   0.013  25.028  0.00  0.00    +0.053 C 
ATOM     10  C   UNL     1      -2.856   0.556  24.547  0.00  0.00    +0.156 C 
ATOM     11  N   UNL     1      -2.087   0.281  24.428  0.00  0.00    -0.266 N 
ATOM     12  C   UNL     1      -2.005  -0.431  24.836  0.00  0.00    +0.116 C 
ATOM     13  C   UNL     1      -1.503   0.653  23.980  0.00  0.00    +0.265 C 
ATOM     14  O   UNL     1      -1.666   1.367  23.601  0.00  0.00    -0.268 OA
ENDROOT
BRANCH  13  15
ATOM     15  C   UNL     1      -0.755   0.311  23.911  0.00  0.00    +0.114 A 
ATOM     16  C   UNL     1      -0.592  -0.440  23.611  0.00  0.00    +0.023 A 
ATOM     17  C   UNL     1       0.225  -0.556  23.644  0.00  0.00    +0.020 A 
ATOM     18  C   UNL     1       0.565   0.123  23.965  0.00  0.00    +0.076 A 
ATOM     19  N   UNL     1      -0.040   0.659  24.130  0.00  0.00    -0.320 N 
ATOM     20  C   UNL     1       0.054   1.410  24.456  0.00  0.00    +0.131 C 
ENDBRANCH  13  15
BRANCH   8   7
ATOM      4  N   UNL     1      -3.427  -1.929  24.536  0.00  0.00    -0.189 NA
ATOM      5  C   UNL     1      -3.239  -1.923  25.339  0.00  0.00    +0.339 C 
ATOM      6  O   UNL     1      -3.402  -2.582  25.807  0.00  0.00    -0.249 OA
ATOM      7  N   UNL     1      -2.887  -1.256  25.675  0.00  0.00    -0.187 NA
BRANCH   4   2
ATOM      1  C   UNL     1      -4.500  -2.528  23.806  0.00  0.00    +0.023 C 
ATOM      2  C   UNL     1      -3.778  -2.596  24.200  0.00  0.00    +0.097 C 
ATOM      3  C   UNL     1      -3.409  -3.332  24.260  0.00  0.00    +0.023 C 
ENDBRANCH   4   2
ENDBRANCH   8   7
BRANCH  10  21
ATOM     21  C   UNL     1      -3.175   1.251  24.238  0.00  0.00    +0.260 C 
ATOM     22  O   UNL     1      -3.224   1.355  23.421  0.00  0.00    -0.272 OA
ATOM     23  N   UNL     1      -3.447   1.842  24.746  0.00  0.00    -0.196 NA
BRANCH  23  24
ATOM     24  C   UNL     1      -3.766   2.537  24.438  0.00  0.00    +0.179 C 
BRANCH  24  35
ATOM     35  C   UNL     1      -4.574   2.582  24.275  0.00  0.00    +0.281 C 
ATOM     36  N   UNL     1      -5.122   2.343  24.845  0.00  0.00    -0.086 NA
ATOM     37  O   UNL     1      -4.834   2.864  23.546  0.00  0.00    -0.270 OA
ENDBRANCH  24  35
BRANCH  24  25
ATOM     25  C   UNL     1      -3.279   3.186  24.292  0.00  0.00    +0.059 C 
BRANCH  25  26
ATOM     26  C   UNL     1      -3.024   3.660  24.916  0.00  0.00    +0.001 A 
ATOM     27  C   UNL     1      -3.361   3.693  25.669  0.00  0.00    +0.095 A 
ATOM     28  N   UNL     1      -2.933   4.237  26.117  0.00  0.00    -0.244 NA
ATOM     29  C   UNL     1      -2.331   4.541  25.641  0.00  0.00    +0.081 A 
ATOM     30  C   UNL     1      -2.388   4.184  24.899  0.00  0.00    +0.015 A 
ATOM     31  C   UNL     1      -1.852   4.383  24.305  0.00  0.00    +0.001 A 
ATOM     32  C   UNL     1      -1.260   4.938  24.451  0.00  0.00    +0.000 A 
ATOM     33  C   UNL     1      -1.204   5.295  25.192  0.00  0.00    +0.002 A 
ATOM     34  C   UNL     1      -1.739   5.097  25.788  0.00  0.00    +0.019 A 
ENDBRANCH  25  26
ENDBRANCH  24  25
ENDBRANCH  23  24
ENDBRANCH  10  21
TORSDOF 8
ENDMDL
MODEL 3
REMARK VINA RESULT:     -11.1      1.376      4.461
REMARK  Name = 
REMARK  8 active torsions:
REMARK  status: ('A' for Active; 'I' for Inactive)
REMARK    1  A    between atoms: C_2  and  N_4
REMARK    2  A    between atoms: N_7  and  C_8
REMARK    3  A    between atoms: C_10  and  C_21
REMARK    4  A    between atoms: C_13  and  C_15
REMARK    5  A    between atoms: N_23  and  C_24
REMARK    6  A    between atoms: C_24  and  C_25
REMARK    7  A    between atoms: C_24  and  C_35
REMARK    8  A    between atoms: C_25  and  C_26
REMARK                            x       y       z     vdW  Elec       q    Type
REMARK                         _______ _______ _______ _____ _____    ______ ____
ROOT
ATOM      8  C   UNL     1      -1.859  -0.306  25.105  0.00  0.00    +0.119 C 
ATOM      9  C   UNL     1      -2.338   0.366  25.108  0.00  0.00    +0.053 C 
ATOM     10  C   UNL     1      -1.978   0.938  24.634  0.00  0.00    +0.156 C 
ATOM     11  N   UNL     1      -1.277   0.620  24.338  0.00  0.00    -0.266 N 
ATOM     12  C   UNL     1      -1.203  -0.149  24.629  0.00  0.00    +0.116 C 
ATOM     13  C   UNL     1      -0.743   1.003  23.839  0.00  0.00    +0.265 C 
ATOM     14  O   UNL     1      -0.891   1.775  23.593  0.00  0.00    -0.268 OA
ENDROOT
BRANCH  13  15
ATOM     15  C   UNL     1      -0.061   0.612  23.587  0.00  0.00    +0.114 A 
ATOM     16  C   UNL     1      -0.036  -0.103  23.177  0.00  0.00    +0.023 A 
ATOM     17  C   UNL     1       0.756  -0.289  23.037  0.00  0.00    +0.020 A 
ATOM     18  C   UNL     1       1.219   0.311  23.361  0.00  0.00    +0.076 A 
ATOM     19  N   UNL     1       0.714   0.869  23.702  0.00  0.00    -0.320 N 
ATOM     20  C   UNL     1       0.945   1.560  24.087  0.00  0.00    +0.131 C 
ENDBRANCH  13  15
BRANCH   8   7
ATOM      4  N   UNL     1      -3.000  -1.353  24.536  0.00  0.00    -0.189 NA
ATOM      5  C   UNL     1      -2.580  -1.534  25.222  0.00  0.00    +0.339 C 
ATOM      6  O   UNL     1      -2.730  -2.239  25.624  0.00  0.00    -0.249 OA
ATOM      7  N   UNL     1      -2.009  -1.010  25.507  0.00  0.00    -0.187 NA
BRANCH   4   2
ATOM      1  C   UNL     1      -3.392  -2.679  24.175  0.00  0.00    +0.023 C 
ATOM      2  C   UNL     1      -3.570  -1.877  24.252  0.00  0.00    +0.097 C 
ATOM      3  C   UNL     1      -4.319  -1.599  24.045  0.00  0.00    +0.023 C 
ENDBRANCH   4   2
ENDBRANCH   8   7
BRANCH  10  21
ATOM     21  C   UNL     1      -2.269   1.694  24.483  0.00  0.00    +0.260 C 
ATOM     22  O   UNL     1      -2.297   1.978  23.709  0.00  0.00    -0.272 OA
ATOM     23  N   UNL     1      -2.532   2.168  25.106  0.00  0.00    -0.196 NA
BRANCH  23  24
ATOM     24  C   UNL     1      -2.823   2.924  24.954  0.00  0.00    +0.179 C 
BRANCH  24  35
ATOM     35  C   UNL     1      -2.337   3.582  25.067  0.00  0.00    +0.281 C 
ATOM     36  N   UNL     1      -1.895   3.653  25.760  0.00  0.00    -0.086 NA
ATOM     37  O   UNL     1      -2.294   4.168  24.488  0.00  0.00    -0.270 OA
ENDBRANCH  24  35
BRANCH  24  25
ATOM     25  C   UNL     1      -3.599   3.024  24.691  0.00  0.00    +0.059 C 
BRANCH  25  26
ATOM     26  C   UNL     1      -4.217   3.064  25.234  0.00  0.00    +0.001 A 
ATOM     27  C   UNL     1      -4.223   3.506  25.932  0.00  0.00    +0.095 A 
ATOM     28  N   UNL     1      -4.948   3.384  26.305  0.00  0.00    -0.244 NA
ATOM     29  C   UNL     1      -5.391   2.868  25.839  0.00  0.00    +0.081 A 
ATOM     30  C   UNL     1      -4.939   2.670  25.177  0.00  0.00    +0.015 A 
ATOM     31  C   UNL     1      -5.245   2.156  24.609  0.00  0.00    +0.001 A 
ATOM     32  C   UNL     1      -6.001   1.841  24.701  0.00  0.00    +0.000 A 
ATOM     33  C   UNL     1      -6.453   2.039  25.362  0.00  0.00    +0.002 A 
ATOM     34  C   UNL     1      -6.148   2.552  25.931  0.00  0.00    +0.019 A 
ENDBRANCH  25  26
ENDBRANCH  24  25
ENDBRANCH  23  24
ENDBRANCH  10  21
TORSDOF 8
ENDMDL
MODEL 4
REMARK VINA RESULT:     -10.7      0.983      4.500
REMARK  Name = 
REMARK  8 active torsions:
REMARK  status: ('A' for Active; 'I' for Inactive)
REMARK    1  A    between atoms: C_2  and  N_4
REMARK    2  A    between atoms: N_7  and  C_8
REMARK    3  A    between atoms: C_10  and  C_21
REMARK    4  A    between atoms: C_13  and  C_15
REMARK    5  A    between atoms: N_23  and  C_24
REMARK    6  A    between atoms: C_24  and  C_25
REMARK    7  A    between atoms: C_24  and  C_35
REMARK    8  A    between atoms: C_25  and  C_26
REMARK                            x       y       z     vdW  Elec       q    Type
REMARK                         _______ _______ _______ _____ _____    ______ ____
ROOT
ATOM      8  C   UNL     1      -3.975   0.689  24.413  0.00  0.00    +0.119 C 
ATOM      9  C   UNL     1      -3.333   1.190  24.544  0.00  0.00    +0.053 C 
ATOM     10  C   UNL     1      -2.700   0.730  24.809  0.00  0.00    +0.156 C 
ATOM     11  N   UNL     1      -2.952  -0.055  24.842  0.00  0.00    -0.266 N 
ATOM     12  C   UNL     1      -3.740  -0.081  24.597  0.00  0.00    +0.116 C 
ATOM     13  C   UNL     1      -2.497  -0.701  25.078  0.00  0.00    +0.265 C 
ATOM     14  O   UNL     1      -1.713  -0.590  25.309  0.00  0.00    -0.268 OA
ENDROOT
BRANCH  13  15
ATOM     15  C   UNL     1      -2.826  -1.458  25.083  0.00  0.00    +0.114 A 
ATOM     16  C   UNL     1      -3.507  -1.688  25.486  0.00  0.00    +0.023 A 
ATOM     17  C   UNL     1      -3.634  -2.490  25.338  0.00  0.00    +0.020 A 
ATOM     18  C   UNL     1      -3.030  -2.755  24.842  0.00  0.00    +0.076 A 
ATOM     19  N   UNL     1      -2.531  -2.117  24.684  0.00  0.00    -0.320 N 
ATOM     20  C   UNL     1      -1.856  -2.136  24.211  0.00  0.00    +0.131 C 
ENDBRANCH  13  15
BRANCH   8   7
ATOM      4  N   UNL     1      -4.914   1.682  25.337  0.00  0.00    -0.189 NA
ATOM      5  C   UNL     1      -5.191   1.414  24.607  0.00  0.00    +0.339 C 
ATOM      6  O   UNL     1      -5.937   1.642  24.339  0.00  0.00    -0.249 OA
ATOM      7  N   UNL     1      -4.721   0.917  24.145  0.00  0.00    -0.187 NA
BRANCH   4   2
ATOM      1  C   UNL     1      -5.278   2.996  25.764  0.00  0.00    +0.023 C 
ATOM      2  C   UNL     1      -5.385   2.179  25.798  0.00  0.00    +0.097 C 
ATOM      3  C   UNL     1      -5.961   1.858  26.294  0.00  0.00    +0.023 C 
ENDBRANCH   4   2
ENDBRANCH   8   7
BRANCH  10  21
ATOM     21  C   UNL     1      -1.949   1.007  25.006  0.00  0.00    +0.260 C 
ATOM     22  O   UNL     1      -1.603   0.785  25.722  0.00  0.00    -0.272 OA
ATOM     23  N   UNL     1      -1.544   1.505  24.489  0.00  0.00    -0.196 NA
BRANCH  23  24
ATOM     24  C   UNL     1      -0.793   1.782  24.686  0.00  0.00    +0.179 C 
BRANCH  24  35
ATOM     35  C   UNL     1      -0.122   1.398  24.395  0.00  0.00    +0.281 C 
ATOM     36  N   UNL     1      -0.087   1.180  23.599  0.00  0.00    -0.086 NA
ATOM     37  O   UNL     1       0.510   1.232  24.896  0.00  0.00    -0.270 OA
ENDBRANCH  24  35
BRANCH  24  25
ATOM     25  C   UNL     1      -0.710   2.442  25.174  0.00  0.00    +0.059 C 
BRANCH  25  26
ATOM     26  C   UNL     1      -0.677   3.197  24.845  0.00  0.00    +0.001 A 
ATOM     27  C   UNL     1      -0.215   3.425  24.200  0.00  0.00    +0.095 A 
ATOM     28  N   UNL     1      -0.352   4.226  24.059  0.00  0.00    -0.244 NA
ATOM     29  C   UNL     1      -0.897   4.493  24.617  0.00  0.00    +0.081 A 
ATOM     30  C   UNL     1      -1.098   3.858  25.103  0.00  0.00    +0.015 A 
ATOM     31  C   UNL     1      -1.639   3.963  25.717  0.00  0.00    +0.001 A 
ATOM     32  C   UNL     1      -1.979   4.703  25.845  0.00  0.00    +0.000 A 
ATOM     33  C   UNL     1      -1.778   5.339  25.360  0.00  0.00    +0.002 A 
ATOM     34  C   UNL     1      -1.237   5.235  24.746  0.00  0.00    +0.019 A 
ENDBRANCH  25  26
ENDBRANCH  24  25
ENDBRANCH  23  24
ENDBRANCH  10  21
TORSDOF 8
ENDMDL
MODEL 5
REMARK VINA RESULT:     -10.7      1.507      4.693
REMARK  Name = 
REMARK  8 active torsions:
REMARK  status: ('A' for Active; 'I' for Inactive)
REMARK    1  A    between atoms: C_2  and  N_4
REMARK    2  A    between atoms: N_7  and  C_8
REMARK    3  A    between atoms: C_10  and  C_21
REMARK    4  A    between atoms: C_13  and  C_15
REMARK    5  A    between atoms: N_23  and  C_24
REMARK    6  A    between atoms: C_24  and  C_25
REMARK    7  A    between atoms: C_24  and  C_35
REMARK    8  A    between atoms: C_25  and  C_26
REMARK                            x       y       z     vdW  Elec       q    Type
REMARK                         _______ _______ _______ _____ _____    ______ ____
ROOT
ATOM      8  C   UNL     1      -3.467  -0.409  25.409  0.00  0.00    +0.119 C 
ATOM      9  C   UNL     1      -2.802  -0.178  24.979  0.00  0.00    +0.053 C 
ATOM     10  C   UNL     1      -2.968   0.549  24.624  0.00  0.00    +0.156 C 
ATOM     11  N   UNL     1      -3.736   0.766  24.834  0.00  0.00    -0.266 N 
ATOM     12  C   UNL     1      -4.044   0.174  25.319  0.00  0.00    +0.116 C 
ATOM     13  C   UNL     1      -4.126   1.454  24.601  0.00  0.00    +0.265 C 
ATOM     14  O   UNL     1      -3.745   1.998  24.112  0.00  0.00    -0.268 OA
ENDROOT
BRANCH  13  15
ATOM     15  C   UNL     1      -4.897   1.597  24.856  0.00  0.00    +0.114 A 
ATOM     16  C   UNL     1      -5.552   1.117  24.714  0.00  0.00    +0.023 A 
ATOM     17  C   UNL     1      -6.209   1.468  25.069  0.00  0.00    +0.020 A 
ATOM     18  C   UNL     1      -5.960   2.166  25.430  0.00  0.00    +0.076 A 
ATOM     19  N   UNL     1      -5.149   2.246  25.299  0.00  0.00    -0.320 N 
ATOM     20  C   UNL     1      -4.674   2.866  25.563  0.00  0.00    +0.131 C 
ENDBRANCH  13  15
BRANCH   8   7
ATOM      4  N   UNL     1      -3.544  -1.870  24.645  0.00  0.00    -0.189 NA
ATOM      5  C   UNL     1      -3.581  -1.832  25.468  0.00  0.00    +0.339 C 
ATOM      6  O   UNL     1      -3.656  -2.525  25.910  0.00  0.00    -0.249 OA
ATOM      7  N   UNL     1      -3.542  -1.102  25.850  0.00  0.00    -0.187 NA
BRANCH   4   2
ATOM      1  C   UNL     1      -2.935  -3.109  24.281  0.00  0.00    +0.023 C 
ATOM      2  C   UNL     1      -3.583  -2.600  24.263  0.00  0.00    +0.097 C 
ATOM      3  C   UNL     1      -4.271  -2.821  23.864  0.00  0.00    +0.023 C 
ENDBRANCH   4   2
ENDBRANCH   8   7
BRANCH  10  21
ATOM     21  C   UNL     1      -2.456   0.981  24.143  0.00  0.00    +0.260 C 
ATOM     22  O   UNL     1      -2.676   1.169  23.371  0.00  0.00    -0.272 OA
ATOM     23  N   UNL     1      -1.724   1.226  24.434  0.00  0.00    -0.196 NA
BRANCH  23  24
ATOM     24  C   UNL     1      -1.212   1.659  23.954  0.00  0.00    +0.179 C 
BRANCH  24  35
ATOM     35  C   UNL     1      -0.633   1.269  23.513  0.00  0.00    +0.281 C 
ATOM     36  N   UNL     1      -0.102   0.761  23.889  0.00  0.00    -0.086 NA
ATOM     37  O   UNL     1      -0.585   1.387  22.699  0.00  0.00    -0.270 OA
ENDBRANCH  24  35
BRANCH  24  25
ATOM     25  C   UNL     1      -1.278   2.480  23.914  0.00  0.00    +0.059 C 
BRANCH  25  26
ATOM     26  C   UNL     1      -0.966   2.949  24.515  0.00  0.00    +0.001 A 
ATOM     27  C   UNL     1      -0.436   2.702  25.098  0.00  0.00    +0.095 A 
ATOM     28  N   UNL     1      -0.271   3.349  25.583  0.00  0.00    -0.244 NA
ATOM     29  C   UNL     1      -0.698   3.995  25.300  0.00  0.00    +0.081 A 
ATOM     30  C   UNL     1      -1.127   3.748  24.640  0.00  0.00    +0.015 A 
ATOM     31  C   UNL     1      -1.610   4.284  24.239  0.00  0.00    +0.001 A 
ATOM     32  C   UNL     1      -1.663   5.065  24.497  0.00  0.00    +0.000 A 
ATOM     33  C   UNL     1      -1.233   5.312  25.157  0.00  0.00    +0.002 A 
ATOM     34  C   UNL     1      -0.751   4.777  25.559  0.00  0.00    +0.019 A 
ENDBRANCH  25  26
ENDBRANCH  24  25
ENDBRANCH  23  24
ENDBRANCH  10  21
TORSDOF 8
ENDMDL
MODEL 6
REMARK VINA RESULT:     -10.5      1.411      3.647
REMARK  Name = 
REMARK  8 active torsions:
REMARK  status: ('A' for Active; 'I' for Inactive)
REMARK    1  A    between atoms: C_2  and  N_4
REMARK    2  A    between atoms: N_7  and  C_8
REMARK    3  A    between atoms: C_10  and  C_21
REMARK    4  A    between atoms: C_13  and  C_15
REMARK    5  A    between atoms: N_23  and  C_24
REMARK    6  A    between atoms: C_24  and  C_25
REMARK    7  A    between atoms: C_24  and  C_35
REMARK    8  A    between atoms: C_25  and  C_26
REMARK                            x       y       z     vdW  Elec       q    Type
REMARK                         _______ _______ _______ _____ _____    ______ ____
ROOT
ATOM      8  C   UNL     1      -0.891   2.193  25.340  0.00  0.00    +0.119 C 
ATOM      9  C   UNL     1      -1.708   2.100  25.280  0.00  0.00    +0.053 C 
ATOM     10  C   UNL     1      -1.858   1.522  24.710  0.00  0.00    +0.156 C 
ATOM     11  N   UNL     1      -1.133   1.258  24.418  0.00  0.00    -0.266 N 
ATOM     12  C   UNL     1      -0.535   1.673  24.807  0.00  0.00    +0.116 C 
ATOM     13  C   UNL     1      -1.025   0.681  23.839  0.00  0.00    +0.265 C 
ATOM     14  O   UNL     1      -1.678   0.311  23.498  0.00  0.00    -0.268 OA
ENDROOT
BRANCH  13  15
ATOM     15  C   UNL     1      -0.262   0.473  23.602  0.00  0.00    +0.114 A 
ATOM     16  C   UNL     1       0.272   0.961  23.207  0.00  0.00    +0.023 A 
ATOM     17  C   UNL     1       0.965   0.530  23.078  0.00  0.00    +0.020 A 
ATOM     18  C   UNL     1       0.858  -0.224  23.394  0.00  0.00    +0.076 A 
ATOM     19  N   UNL     1       0.099  -0.260  23.718  0.00  0.00    -0.320 N 
ATOM     20  C   UNL     1      -0.237  -0.913  24.092  0.00  0.00    +0.131 C 
ENDBRANCH  13  15
BRANCH   8   7
ATOM      4  N   UNL     1      -0.962   3.818  25.062  0.00  0.00    -0.189 NA
ATOM      5  C   UNL     1      -0.534   3.528  25.705  0.00  0.00    +0.339 C 
ATOM      6  O   UNL     1      -0.141   4.050  26.209  0.00  0.00    -0.249 OA
ATOM      7  N   UNL     1      -0.498   2.715  25.844  0.00  0.00    -0.187 NA
BRANCH   4   2
ATOM      1  C   UNL     1      -1.617   5.076  25.238  0.00  0.00    +0.023 C 
ATOM      2  C   UNL     1      -0.997   4.631  24.924  0.00  0.00    +0.097 C 
ATOM      3  C   UNL     1      -0.413   4.999  24.472  0.00  0.00    +0.023 C 
ENDBRANCH   4   2
ENDBRANCH   8   7
BRANCH  10  21
ATOM     21  C   UNL     1      -2.602   1.255  24.474  0.00  0.00    +0.260 C 
ATOM     22  O   UNL     1      -2.855   1.374  23.698  0.00  0.00    -0.272 OA
ATOM     23  N   UNL     1      -3.092   0.869  25.014  0.00  0.00    -0.196 NA
BRANCH  23  24
ATOM     24  C   UNL     1      -3.836   0.603  24.778  0.00  0.00    +0.179 C 
BRANCH  24  35
ATOM     35  C   UNL     1      -4.495   1.093  24.861  0.00  0.00    +0.281 C 
ATOM     36  N   UNL     1      -4.988   1.233  24.214  0.00  0.00    -0.086 NA
ATOM     37  O   UNL     1      -4.661   1.442  25.589  0.00  0.00    -0.270 OA
ENDBRANCH  24  35
BRANCH  24  25
ATOM     25  C   UNL     1      -3.922  -0.154  24.459  0.00  0.00    +0.059 C 
BRANCH  25  26
ATOM     26  C   UNL     1      -3.803  -0.818  24.933  0.00  0.00    +0.001 A 
ATOM     27  C   UNL     1      -3.703  -0.817  25.753  0.00  0.00    +0.095 A 
ATOM     28  N   UNL     1      -3.602  -1.598  25.998  0.00  0.00    -0.244 NA
ATOM     29  C   UNL     1      -3.639  -2.081  25.331  0.00  0.00    +0.081 A 
ATOM     30  C   UNL     1      -3.764  -1.599  24.673  0.00  0.00    +0.015 A 
ATOM     31  C   UNL     1      -3.826  -1.935  23.922  0.00  0.00    +0.001 A 
ATOM     32  C   UNL     1      -3.763  -2.751  23.828  0.00  0.00    +0.000 A 
ATOM     33  C   UNL     1      -3.638  -3.233  24.486  0.00  0.00    +0.002 A 
ATOM     34  C   UNL     1      -3.576  -2.899  25.237  0.00  0.00    +0.019 A 
ENDBRANCH  25  26
ENDBRANCH  24  25
ENDBRANCH  23  24
ENDBRANCH  10  21
TORSDOF 8
ENDMDL
MODEL 7
REMARK VINA RESULT:     -10.5      1.278      3.330
REMARK  Name = 
REMARK  8 active torsions:
REMARK  status: ('A' for Active; 'I' for Inactive)
REMARK    1  A    between atoms: C_2  and  N_4
REMARK    2  A    between atoms: N_7  and  C_8
REMARK    3  A    between atoms: C_10  and  C_21
REMARK    4  A    between atoms: C_13  and  C_15
REMARK    5  A    between atoms: N_23  and  C_24
REMARK    6  A    between atoms: C_24  and  C_25
REMARK    7  A    between atoms: C_24  and  C_35
REMARK    8  A    between atoms: C_25  and  C_26
REMARK                            x       y       z     vdW  Elec       q    Type
REMARK                         _______ _______ _______ _____ _____    ______ ____
ROOT
ATOM      8  C   UNL     1      -0.940   1.676  24.019  0.00  0.00    +0.119 C 
ATOM      9  C   UNL     1      -1.597   1.219  24.217  0.00  0.00    +0.053 C 
ATOM     10  C   UNL     1      -2.116   1.693  24.649  0.00  0.00    +0.156 C 
ATOM     11  N   UNL     1      -1.779   2.443  24.718  0.00  0.00    -0.266 N 
ATOM     12  C   UNL     1      -1.052   2.432  24.329  0.00  0.00    +0.116 C 
ATOM     13  C   UNL     1      -2.111   3.089  25.109  0.00  0.00    +0.265 C 
ATOM     14  O   UNL     1      -2.846   3.017  25.475  0.00  0.00    -0.268 OA
ENDROOT
BRANCH  13  15
ATOM     15  C   UNL     1      -1.707   3.809  25.132  0.00  0.00    +0.114 A 
ATOM     16  C   UNL     1      -0.910   3.911  25.316  0.00  0.00    +0.023 A 
ATOM     17  C   UNL     1      -0.739   4.718  25.273  0.00  0.00    +0.020 A 
ATOM     18  C   UNL     1      -1.432   5.113  25.062  0.00  0.00    +0.076 A 
ATOM     19  N   UNL     1      -2.030   4.551  24.975  0.00  0.00    -0.320 N 
ATOM     20  C   UNL     1      -2.813   4.706  24.768  0.00  0.00    +0.131 C 
ENDBRANCH  13  15
BRANCH   8   7
ATOM      4  N   UNL     1      -0.451   0.103  24.111  0.00  0.00    -0.189 NA
ATOM      5  C   UNL     1      -0.040   0.635  23.633  0.00  0.00    +0.339 C 
ATOM      6  O   UNL     1       0.615   0.380  23.200  0.00  0.00    -0.249 OA
ATOM      7  N   UNL     1      -0.284   1.421  23.586  0.00  0.00    -0.187 NA
BRANCH   4   2
ATOM      1  C   UNL     1      -0.201  -1.154  23.479  0.00  0.00    +0.023 C 
ATOM      2  C   UNL     1      -0.206  -0.684  24.157  0.00  0.00    +0.097 C 
ATOM      3  C   UNL     1       0.034  -1.000  24.880  0.00  0.00    +0.023 C 
ENDBRANCH   4   2
ENDBRANCH   8   7
BRANCH  10  21
ATOM     21  C   UNL     1      -2.843   1.458  24.958  0.00  0.00    +0.260 C 
ATOM     22  O   UNL     1      -3.025   1.612  25.748  0.00  0.00    -0.272 OA
ATOM     23  N   UNL     1      -3.390   1.068  24.478  0.00  0.00    -0.196 NA
BRANCH  23  24
ATOM     24  C   UNL     1      -4.117   0.833  24.787  0.00  0.00    +0.179 C 
BRANCH  24  35
ATOM     35  C   UNL     1      -4.763   1.345  24.755  0.00  0.00    +0.281 C 
ATOM     36  N   UNL     1      -5.251   1.435  25.415  0.00  0.00    -0.086 NA
ATOM     37  O   UNL     1      -4.922   1.767  24.065  0.00  0.00    -0.270 OA
ENDBRANCH  24  35
BRANCH  24  25
ATOM     25  C   UNL     1      -4.199   0.086  25.129  0.00  0.00    +0.059 C 
BRANCH  25  26
ATOM     26  C   UNL     1      -4.173  -0.589  24.656  0.00  0.00    +0.001 A 
ATOM     27  C   UNL     1      -4.435  -0.645  23.875  0.00  0.00    +0.095 A 
ATOM     28  N   UNL     1      -4.305  -1.417  23.617  0.00  0.00    -0.244 NA
ATOM     29  C   UNL     1      -3.963  -1.839  24.238  0.00  0.00    +0.081 A 
ATOM     30  C   UNL     1      -3.881  -1.327  24.880  0.00  0.00    +0.015 A 
ATOM     31  C   UNL     1      -3.552  -1.600  25.585  0.00  0.00    +0.001 A 
ATOM     32  C   UNL     1      -3.304  -2.384  25.649  0.00  0.00    +0.000 A 
ATOM     33  C   UNL     1      -3.385  -2.895  25.008  0.00  0.00    +0.002 A 
ATOM     34  C   UNL     1      -3.714  -2.624  24.302  0.00  0.00    +0.019 A 
ENDBRANCH  25  26
ENDBRANCH  24  25
ENDBRANCH  23  24
ENDBRANCH  10  21
TORSDOF 8
ENDMDL
MODEL 8
REMARK VINA RESULT:     -10.3      1.588      5.363
REMARK  Name = 
REMARK  8 active torsions:
REMARK  status: ('A' for Active; 'I' for Inactive)
REMARK    1  A    between atoms: C_2  and  N_4
REMARK    2  A    between atoms: N_7  and  C_8
REMARK    3  A    between atoms: C_10  and  C_21
REMARK    4  A    between atoms: C_13  and  C_15
REMARK    5  A    between atoms: N_23  and  C_24
REMARK    6  A    between atoms: C_24  and  C_25
REMARK    7  A    between atoms: C_24  and  C_35
REMARK    8  A    between atoms: C_25  and  C_26
REMARK                            x       y       z     vdW  Elec       q    Type
REMARK                         _______ _______ _______ _____ _____    ______ ____
ROOT
ATOM      8  C   UNL     1       0.327   0.086  23.081  0.00  0.00    +0.119 C 
ATOM      9  C   UNL     1       0.176   0.849  23.354  0.00  0.00    +0.053 C 
ATOM     10  C   UNL     1      -0.259   0.789  24.053  0.00  0.00    +0.156 C 
ATOM     11  N   UNL     1      -0.377  -0.012  24.212  0.00  0.00    -0.266 N 
ATOM     12  C   UNL     1      -0.015  -0.447  23.611  0.00  0.00    +0.116 C 
ATOM     13  C   UNL     1      -0.785  -0.324  24.857  0.00  0.00    +0.265 C 
ATOM     14  O   UNL     1      -1.119   0.181  25.417  0.00  0.00    -0.268 OA
ENDROOT
BRANCH  13  15
ATOM     15  C   UNL     1      -0.858  -1.141  24.943  0.00  0.00    +0.114 A 
ATOM     16  C   UNL     1      -0.245  -1.669  25.102  0.00  0.00    +0.023 A 
ATOM     17  C   UNL     1      -0.565  -2.429  25.143  0.00  0.00    +0.020 A 
ATOM     18  C   UNL     1      -1.377  -2.370  25.008  0.00  0.00    +0.076 A 
ATOM     19  N   UNL     1      -1.558  -1.574  24.885  0.00  0.00    -0.320 N 
ATOM     20  C   UNL     1      -2.307  -1.267  24.731  0.00  0.00    +0.131 C 
ENDBRANCH  13  15
BRANCH   8   7
ATOM      4  N   UNL     1       1.972   0.204  23.060  0.00  0.00    -0.189 NA
ATOM      5  C   UNL     1       1.568  -0.052  22.387  0.00  0.00    +0.339 C 
ATOM      6  O   UNL     1       1.987  -0.249  21.704  0.00  0.00    -0.249 OA
ATOM      7  N   UNL     1       0.746  -0.111  22.398  0.00  0.00    -0.187 NA
BRANCH   4   2
ATOM      1  C   UNL     1       3.258  -0.389  23.250  0.00  0.00    +0.023 C 
ATOM      2  C   UNL     1       2.795   0.264  23.048  0.00  0.00    +0.097 C 
ATOM      3  C   UNL     1       3.155   0.975  22.835  0.00  0.00    +0.023 C 
ENDBRANCH   4   2
ENDBRANCH   8   7
BRANCH  10  21
ATOM     21  C   UNL     1      -0.528   1.419  24.512  0.00  0.00    +0.260 C 
ATOM     22  O   UNL     1      -0.295   1.483  25.301  0.00  0.00    -0.272 OA
ATOM     23  N   UNL     1      -1.030   1.985  24.184  0.00  0.00    -0.196 NA
BRANCH  23  24
ATOM     24  C   UNL     1      -1.299   2.614  24.643  0.00  0.00    +0.179 C 
BRANCH  24  35
ATOM     35  C   UNL     1      -0.815   3.271  24.765  0.00  0.00    +0.281 C 
ATOM     36  N   UNL     1      -0.695   3.557  25.531  0.00  0.00    -0.086 NA
ATOM     37  O   UNL     1      -0.451   3.641  24.125  0.00  0.00    -0.270 OA
ENDBRANCH  24  35
BRANCH  24  25
ATOM     25  C   UNL     1      -2.052   2.588  24.979  0.00  0.00    +0.059 C 
BRANCH  25  26
ATOM     26  C   UNL     1      -2.719   2.702  24.508  0.00  0.00    +0.001 A 
ATOM     27  C   UNL     1      -2.729   3.038  23.754  0.00  0.00    +0.095 A 
ATOM     28  N   UNL     1      -3.510   3.043  23.488  0.00  0.00    -0.244 NA
ATOM     29  C   UNL     1      -3.982   2.710  24.076  0.00  0.00    +0.081 A 
ATOM     30  C   UNL     1      -3.493   2.499  24.707  0.00  0.00    +0.015 A 
ATOM     31  C   UNL     1      -3.818   2.149  25.380  0.00  0.00    +0.001 A 
ATOM     32  C   UNL     1      -4.629   2.011  25.423  0.00  0.00    +0.000 A 
ATOM     33  C   UNL     1      -5.118   2.222  24.793  0.00  0.00    +0.002 A 
ATOM     34  C   UNL     1      -4.795   2.572  24.119  0.00  0.00    +0.019 A 
ENDBRANCH  25  26
ENDBRANCH  24  25
ENDBRANCH  23  24
ENDBRANCH  10  21
TORSDOF 8
ENDMDL
MODEL 9
REMARK VINA RESULT:     -10.0      1.600      4.521
REMARK  Name = 
REMARK  8 active torsions:
REMARK  status: ('A' for Active; 'I' for Inactive)
REMARK    1  A    between atoms: C_2  and  N_4
REMARK    2  A    between atoms: N_7  and  C_8
REMARK    3  A    between atoms: C_10  and  C_21
REMARK    4  A    between atoms: C_13  and  C_15
REMARK    5  A    between atoms: N_23  and  C_24
REMARK    6  A    between atoms: C_24  and  C_25
REMARK    7  A    between atoms: C_24  and  C_35
REMARK    8  A    between atoms: C_25  and  C_26
REMARK                            x       y       z     vdW  Elec       q    Type
REMARK                         _______ _______ _______ _____ _____    ______ ____
ROOT
ATOM      8  C   UNL     1      -0.858   1.778  25.434  0.00  0.00    +0.119 C 
ATOM      9  C   UNL     1      -1.675   1.698  25.356  0.00  0.00    +0.053 C 
ATOM     10  C   UNL     1      -1.821   1.120  24.786  0.00  0.00    +0.156 C 
ATOM     11  N   UNL     1      -1.094   0.842  24.511  0.00  0.00    -0.266 N 
ATOM     12  C   UNL     1      -0.499   1.249  24.912  0.00  0.00    +0.116 C 
ATOM     13  C   UNL     1      -0.983   0.261  23.938  0.00  0.00    +0.265 C 
ATOM     14  O   UNL     1      -1.634  -0.100  23.583  0.00  0.00    -0.268 OA
ENDROOT
BRANCH  13  15
ATOM     15  C   UNL     1      -0.218   0.039  23.718  0.00  0.00    +0.114 A 
ATOM     16  C   UNL     1       0.322   0.506  23.306  0.00  0.00    +0.023 A 
ATOM     17  C   UNL     1       1.014   0.068  23.205  0.00  0.00    +0.020 A 
ATOM     18  C   UNL     1       0.901  -0.670  23.556  0.00  0.00    +0.076 A 
ATOM     19  N   UNL     1       0.139  -0.688  23.873  0.00  0.00    -0.320 N 
ATOM     20  C   UNL     1      -0.204  -1.322  24.274  0.00  0.00    +0.131 C 
ENDBRANCH  13  15
BRANCH   8   7
ATOM      4  N   UNL     1      -0.926   3.405  25.168  0.00  0.00    -0.189 NA
ATOM      5  C   UNL     1      -0.502   3.110  25.811  0.00  0.00    +0.339 C 
ATOM      6  O   UNL     1      -0.112   3.628  26.321  0.00  0.00    -0.249 OA
ATOM      7  N   UNL     1      -0.467   2.297  25.944  0.00  0.00    -0.187 NA
BRANCH   4   2
ATOM      1  C   UNL     1      -1.575   4.664  25.357  0.00  0.00    +0.023 C 
ATOM      2  C   UNL     1      -0.960   4.219  25.035  0.00  0.00    +0.097 C 
ATOM      3  C   UNL     1      -0.378   4.588  24.580  0.00  0.00    +0.023 C 
ENDBRANCH   4   2
ENDBRANCH   8   7
BRANCH  10  21
ATOM     21  C   UNL     1      -2.564   0.864  24.535  0.00  0.00    +0.260 C 
ATOM     22  O   UNL     1      -2.708   0.743  23.732  0.00  0.00    -0.272 OA
ATOM     23  N   UNL     1      -3.163   0.729  25.086  0.00  0.00    -0.196 NA
BRANCH  23  24
ATOM     24  C   UNL     1      -3.905   0.473  24.835  0.00  0.00    +0.179 C 
BRANCH  24  35
ATOM     35  C   UNL     1      -4.100  -0.328  24.876  0.00  0.00    +0.281 C 
ATOM     36  N   UNL     1      -4.437  -0.704  24.223  0.00  0.00    -0.086 NA
ATOM     37  O   UNL     1      -3.960  -0.752  25.569  0.00  0.00    -0.270 OA
ENDBRANCH  24  35
BRANCH  24  25
ATOM     25  C   UNL     1      -4.452   1.017  24.543  0.00  0.00    +0.059 C 
BRANCH  25  26
ATOM     26  C   UNL     1      -4.941   1.430  25.062  0.00  0.00    +0.001 A 
ATOM     27  C   UNL     1      -5.395   1.101  25.667  0.00  0.00    +0.095 A 
ATOM     28  N   UNL     1      -5.797   1.713  26.047  0.00  0.00    -0.244 NA
ATOM     29  C   UNL     1      -5.592   2.420  25.677  0.00  0.00    +0.081 A 
ATOM     30  C   UNL     1      -5.063   2.246  25.068  0.00  0.00    +0.015 A 
ATOM     31  C   UNL     1      -4.760   2.853  24.598  0.00  0.00    +0.001 A 
ATOM     32  C   UNL     1      -4.986   3.634  24.736  0.00  0.00    +0.000 A 
ATOM     33  C   UNL     1      -5.515   3.808  25.345  0.00  0.00    +0.002 A 
ATOM     34  C   UNL     1      -5.818   3.202  25.815  0.00  0.00    +0.019 A 
ENDBRANCH  25  26
ENDBRANCH  24  25
ENDBRANCH  23  24
ENDBRANCH  10  21
TORSDOF 8
ENDMDL
MODEL 10
REMARK VINA RESULT:     -10.0      1.366      4.959
REMARK  Name = 
REMARK  8 active torsions:
REMARK  status: ('A' for Active; 'I' for Inactive)
REMARK    1  A    between atoms: C_2  and  N_4
REMARK    2  A    between atoms: N_7  and  C_8
REMARK    3  A    between atoms: C_10  and  C_21
REMARK    4  A    between atoms: C_13  and  C_15
REMARK    5  A    between atoms: N_23  and  C_24
REMARK    6  A    between atoms: C_24  and  C_25
REMARK    7  A    between atoms: C_24  and  C_35
REMARK    8  A    between atoms: C_25  and  C_26
REMARK                            x       y       z     vdW  Elec       q    Type
REMARK                         _______ _______ _______ _____ _____    ______ ____
ROOT
ATOM      8  C   UNL     1      -0.829   1.008  24.186  0.00  0.00    +0.119 C 
ATOM      9  C   UNL     1      -1.367   1.556  23.885  0.00  0.00    +0.053 C 
ATOM     10  C   UNL     1      -2.109   1.195  23.858  0.00  0.00    +0.156 C 
ATOM     11  N   UNL     1      -2.028   0.424  24.142  0.00  0.00    -0.266 N 
ATOM     12  C   UNL     1      -1.237   0.309  24.345  0.00  0.00    +0.116 C 
ATOM     13  C   UNL     1      -2.633  -0.133  24.212  0.00  0.00    +0.265 C 
ATOM     14  O   UNL     1      -3.402   0.062  23.986  0.00  0.00    -0.268 OA
ENDROOT
BRANCH  13  15
ATOM     15  C   UNL     1      -2.468  -0.885  24.507  0.00  0.00    +0.114 A 
ATOM     16  C   UNL     1      -1.913  -1.414  24.204  0.00  0.00    +0.023 A 
ATOM     17  C   UNL     1      -1.930  -2.097  24.667  0.00  0.00    +0.020 A 
ATOM     18  C   UNL     1      -2.497  -1.990  25.256  0.00  0.00    +0.076 A 
ATOM     19  N   UNL     1      -2.829  -1.241  25.158  0.00  0.00    -0.320 N 
ATOM     20  C   UNL     1      -3.419  -0.907  25.628  0.00  0.00    +0.131 C 
ENDBRANCH  13  15
BRANCH   8   7
ATOM      4  N   UNL     1      -0.328   2.074  25.342  0.00  0.00    -0.189 NA
ATOM      5  C   UNL     1       0.227   1.670  24.884  0.00  0.00    +0.339 C 
ATOM      6  O   UNL     1       1.034   1.800  25.005  0.00  0.00    -0.249 OA
ATOM      7  N   UNL     1      -0.022   1.138  24.306  0.00  0.00    -0.187 NA
BRANCH   4   2
ATOM      1  C   UNL     1       0.200   2.327  26.645  0.00  0.00    +0.023 C 
ATOM      2  C   UNL     1      -0.077   2.606  25.920  0.00  0.00    +0.097 C 
ATOM      3  C   UNL     1      -0.104   3.418  25.773  0.00  0.00    +0.023 C 
ENDBRANCH   4   2
ENDBRANCH   8   7
BRANCH  10  21
ATOM     21  C   UNL     1      -2.808   1.543  23.593  0.00  0.00    +0.260 C 
ATOM     22  O   UNL     1      -3.223   1.208  22.964  0.00  0.00    -0.272 OA
ATOM     23  N   UNL     1      -3.093   2.226  23.958  0.00  0.00    -0.196 NA
BRANCH  23  24
ATOM     24  C   UNL     1      -3.792   2.575  23.693  0.00  0.00    +0.179 C 
BRANCH  24  35
ATOM     35  C   UNL     1      -3.767   3.155  23.106  0.00  0.00    +0.281 C 
ATOM     36  N   UNL     1      -3.302   3.829  23.213  0.00  0.00    -0.086 NA
ATOM     37  O   UNL     1      -4.204   3.061  22.414  0.00  0.00    -0.270 OA
ENDBRANCH  24  35
BRANCH  24  25
ATOM     25  C   UNL     1      -4.516   2.344  24.015  0.00  0.00    +0.059 C 
BRANCH  25  26
ATOM     26  C   UNL     1      -4.758   2.644  24.743  0.00  0.00    +0.001 A 
ATOM     27  C   UNL     1      -4.434   3.296  25.132  0.00  0.00    +0.095 A 
ATOM     28  N   UNL     1      -4.843   3.400  25.840  0.00  0.00    -0.244 NA
ATOM     29  C   UNL     1      -5.419   2.812  25.891  0.00  0.00    +0.081 A 
ATOM     30  C   UNL     1      -5.367   2.345  25.213  0.00  0.00    +0.015 A 
ATOM     31  C   UNL     1      -5.880   1.707  25.111  0.00  0.00    +0.001 A 
ATOM     32  C   UNL     1      -6.446   1.537  25.686  0.00  0.00    +0.000 A 
ATOM     33  C   UNL     1      -6.498   2.004  26.364  0.00  0.00    +0.002 A 
ATOM     34  C   UNL     1      -5.985   2.642  26.467  0.00  0.00    +0.019 A 
ENDBRANCH  25  26
ENDBRANCH  24  25
ENDBRANCH  23  24
ENDBRANCH  10  21
TORSDOF 8
ENDMDL
