REMARK  Name = 
REMARK  6 active torsions:
REMARK  status: ('A' for Active; 'I' for Inactive)
REMARK    1  A    between atoms: C_2  and  C_4
REMARK    2  A    between atoms: C_6  and  C_7
REMARK    3  A    between atoms: C_7  and  C_8
REMARK    4  A    between atoms: C_22  and  C_23
REMARK    5  A    between atoms: C_23  and  N_24
REMARK    6  A    between atoms: C_25  and  C_27
REMARK                            x       y       z     vdW  Elec       q    Type
REMARK                         _______ _______ _______ _____ _____    ______ ____
ROOT
ATOM      4  C   UNL     1       2.858  -2.475   0.000  0.00  0.00    +0.006 C 
ATOM      5  C   UNL     1       3.572  -2.888   0.000  0.00  0.00    +0.005 C 
ATOM      6  C   UNL     1       3.572  -3.712   0.000  0.00  0.00    +0.027 C 
ATOM     19  C   UNL     1       2.858  -4.125   0.000  0.00  0.00    -0.048 C 
ATOM     20  C   UNL     1       2.858  -4.950   0.000  0.00  0.00    +0.026 C 
ATOM     21  C   UNL     1       2.143  -3.712   0.000  0.00  0.00    -0.033 C 
ATOM     22  C   UNL     1       2.143  -2.888   0.000  0.00  0.00    +0.043 C 
ENDROOT
BRANCH   4   2
ATOM      1  C   UNL     1       2.143  -1.238   0.000  0.00  0.00    +0.000 C 
ATOM      2  C   UNL     1       2.858  -1.650   0.000  0.00  0.00    +0.000 C 
ATOM      3  C   UNL     1       3.572  -1.238   0.000  0.00  0.00    +0.000 C 
ENDBRANCH   4   2
BRANCH   6   7
ATOM      7  C   UNL     1       4.287  -4.125   0.000  0.00  0.00    +0.089 C 
BRANCH   7   8
ATOM      8  C   UNL     1       4.287  -4.950   0.000  0.00  0.00    +0.226 C 
ATOM      9  O   UNL     1       3.572  -5.362   0.000  0.00  0.00    -0.275 OA
ATOM     10  N   UNL     1       5.001  -5.362   0.000  0.00  0.00    -0.276 N 
ATOM     11  C   UNL     1       5.716  -4.950   0.000  0.00  0.00    +0.115 C 
ATOM     12  C   UNL     1       6.430  -5.362   0.000  0.00  0.00    +0.115 C 
ATOM     13  N   UNL     1       6.430  -6.188   0.000  0.00  0.00    -0.276 N 
ATOM     14  C   UNL     1       5.716  -6.600   0.000  0.00  0.00    +0.115 C 
ATOM     15  C   UNL     1       5.001  -6.188   0.000  0.00  0.00    +0.115 C 
ATOM     16  C   UNL     1       7.145  -6.600   0.000  0.00  0.00    +0.226 C 
ATOM     17  C   UNL     1       7.145  -7.425   0.000  0.00  0.00    +0.095 C 
ATOM     18  O   UNL     1       7.859  -6.188   0.000  0.00  0.00    -0.275 OA
ENDBRANCH   7   8
ENDBRANCH   6   7
BRANCH  22  23
ATOM     23  C   UNL     1       1.429  -2.475   0.000  0.00  0.00    +0.120 C 
BRANCH  23  24
ATOM     24  N   UNL     1       1.429  -1.650   0.000  0.00  0.00    -0.201 NA
ATOM     25  C   UNL     1       0.715  -1.238   0.000  0.00  0.00    +0.265 C 
ATOM     26  O   UNL     1       0.000  -1.650   0.000  0.00  0.00    -0.268 OA
BRANCH  25  27
ATOM     27  C   UNL     1       0.715  -0.412   0.000  0.00  0.00    +0.057 A 
ATOM     28  C   UNL     1       0.000   0.000   0.000  0.00  0.00    +0.005 A 
ATOM     29  C   UNL     1       0.000   0.825   0.000  0.00  0.00    +0.002 A 
ATOM     30  C   UNL     1       0.715   1.238   0.000  0.00  0.00    +0.030 A 
ATOM     31  C   UNL     1       1.429   0.825   0.000  0.00  0.00    +0.140 A 
ATOM     32  F   UNL     1       2.143   1.238   0.000  0.00  0.00    -0.204 F 
ATOM     33  C   UNL     1       1.429   0.000   0.000  0.00  0.00    +0.034 A 
ENDBRANCH  25  27
ENDBRANCH  23  24
ENDBRANCH  22  23
TORSDOF 6
