MODEL 1
REMARK VINA RESULT:     -12.0      0.000      0.000
REMARK  Name = 
REMARK  4 active torsions:
REMARK  status: ('A' for Active; 'I' for Inactive)
REMARK    1  A    between atoms: N_7  and  C_10
REMARK    2  A    between atoms: C_16  and  N_17
REMARK    3  A    between atoms: N_17  and  C_18
REMARK    4  A    between atoms: C_18  and  C_19
REMARK                            x       y       z     vdW  Elec       q    Type
REMARK                         _______ _______ _______ _____ _____    ______ ____
ROOT
ATOM     10  C   UNL     1      -2.779   1.394  24.116  0.00  0.00    +0.147 C 
ATOM     11  C   UNL     1      -3.072   2.107  23.525  0.00  0.00    +0.253 C 
ATOM     12  O   UNL     1      -2.915   2.969  23.632  0.00  0.00    -0.327 OA
ATOM     13  C   UNL     1      -2.894   2.260  23.786  0.00  0.00    +0.176 C 
ATOM     14  C   UNL     1      -3.109   1.547  23.559  0.00  0.00    +0.166 C 
ATOM     15  O   UNL     1      -3.471   1.662  22.957  0.00  0.00    -0.328 OA
ATOM     16  C   UNL     1      -2.835   0.856  24.116  0.00  0.00    +0.134 C 
ATOM     25  C   UNL     1      -2.434   1.305  24.685  0.00  0.00    +0.190 C 
ATOM     26  O   UNL     1      -1.996   1.484  25.361  0.00  0.00    -0.220 OA
ENDROOT
BRANCH  10   7
ATOM      1  C   UNL     1      -1.010   4.598  25.067  0.00  0.00    +0.095 C 
ATOM      2  C   UNL     1      -1.753   4.307  25.279  0.00  0.00    +0.226 C 
ATOM      3  O   UNL     1      -2.238   4.746  25.782  0.00  0.00    -0.275 OA
ATOM      4  N   UNL     1      -2.009   3.579  24.988  0.00  0.00    -0.277 N 
ATOM      5  C   UNL     1      -2.751   3.289  25.201  0.00  0.00    +0.111 C 
ATOM      6  C   UNL     1      -3.007   2.561  24.910  0.00  0.00    +0.094 C 
ATOM      7  N   UNL     1      -2.522   2.122  24.407  0.00  0.00    -0.265 NA
ATOM      8  C   UNL     1      -1.779   2.413  24.195  0.00  0.00    +0.094 C 
ATOM      9  C   UNL     1      -1.523   3.142  24.485  0.00  0.00    +0.111 C 
ENDBRANCH  10   7
BRANCH  16  17
ATOM     17  N   UNL     1      -2.955   0.040  24.060  0.00  0.00    -0.214 NA
BRANCH  17  18
ATOM     18  C   UNL     1      -3.499  -0.331  24.557  0.00  0.00    +0.089 C 
BRANCH  18  19
ATOM     19  C   UNL     1      -3.609  -1.147  24.511  0.00  0.00    +0.017 C 
ATOM     20  C   UNL     1      -3.230  -1.646  25.048  0.00  0.00    +0.001 C 
ATOM     21  C   UNL     1      -3.339  -2.462  25.002  0.00  0.00    +0.000 C 
ATOM     22  C   UNL     1      -3.829  -2.779  24.418  0.00  0.00    +0.000 C 
ATOM     23  C   UNL     1      -4.208  -2.281  23.881  0.00  0.00    +0.000 C 
ATOM     24  C   UNL     1      -4.098  -1.465  23.928  0.00  0.00    +0.001 C 
ENDBRANCH  18  19
ENDBRANCH  17  18
ENDBRANCH  16  17
TORSDOF 4
ENDMDL
MODEL 2
REMARK VINA RESULT:     -11.9      1.401      4.653
REMARK  Name = 
REMARK  4 active torsions:
REMARK  status: ('A' for Active; 'I' for Inactive)
REMARK    1  A    between atoms: N_7  and  C_10
REMARK    2  A    between atoms: C_16  and  N_17
REMARK    3  A    between atoms: N_17  and  C_18
REMARK    4  A    between atoms: C_18  and  C_19
REMARK                            x       y       z     vdW  Elec       q    Type
REMARK                         _______ _______ _______ _____ _____    ______ ____
ROOT
ATOM     10  C   UNL     1      -3.420   1.270  24.723  0.00  0.00    +0.147 C 
ATOM     11  C   UNL     1      -4.342   1.024  24.905  0.00  0.00    +0.253 C 
ATOM     12  O   UNL     1      -4.665   0.204  24.937  0.00  0.00    -0.327 OA
ATOM     13  C   UNL     1      -4.167   0.725  24.855  0.00  0.00    +0.176 C 
ATOM     14  C   UNL     1      -4.032   1.491  24.861  0.00  0.00    +0.166 C 
ATOM     15  O   UNL     1      -4.669   1.775  25.007  0.00  0.00    -0.328 OA
ATOM     16  C   UNL     1      -3.154   1.740  24.688  0.00  0.00    +0.134 C 
ATOM     25  C   UNL     1      -2.828   0.985  24.586  0.00  0.00    +0.190 C 
ATOM     26  O   UNL     1      -2.266   0.398  24.442  0.00  0.00    -0.220 OA
ENDROOT
BRANCH  10   7
ATOM      1  C   UNL     1      -3.956  -2.391  23.944  0.00  0.00    +0.095 C 
ATOM      2  C   UNL     1      -3.742  -2.014  24.646  0.00  0.00    +0.226 C 
ATOM      3  O   UNL     1      -3.608  -2.458  25.328  0.00  0.00    -0.275 OA
ATOM      4  N   UNL     1      -3.662  -1.193  24.665  0.00  0.00    -0.277 N 
ATOM      5  C   UNL     1      -3.448  -0.816  25.366  0.00  0.00    +0.111 C 
ATOM      6  C   UNL     1      -3.367   0.005  25.386  0.00  0.00    +0.094 C 
ATOM      7  N   UNL     1      -3.501   0.449  24.703  0.00  0.00    -0.265 NA
ATOM      8  C   UNL     1      -3.715   0.072  24.001  0.00  0.00    +0.094 C 
ATOM      9  C   UNL     1      -3.795  -0.749  23.982  0.00  0.00    +0.111 C 
ENDBRANCH  10   7
BRANCH  16  17
ATOM     17  N   UNL     1      -2.805   2.488  24.648  0.00  0.00    -0.214 NA
BRANCH  17  18
ATOM     18  C   UNL     1      -2.266   2.722  25.227  0.00  0.00    +0.089 C 
BRANCH  18  19
ATOM     19  C   UNL     1      -1.904   3.462  25.178  0.00  0.00    +0.017 C 
ATOM     20  C   UNL     1      -1.128   3.524  24.905  0.00  0.00    +0.001 C 
ATOM     21  C   UNL     1      -0.766   4.263  24.856  0.00  0.00    +0.000 C 
ATOM     22  C   UNL     1      -1.180   4.941  25.079  0.00  0.00    +0.000 C 
ATOM     23  C   UNL     1      -1.957   4.878  25.352  0.00  0.00    +0.000 C 
ATOM     24  C   UNL     1      -2.318   4.139  25.401  0.00  0.00    +0.001 C 
ENDBRANCH  18  19
ENDBRANCH  17  18
ENDBRANCH  16  17
TORSDOF 4
ENDMDL
