MODEL 1
REMARK VINA RESULT:      -8.0      0.000      0.000
REMARK  Name = 
REMARK  8 active torsions:
REMARK  status: ('A' for Active; 'I' for Inactive)
REMARK    1  A    between atoms: O_2  and  C_3
REMARK    2  A    between atoms: C_3  and  C_4
REMARK    3  A    between atoms: C_4  and  N_5
REMARK    4  A    between atoms: C_6  and  C_8
REMARK    5  A    between atoms: C_15  and  C_16
REMARK    6  A    between atoms: C_16  and  N_17
REMARK    7  A    between atoms: C_19  and  C_20
REMARK    8  A    between atoms: C_20  and  O_21
REMARK                            x       y       z     vdW  Elec       q    Type
REMARK                         _______ _______ _______ _____ _____    ______ ____
ROOT
ATOM      8  C   UNL     1      -3.711   2.332  24.643  0.00  0.00    +0.094 C 
ATOM      9  C   UNL     1      -3.997   2.111  25.332  0.00  0.00    +0.081 C 
ATOM     10  N   UNL     1      -3.917   1.635  24.662  0.00  0.00    -0.272 NA
ATOM     11  C   UNL     1      -3.503   2.232  23.907  0.00  0.00    +0.072 C 
ATOM     12  C   UNL     1      -3.285   2.304  23.295  0.00  0.00    +0.018 C 
ATOM     13  C   UNL     1      -3.636   1.860  23.990  0.00  0.00    +0.013 C 
ATOM     14  C   UNL     1      -3.832   1.016  23.849  0.00  0.00    +0.019 C 
ATOM     15  C   UNL     1      -4.118   0.759  24.509  0.00  0.00    +0.082 C 
ENDROOT
BRANCH   8   6
ATOM      5  N   UNL     1      -2.846   3.399  25.039  0.00  0.00    -0.203 NA
ATOM      6  C   UNL     1      -3.464   3.117  24.571  0.00  0.00    +0.242 C 
ATOM      7  O   UNL     1      -3.835   3.619  24.031  0.00  0.00    -0.273 OA
BRANCH   5   4
ATOM      4  C   UNL     1      -2.599   4.182  24.967  0.00  0.00    +0.147 C 
BRANCH   4   3
ATOM      3  C   UNL     1      -1.952   4.453  25.402  0.00  0.00    +0.166 C 
BRANCH   3   2
ATOM      1  C   UNL     1      -0.829   5.211  24.950  0.00  0.00    +0.174 C 
ATOM      2  O   UNL     1      -1.608   5.180  25.220  0.00  0.00    -0.349 OA
ENDBRANCH   3   2
ENDBRANCH   4   3
ENDBRANCH   5   4
ENDBRANCH   8   6
BRANCH  15  16
ATOM     16  C   UNL     1      -4.427   0.085  24.869  0.00  0.00    +0.145 C 
BRANCH  16  17
ATOM     17  N   UNL     1      -4.168  -0.663  24.637  0.00  0.00    -0.229 N 
ATOM     18  C   UNL     1      -3.529  -1.076  24.956  0.00  0.00    +0.116 A 
ATOM     19  C   UNL     1      -3.470  -1.798  24.560  0.00  0.00    +0.131 A 
ATOM     23  N   UNL     1      -4.072  -1.831  23.997  0.00  0.00    -0.131 NA
ATOM     24  N   UNL     1      -4.504  -1.130  24.045  0.00  0.00    -0.064 NA
BRANCH  19  20
ATOM     20  C   UNL     1      -2.907  -2.384  24.703  0.00  0.00    +0.191 C 
BRANCH  20  21
ATOM     21  O   UNL     1      -2.179  -2.360  24.315  0.00  0.00    -0.345 OA
ATOM     22  C   UNL     1      -1.533  -2.768  24.626  0.00  0.00    +0.175 C 
ENDBRANCH  20  21
ENDBRANCH  19  20
ENDBRANCH  16  17
ENDBRANCH  15  16
TORSDOF 8
ENDMDL
MODEL 2
REMARK VINA RESULT:      -7.7      0.964      4.961
REMARK  Name = 
REMARK  8 active torsions:
REMARK  status: ('A' for Active; 'I' for Inactive)
REMARK    1  A    between atoms: O_2  and  C_3
REMARK    2  A    between atoms: C_3  and  C_4
REMARK    3  A    between atoms: C_4  and  N_5
REMARK    4  A    between atoms: C_6  and  C_8
REMARK    5  A    between atoms: C_15  and  C_16
REMARK    6  A    between atoms: C_16  and  N_17
REMARK    7  A    between atoms: C_19  and  C_20
REMARK    8  A    between atoms: C_20  and  O_21
REMARK                            x       y       z     vdW  Elec       q    Type
REMARK                         _______ _______ _______ _____ _____    ______ ____
ROOT
ATOM      8  C   UNL     1      -3.833   0.323  24.283  0.00  0.00    +0.094 C 
ATOM      9  C   UNL     1      -3.434   0.721  23.748  0.00  0.00    +0.081 C 
ATOM     10  N   UNL     1      -3.935   1.041  24.320  0.00  0.00    -0.272 NA
ATOM     11  C   UNL     1      -4.315   0.241  24.881  0.00  0.00    +0.072 C 
ATOM     12  C   UNL     1      -4.690   0.015  25.366  0.00  0.00    +0.018 C 
ATOM     13  C   UNL     1      -4.323   0.644  24.842  0.00  0.00    +0.013 C 
ATOM     14  C   UNL     1      -4.551   1.473  25.018  0.00  0.00    +0.019 C 
ATOM     15  C   UNL     1      -4.176   1.901  24.509  0.00  0.00    +0.082 C 
ENDROOT
BRANCH   8   6
ATOM      5  N   UNL     1      -3.003  -0.838  24.366  0.00  0.00    -0.203 NA
ATOM      6  C   UNL     1      -3.750  -0.499  24.283  0.00  0.00    +0.242 C 
ATOM      7  O   UNL     1      -4.415  -0.981  24.198  0.00  0.00    -0.273 OA
BRANCH   5   4
ATOM      4  C   UNL     1      -2.921  -1.659  24.365  0.00  0.00    +0.147 C 
BRANCH   4   3
ATOM      3  C   UNL     1      -2.178  -1.999  24.250  0.00  0.00    +0.166 C 
BRANCH   3   2
ATOM      1  C   UNL     1      -1.067  -2.601  24.917  0.00  0.00    +0.174 C 
ATOM      2  O   UNL     1      -1.881  -2.538  24.799  0.00  0.00    -0.349 OA
ENDBRANCH   3   2
ENDBRANCH   4   3
ENDBRANCH   5   4
ENDBRANCH   8   6
BRANCH  15  16
ATOM     16  C   UNL     1      -4.058   2.681  24.270  0.00  0.00    +0.145 C 
BRANCH  16  17
ATOM     17  N   UNL     1      -3.680   3.215  24.774  0.00  0.00    -0.229 N 
ATOM     18  C   UNL     1      -2.892   3.453  24.724  0.00  0.00    +0.116 A 
ATOM     19  C   UNL     1      -2.750   3.989  25.336  0.00  0.00    +0.131 A 
ATOM     23  N   UNL     1      -3.450   4.082  25.761  0.00  0.00    -0.131 NA
ATOM     24  N   UNL     1      -4.025   3.604  25.415  0.00  0.00    -0.064 NA
BRANCH  19  20
ATOM     20  C   UNL     1      -2.033   4.366  25.492  0.00  0.00    +0.191 C 
BRANCH  20  21
ATOM     21  O   UNL     1      -1.765   4.967  24.995  0.00  0.00    -0.345 OA
ATOM     22  C   UNL     1      -0.975   5.201  25.019  0.00  0.00    +0.175 C 
ENDBRANCH  20  21
ENDBRANCH  19  20
ENDBRANCH  16  17
ENDBRANCH  15  16
TORSDOF 8
ENDMDL
MODEL 3
REMARK VINA RESULT:      -7.7      2.496      2.843
REMARK  Name = 
REMARK  8 active torsions:
REMARK  status: ('A' for Active; 'I' for Inactive)
REMARK    1  A    between atoms: O_2  and  C_3
REMARK    2  A    between atoms: C_3  and  C_4
REMARK    3  A    between atoms: C_4  and  N_5
REMARK    4  A    between atoms: C_6  and  C_8
REMARK    5  A    between atoms: C_15  and  C_16
REMARK    6  A    between atoms: C_16  and  N_17
REMARK    7  A    between atoms: C_19  and  C_20
REMARK    8  A    between atoms: C_20  and  O_21
REMARK                            x       y       z     vdW  Elec       q    Type
REMARK                         _______ _______ _______ _____ _____    ______ ____
ROOT
ATOM      8  C   UNL     1      -0.503   1.235  25.017  0.00  0.00    +0.094 C 
ATOM      9  C   UNL     1      -0.822   1.077  25.709  0.00  0.00    +0.081 C 
ATOM     10  N   UNL     1      -0.669   0.533  25.106  0.00  0.00    -0.272 NA
ATOM     11  C   UNL     1      -0.239   1.065  24.311  0.00  0.00    +0.072 C 
ATOM     12  C   UNL     1       0.016   1.079  23.710  0.00  0.00    +0.018 C 
ATOM     13  C   UNL     1      -0.356   0.696  24.430  0.00  0.00    +0.013 C 
ATOM     14  C   UNL     1      -0.494  -0.169  24.379  0.00  0.00    +0.019 C 
ATOM     15  C   UNL     1      -0.809  -0.366  25.046  0.00  0.00    +0.082 C 
ENDROOT
BRANCH   8   6
ATOM      5  N   UNL     1      -0.814   2.629  25.069  0.00  0.00    -0.203 NA
ATOM      6  C   UNL     1      -0.296   2.021  24.867  0.00  0.00    +0.242 C 
ATOM      7  O   UNL     1       0.429   2.196  24.514  0.00  0.00    -0.273 OA
BRANCH   5   4
ATOM      4  C   UNL     1      -0.608   3.413  24.920  0.00  0.00    +0.147 C 
BRANCH   4   3
ATOM      3  C   UNL     1      -1.106   4.025  25.162  0.00  0.00    +0.166 C 
BRANCH   3   2
ATOM      1  C   UNL     1      -1.467   5.404  25.066  0.00  0.00    +0.174 C 
ATOM      2  O   UNL     1      -0.897   4.810  25.017  0.00  0.00    -0.349 OA
ENDBRANCH   3   2
ENDBRANCH   4   3
ENDBRANCH   5   4
ENDBRANCH   8   6
BRANCH  15  16
ATOM     16  C   UNL     1      -1.103  -1.013  25.465  0.00  0.00    +0.145 C 
BRANCH  16  17
ATOM     17  N   UNL     1      -1.573  -1.573  25.083  0.00  0.00    -0.229 N 
ATOM     18  C   UNL     1      -2.397  -1.599  25.089  0.00  0.00    +0.116 A 
ATOM     19  C   UNL     1      -2.635  -2.249  24.638  0.00  0.00    +0.131 A 
ATOM     23  N   UNL     1      -1.956  -2.623  24.354  0.00  0.00    -0.131 NA
ATOM     24  N   UNL     1      -1.301  -2.206  24.629  0.00  0.00    -0.064 NA
BRANCH  19  20
ATOM     20  C   UNL     1      -3.413  -2.482  24.496  0.00  0.00    +0.191 C 
BRANCH  20  21
ATOM     21  O   UNL     1      -3.847  -2.124  23.894  0.00  0.00    -0.345 OA
ATOM     22  C   UNL     1      -4.611  -2.387  23.723  0.00  0.00    +0.175 C 
ENDBRANCH  20  21
ENDBRANCH  19  20
ENDBRANCH  16  17
ENDBRANCH  15  16
TORSDOF 8
ENDMDL
MODEL 4
REMARK VINA RESULT:      -7.6      3.094      4.804
REMARK  Name = 
REMARK  8 active torsions:
REMARK  status: ('A' for Active; 'I' for Inactive)
REMARK    1  A    between atoms: O_2  and  C_3
REMARK    2  A    between atoms: C_3  and  C_4
REMARK    3  A    between atoms: C_4  and  N_5
REMARK    4  A    between atoms: C_6  and  C_8
REMARK    5  A    between atoms: C_15  and  C_16
REMARK    6  A    between atoms: C_16  and  N_17
REMARK    7  A    between atoms: C_19  and  C_20
REMARK    8  A    between atoms: C_20  and  O_21
REMARK                            x       y       z     vdW  Elec       q    Type
REMARK                         _______ _______ _______ _____ _____    ______ ____
ROOT
ATOM      8  C   UNL     1      -0.627   2.556  24.732  0.00  0.00    +0.094 C 
ATOM      9  C   UNL     1      -1.023   2.809  24.112  0.00  0.00    +0.081 C 
ATOM     10  N   UNL     1      -1.168   3.013  24.898  0.00  0.00    -0.272 NA
ATOM     11  C   UNL     1      -0.462   2.505  25.485  0.00  0.00    +0.072 C 
ATOM     12  C   UNL     1      -0.206   2.362  26.069  0.00  0.00    +0.018 C 
ATOM     13  C   UNL     1      -0.775   2.761  25.502  0.00  0.00    +0.013 C 
ATOM     14  C   UNL     1      -1.376   3.287  25.865  0.00  0.00    +0.019 C 
ATOM     15  C   UNL     1      -1.790   3.559  25.283  0.00  0.00    +0.082 C 
ENDROOT
BRANCH   8   6
ATOM      5  N   UNL     1      -0.092   1.416  24.057  0.00  0.00    -0.203 NA
ATOM      6  C   UNL     1      -0.002   2.034  24.595  0.00  0.00    +0.242 C 
ATOM      7  O   UNL     1       0.713   2.132  24.996  0.00  0.00    -0.273 OA
BRANCH   5   4
ATOM      4  C   UNL     1       0.533   0.895  23.920  0.00  0.00    +0.147 C 
BRANCH   4   3
ATOM      3  C   UNL     1       0.486   0.347  23.305  0.00  0.00    +0.166 C 
BRANCH   3   2
ATOM      1  C   UNL     1       1.432  -0.284  22.440  0.00  0.00    +0.174 C 
ATOM      2  O   UNL     1       1.096  -0.196  23.189  0.00  0.00    -0.349 OA
ENDBRANCH   3   2
ENDBRANCH   4   3
ENDBRANCH   5   4
ENDBRANCH   8   6
BRANCH  15  16
ATOM     16  C   UNL     1      -2.425   4.054  25.107  0.00  0.00    +0.145 C 
BRANCH  16  17
ATOM     17  N   UNL     1      -3.174   3.887  25.408  0.00  0.00    -0.229 N 
ATOM     18  C   UNL     1      -3.792   3.525  24.998  0.00  0.00    +0.116 A 
ATOM     19  C   UNL     1      -4.438   3.468  25.510  0.00  0.00    +0.131 A 
ATOM     23  N   UNL     1      -4.218   3.795  26.234  0.00  0.00    -0.131 NA
ATOM     24  N   UNL     1      -3.438   4.054  26.172  0.00  0.00    -0.064 NA
BRANCH  19  20
ATOM     20  C   UNL     1      -5.173   3.142  25.327  0.00  0.00    +0.191 C 
BRANCH  20  21
ATOM     21  O   UNL     1      -5.308   2.337  25.448  0.00  0.00    -0.345 OA
ATOM     22  C   UNL     1      -6.006   1.991  25.178  0.00  0.00    +0.175 C 
ENDBRANCH  20  21
ENDBRANCH  19  20
ENDBRANCH  16  17
ENDBRANCH  15  16
TORSDOF 8
ENDMDL
MODEL 5
REMARK VINA RESULT:      -7.5      2.362      5.501
REMARK  Name = 
REMARK  8 active torsions:
REMARK  status: ('A' for Active; 'I' for Inactive)
REMARK    1  A    between atoms: O_2  and  C_3
REMARK    2  A    between atoms: C_3  and  C_4
REMARK    3  A    between atoms: C_4  and  N_5
REMARK    4  A    between atoms: C_6  and  C_8
REMARK    5  A    between atoms: C_15  and  C_16
REMARK    6  A    between atoms: C_16  and  N_17
REMARK    7  A    between atoms: C_19  and  C_20
REMARK    8  A    between atoms: C_20  and  O_21
REMARK                            x       y       z     vdW  Elec       q    Type
REMARK                         _______ _______ _______ _____ _____    ______ ____
ROOT
ATOM      8  C   UNL     1      -0.714   0.183  24.999  0.00  0.00    +0.094 C 
ATOM      9  C   UNL     1      -0.943   0.332  25.728  0.00  0.00    +0.081 C 
ATOM     10  N   UNL     1      -0.608   0.872  25.202  0.00  0.00    -0.272 NA
ATOM     11  C   UNL     1      -0.415   0.357  24.309  0.00  0.00    +0.072 C 
ATOM     12  C   UNL     1      -0.191   0.348  23.696  0.00  0.00    +0.018 C 
ATOM     13  C   UNL     1      -0.386   0.718  24.489  0.00  0.00    +0.013 C 
ATOM     14  C   UNL     1      -0.194   1.570  24.574  0.00  0.00    +0.019 C 
ATOM     15  C   UNL     1      -0.405   1.759  25.283  0.00  0.00    +0.082 C 
ENDROOT
BRANCH   8   6
ATOM      5  N   UNL     1      -1.537  -0.973  24.827  0.00  0.00    -0.203 NA
ATOM      6  C   UNL     1      -0.815  -0.589  24.723  0.00  0.00    +0.242 C 
ATOM      7  O   UNL     1      -0.193  -0.975  24.342  0.00  0.00    -0.273 OA
BRANCH   5   4
ATOM      4  C   UNL     1      -1.637  -1.744  24.551  0.00  0.00    +0.147 C 
BRANCH   4   3
ATOM      3  C   UNL     1      -2.298  -2.182  24.779  0.00  0.00    +0.166 C 
BRANCH   3   2
ATOM      1  C   UNL     1      -3.482  -2.897  24.419  0.00  0.00    +0.174 C 
ATOM      2  O   UNL     1      -2.755  -2.566  24.210  0.00  0.00    -0.349 OA
ENDBRANCH   3   2
ENDBRANCH   4   3
ENDBRANCH   5   4
ENDBRANCH   8   6
BRANCH  15  16
ATOM     16  C   UNL     1      -0.433   2.391  25.811  0.00  0.00    +0.145 C 
BRANCH  16  17
ATOM     17  N   UNL     1      -0.920   3.039  25.654  0.00  0.00    -0.229 N 
ATOM     18  C   UNL     1      -1.706   3.122  25.888  0.00  0.00    +0.116 A 
ATOM     19  C   UNL     1      -1.977   3.852  25.614  0.00  0.00    +0.131 A 
ATOM     23  N   UNL     1      -1.357   4.219  25.212  0.00  0.00    -0.131 NA
ATOM     24  N   UNL     1      -0.704   3.716  25.236  0.00  0.00    -0.064 NA
BRANCH  19  20
ATOM     20  C   UNL     1      -2.734   4.160  25.724  0.00  0.00    +0.191 C 
BRANCH  20  21
ATOM     21  O   UNL     1      -3.383   3.800  25.364  0.00  0.00    -0.345 OA
ATOM     22  C   UNL     1      -4.148   4.021  25.577  0.00  0.00    +0.175 C 
ENDBRANCH  20  21
ENDBRANCH  19  20
ENDBRANCH  16  17
ENDBRANCH  15  16
TORSDOF 8
ENDMDL
MODEL 6
REMARK VINA RESULT:      -7.5      1.636      4.499
REMARK  Name = 
REMARK  8 active torsions:
REMARK  status: ('A' for Active; 'I' for Inactive)
REMARK    1  A    between atoms: O_2  and  C_3
REMARK    2  A    between atoms: C_3  and  C_4
REMARK    3  A    between atoms: C_4  and  N_5
REMARK    4  A    between atoms: C_6  and  C_8
REMARK    5  A    between atoms: C_15  and  C_16
REMARK    6  A    between atoms: C_16  and  N_17
REMARK    7  A    between atoms: C_19  and  C_20
REMARK    8  A    between atoms: C_20  and  O_21
REMARK                            x       y       z     vdW  Elec       q    Type
REMARK                         _______ _______ _______ _____ _____    ______ ____
ROOT
ATOM      8  C   UNL     1      -3.132  -0.359  24.599  0.00  0.00    +0.094 C 
ATOM      9  C   UNL     1      -3.210   0.161  24.026  0.00  0.00    +0.081 C 
ATOM     10  N   UNL     1      -3.725   0.056  24.663  0.00  0.00    -0.272 NA
ATOM     11  C   UNL     1      -3.336  -0.720  25.250  0.00  0.00    +0.072 C 
ATOM     12  C   UNL     1      -3.373  -1.110  25.773  0.00  0.00    +0.018 C 
ATOM     13  C   UNL     1      -3.641  -0.457  25.221  0.00  0.00    +0.013 C 
ATOM     14  C   UNL     1      -4.385  -0.047  25.441  0.00  0.00    +0.019 C 
ATOM     15  C   UNL     1      -4.499   0.478  24.898  0.00  0.00    +0.082 C 
ENDROOT
BRANCH   8   6
ATOM      5  N   UNL     1      -1.719  -0.535  24.474  0.00  0.00    -0.203 NA
ATOM      6  C   UNL     1      -2.472  -0.856  24.570  0.00  0.00    +0.242 C 
ATOM      7  O   UNL     1      -2.568  -1.673  24.639  0.00  0.00    -0.273 OA
BRANCH   5   4
ATOM      4  C   UNL     1      -1.061  -1.031  24.446  0.00  0.00    +0.147 C 
BRANCH   4   3
ATOM      3  C   UNL     1      -0.304  -0.710  24.371  0.00  0.00    +0.166 C 
BRANCH   3   2
ATOM      1  C   UNL     1       0.734  -0.326  23.468  0.00  0.00    +0.174 C 
ATOM      2  O   UNL     1       0.140  -0.853  23.691  0.00  0.00    -0.349 OA
ENDBRANCH   3   2
ENDBRANCH   4   3
ENDBRANCH   5   4
ENDBRANCH   8   6
BRANCH  15  16
ATOM     16  C   UNL     1      -5.017   1.074  24.663  0.00  0.00    +0.145 C 
BRANCH  16  17
ATOM     17  N   UNL     1      -5.065   1.774  25.096  0.00  0.00    -0.229 N 
ATOM     18  C   UNL     1      -4.557   2.421  25.030  0.00  0.00    +0.116 A 
ATOM     19  C   UNL     1      -4.808   2.997  25.565  0.00  0.00    +0.131 A 
ATOM     23  N   UNL     1      -5.470   2.706  25.961  0.00  0.00    -0.131 NA
ATOM     24  N   UNL     1      -5.629   1.951  25.671  0.00  0.00    -0.064 NA
BRANCH  19  20
ATOM     20  C   UNL     1      -4.457   3.734  25.683  0.00  0.00    +0.191 C 
BRANCH  20  21
ATOM     21  O   UNL     1      -3.705   3.785  26.019  0.00  0.00    -0.345 OA
ATOM     22  C   UNL     1      -3.291   4.497  25.997  0.00  0.00    +0.175 C 
ENDBRANCH  20  21
ENDBRANCH  19  20
ENDBRANCH  16  17
ENDBRANCH  15  16
TORSDOF 8
ENDMDL
MODEL 7
REMARK VINA RESULT:      -7.3      2.222      2.794
REMARK  Name = 
REMARK  8 active torsions:
REMARK  status: ('A' for Active; 'I' for Inactive)
REMARK    1  A    between atoms: O_2  and  C_3
REMARK    2  A    between atoms: C_3  and  C_4
REMARK    3  A    between atoms: C_4  and  N_5
REMARK    4  A    between atoms: C_6  and  C_8
REMARK    5  A    between atoms: C_15  and  C_16
REMARK    6  A    between atoms: C_16  and  N_17
REMARK    7  A    between atoms: C_19  and  C_20
REMARK    8  A    between atoms: C_20  and  O_21
REMARK                            x       y       z     vdW  Elec       q    Type
REMARK                         _______ _______ _______ _____ _____    ______ ____
ROOT
ATOM      8  C   UNL     1      -1.685   2.176  24.660  0.00  0.00    +0.094 C 
ATOM      9  C   UNL     1      -1.875   1.804  24.004  0.00  0.00    +0.081 C 
ATOM     10  N   UNL     1      -1.310   1.563  24.555  0.00  0.00    -0.272 NA
ATOM     11  C   UNL     1      -1.297   2.281  25.319  0.00  0.00    +0.072 C 
ATOM     12  C   UNL     1      -1.060   2.502  25.886  0.00  0.00    +0.018 C 
ATOM     13  C   UNL     1      -1.129   1.933  25.196  0.00  0.00    +0.013 C 
ATOM     14  C   UNL     1      -0.601   1.233  25.219  0.00  0.00    +0.019 C 
ATOM     15  C   UNL     1      -0.758   0.837  24.586  0.00  0.00    +0.082 C 
ENDROOT
BRANCH   8   6
ATOM      5  N   UNL     1      -2.908   2.888  24.861  0.00  0.00    -0.203 NA
ATOM      6  C   UNL     1      -2.084   2.881  24.824  0.00  0.00    +0.242 C 
ATOM      7  O   UNL     1      -1.659   3.576  24.950  0.00  0.00    -0.273 OA
BRANCH   5   4
ATOM      4  C   UNL     1      -3.306   3.591  25.025  0.00  0.00    +0.147 C 
BRANCH   4   3
ATOM      3  C   UNL     1      -4.127   3.630  24.944  0.00  0.00    +0.166 C 
BRANCH   3   2
ATOM      1  C   UNL     1      -5.416   3.792  25.538  0.00  0.00    +0.174 C 
ATOM      2  O   UNL     1      -4.595   3.855  25.585  0.00  0.00    -0.349 OA
ENDBRANCH   3   2
ENDBRANCH   4   3
ENDBRANCH   5   4
ENDBRANCH   8   6
BRANCH  15  16
ATOM     16  C   UNL     1      -0.550   0.154  24.173  0.00  0.00    +0.145 C 
BRANCH  16  17
ATOM     17  N   UNL     1      -0.764  -0.587  24.465  0.00  0.00    -0.229 N 
ATOM     18  C   UNL     1      -1.416  -1.032  24.227  0.00  0.00    +0.116 A 
ATOM     19  C   UNL     1      -1.418  -1.733  24.662  0.00  0.00    +0.131 A 
ATOM     23  N   UNL     1      -0.767  -1.721  25.168  0.00  0.00    -0.131 NA
ATOM     24  N   UNL     1      -0.363  -1.013  25.047  0.00  0.00    -0.064 NA
BRANCH  19  20
ATOM     20  C   UNL     1      -1.974  -2.340  24.601  0.00  0.00    +0.191 C 
BRANCH  20  21
ATOM     21  O   UNL     1      -2.779  -2.164  24.612  0.00  0.00    -0.345 OA
ATOM     22  C   UNL     1      -3.335  -2.774  24.599  0.00  0.00    +0.175 C 
ENDBRANCH  20  21
ENDBRANCH  19  20
ENDBRANCH  16  17
ENDBRANCH  15  16
TORSDOF 8
ENDMDL
MODEL 8
REMARK VINA RESULT:      -7.3      2.820      4.702
REMARK  Name = 
REMARK  8 active torsions:
REMARK  status: ('A' for Active; 'I' for Inactive)
REMARK    1  A    between atoms: O_2  and  C_3
REMARK    2  A    between atoms: C_3  and  C_4
REMARK    3  A    between atoms: C_4  and  N_5
REMARK    4  A    between atoms: C_6  and  C_8
REMARK    5  A    between atoms: C_15  and  C_16
REMARK    6  A    between atoms: C_16  and  N_17
REMARK    7  A    between atoms: C_19  and  C_20
REMARK    8  A    between atoms: C_20  and  O_21
REMARK                            x       y       z     vdW  Elec       q    Type
REMARK                         _______ _______ _______ _____ _____    ______ ____
ROOT
ATOM      8  C   UNL     1      -1.099   1.292  24.204  0.00  0.00    +0.094 C 
ATOM      9  C   UNL     1      -1.497   1.482  23.563  0.00  0.00    +0.081 C 
ATOM     10  N   UNL     1      -1.576   1.831  24.307  0.00  0.00    -0.272 NA
ATOM     11  C   UNL     1      -0.900   1.350  24.948  0.00  0.00    +0.072 C 
ATOM     12  C   UNL     1      -0.630   1.278  25.539  0.00  0.00    +0.018 C 
ATOM     13  C   UNL     1      -1.181   1.640  24.931  0.00  0.00    +0.013 C 
ATOM     14  C   UNL     1      -1.699   2.289  25.217  0.00  0.00    +0.019 C 
ATOM     15  C   UNL     1      -2.111   2.505  24.611  0.00  0.00    +0.082 C 
ENDROOT
BRANCH   8   6
ATOM      5  N   UNL     1       0.006   0.692  23.524  0.00  0.00    -0.203 NA
ATOM      6  C   UNL     1      -0.544   0.684  24.138  0.00  0.00    +0.242 C 
ATOM      7  O   UNL     1      -0.541   0.067  24.687  0.00  0.00    -0.273 OA
BRANCH   5   4
ATOM      4  C   UNL     1       0.560   0.085  23.459  0.00  0.00    +0.147 C 
BRANCH   4   3
ATOM      3  C   UNL     1       1.068   0.057  22.810  0.00  0.00    +0.166 C 
BRANCH   3   2
ATOM      1  C   UNL     1       2.436   0.033  22.399  0.00  0.00    +0.174 C 
ATOM      2  O   UNL     1       1.835  -0.233  22.898  0.00  0.00    -0.349 OA
ENDBRANCH   3   2
ENDBRANCH   4   3
ENDBRANCH   5   4
ENDBRANCH   8   6
BRANCH  15  16
ATOM     16  C   UNL     1      -2.695   3.035  24.373  0.00  0.00    +0.145 C 
BRANCH  16  17
ATOM     17  N   UNL     1      -3.323   3.213  24.879  0.00  0.00    -0.229 N 
ATOM     18  C   UNL     1      -4.076   2.877  24.851  0.00  0.00    +0.116 A 
ATOM     19  C   UNL     1      -4.526   3.214  25.456  0.00  0.00    +0.131 A 
ATOM     23  N   UNL     1      -4.050   3.756  25.856  0.00  0.00    -0.131 NA
ATOM     24  N   UNL     1      -3.307   3.756  25.499  0.00  0.00    -0.064 NA
BRANCH  19  20
ATOM     20  C   UNL     1      -5.313   3.039  25.630  0.00  0.00    +0.191 C 
BRANCH  20  21
ATOM     21  O   UNL     1      -5.533   2.264  25.809  0.00  0.00    -0.345 OA
ATOM     22  C   UNL     1      -6.301   2.102  26.063  0.00  0.00    +0.175 C 
ENDBRANCH  20  21
ENDBRANCH  19  20
ENDBRANCH  16  17
ENDBRANCH  15  16
TORSDOF 8
ENDMDL
MODEL 9
REMARK VINA RESULT:      -7.1      2.171      3.002
REMARK  Name = 
REMARK  8 active torsions:
REMARK  status: ('A' for Active; 'I' for Inactive)
REMARK    1  A    between atoms: O_2  and  C_3
REMARK    2  A    between atoms: C_3  and  C_4
REMARK    3  A    between atoms: C_4  and  N_5
REMARK    4  A    between atoms: C_6  and  C_8
REMARK    5  A    between atoms: C_15  and  C_16
REMARK    6  A    between atoms: C_16  and  N_17
REMARK    7  A    between atoms: C_19  and  C_20
REMARK    8  A    between atoms: C_20  and  O_21
REMARK                            x       y       z     vdW  Elec       q    Type
REMARK                         _______ _______ _______ _____ _____    ______ ____
ROOT
ATOM      8  C   UNL     1      -2.718   2.716  24.471  0.00  0.00    +0.094 C 
ATOM      9  C   UNL     1      -2.264   2.708  25.104  0.00  0.00    +0.081 C 
ATOM     10  N   UNL     1      -2.088   2.365  24.374  0.00  0.00    -0.272 NA
ATOM     11  C   UNL     1      -2.901   2.553  23.739  0.00  0.00    +0.072 C 
ATOM     12  C   UNL     1      -3.192   2.497  23.157  0.00  0.00    +0.018 C 
ATOM     13  C   UNL     1      -2.538   2.377  23.758  0.00  0.00    +0.013 C 
ATOM     14  C   UNL     1      -1.837   1.927  23.480  0.00  0.00    +0.019 C 
ATOM     15  C   UNL     1      -1.363   1.896  24.078  0.00  0.00    +0.082 C 
ENDROOT
BRANCH   8   6
ATOM      5  N   UNL     1      -3.984   2.878  25.113  0.00  0.00    -0.203 NA
ATOM      6  C   UNL     1      -3.445   3.103  24.532  0.00  0.00    +0.242 C 
ATOM      7  O   UNL     1      -3.631   3.715  24.010  0.00  0.00    -0.273 OA
BRANCH   5   4
ATOM      4  C   UNL     1      -4.710   3.265  25.174  0.00  0.00    +0.147 C 
BRANCH   4   3
ATOM      3  C   UNL     1      -5.222   3.088  25.796  0.00  0.00    +0.166 C 
BRANCH   3   2
ATOM      1  C   UNL     1      -6.308   2.222  26.132  0.00  0.00    +0.174 C 
ATOM      2  O   UNL     1      -5.976   2.794  25.638  0.00  0.00    -0.349 OA
ENDBRANCH   3   2
ENDBRANCH   4   3
ENDBRANCH   5   4
ENDBRANCH   8   6
BRANCH  15  16
ATOM     16  C   UNL     1      -0.628   1.609  24.316  0.00  0.00    +0.145 C 
BRANCH  16  17
ATOM     17  N   UNL     1      -0.436   0.816  24.195  0.00  0.00    -0.229 N 
ATOM     18  C   UNL     1      -0.686   0.181  24.659  0.00  0.00    +0.116 A 
ATOM     19  C   UNL     1      -0.364  -0.509  24.339  0.00  0.00    +0.131 A 
ATOM     23  N   UNL     1       0.084  -0.299  23.680  0.00  0.00    -0.131 NA
ATOM     24  N   UNL     1       0.040   0.519  23.591  0.00  0.00    -0.064 NA
BRANCH  19  20
ATOM     20  C   UNL     1      -0.473  -1.274  24.629  0.00  0.00    +0.191 C 
BRANCH  20  21
ATOM     21  O   UNL     1      -1.192  -1.660  24.515  0.00  0.00    -0.345 OA
ATOM     22  C   UNL     1      -1.308  -2.416  24.825  0.00  0.00    +0.175 C 
ENDBRANCH  20  21
ENDBRANCH  19  20
ENDBRANCH  16  17
ENDBRANCH  15  16
TORSDOF 8
ENDMDL
