MODEL 1
REMARK VINA RESULT:     -12.1      0.000      0.000
REMARK  Name = 
REMARK  7 active torsions:
REMARK  status: ('A' for Active; 'I' for Inactive)
REMARK    1  A    between atoms: C_2  and  N_3
REMARK    2  A    between atoms: C_2  and  C_30
REMARK    3  A    between atoms: C_4  and  C_6
REMARK    4  A    between atoms: C_13  and  N_15
REMARK    5  A    between atoms: N_18  and  C_19
REMARK    6  A    between atoms: C_22  and  O_23
REMARK    7  A    between atoms: O_23  and  C_24
REMARK                            x       y       z     vdW  Elec       q    Type
REMARK                         _______ _______ _______ _____ _____    ______ ____
ROOT
ATOM      6  C   UNL     1      -3.583   3.139  24.784  0.00  0.00    +0.200 C 
ATOM      7  O   UNL     1      -3.026   2.920  24.215  0.00  0.00    -0.216 OA
ATOM      8  C   UNL     1      -3.967   3.587  25.361  0.00  0.00    +0.075 C 
ATOM      9  C   UNL     1      -4.655   3.300  25.715  0.00  0.00    +0.187 C 
ATOM     10  O   UNL     1      -5.039   3.748  26.292  0.00  0.00    -0.220 OA
ATOM     11  C   UNL     1      -4.959   2.566  25.492  0.00  0.00    +0.202 C 
ATOM     12  O   UNL     1      -5.647   2.280  25.846  0.00  0.00    -0.219 OA
ATOM     13  C   UNL     1      -4.575   2.119  24.915  0.00  0.00    +0.133 C 
ATOM     14  C   UNL     1      -3.887   2.405  24.561  0.00  0.00    +0.064 C 
ENDROOT
BRANCH  13  15
ATOM     15  N   UNL     1      -4.880   1.385  24.692  0.00  0.00    -0.186 NA
ATOM     16  C   UNL     1      -4.415   0.707  24.759  0.00  0.00    +0.344 C 
ATOM     17  O   UNL     1      -3.645   0.762  25.050  0.00  0.00    -0.249 OA
ATOM     18  N   UNL     1      -4.720  -0.026  24.537  0.00  0.00    -0.161 NA
BRANCH  18  19
ATOM     19  C   UNL     1      -4.255  -0.704  24.604  0.00  0.00    +0.075 A 
ATOM     20  C   UNL     1      -3.946  -0.921  25.337  0.00  0.00    +0.020 A 
ATOM     21  C   UNL     1      -3.480  -1.599  25.405  0.00  0.00    +0.039 A 
ATOM     22  C   UNL     1      -3.324  -2.060  24.739  0.00  0.00    +0.147 A 
ATOM     28  C   UNL     1      -3.633  -1.843  24.005  0.00  0.00    +0.039 A 
ATOM     29  C   UNL     1      -4.098  -1.165  23.938  0.00  0.00    +0.020 A 
BRANCH  22  23
ATOM     23  O   UNL     1      -2.859  -2.738  24.806  0.00  0.00    -0.404 OA
BRANCH  23  24
ATOM     24  C   UNL     1      -2.084  -2.735  24.527  0.00  0.00    +0.575 C 
ATOM     25  F   UNL     1      -1.307  -2.732  24.247  0.00  0.00    -0.133 F 
ATOM     26  F   UNL     1      -2.337  -3.074  23.818  0.00  0.00    -0.133 F 
ATOM     27  F   UNL     1      -1.829  -2.396  25.234  0.00  0.00    -0.133 F 
ENDBRANCH  23  24
ENDBRANCH  22  23
ENDBRANCH  18  19
ENDBRANCH  13  15
BRANCH   6   4
ATOM      3  N   UNL     1      -2.331   3.730  25.137  0.00  0.00    -0.196 NA
ATOM      4  C   UNL     1      -3.085   3.797  24.809  0.00  0.00    +0.269 C 
ATOM      5  O   UNL     1      -3.342   4.520  24.507  0.00  0.00    -0.271 OA
BRANCH   3   2
ATOM      1  C   UNL     1      -2.154   5.148  25.177  0.00  0.00    +0.033 C 
ATOM      2  C   UNL     1      -1.833   4.388  25.163  0.00  0.00    +0.175 C 
BRANCH   2  30
ATOM     30  C   UNL     1      -1.015   4.285  25.174  0.00  0.00    +0.281 C 
ATOM     31  N   UNL     1      -0.528   4.808  24.761  0.00  0.00    -0.086 NA
ATOM     32  O   UNL     1      -0.683   3.660  25.599  0.00  0.00    -0.270 OA
ENDBRANCH   2  30
ENDBRANCH   3   2
ENDBRANCH   6   4
TORSDOF 7
ENDMDL
MODEL 2
REMARK VINA RESULT:     -10.7      2.028      3.200
REMARK  Name = 
REMARK  7 active torsions:
REMARK  status: ('A' for Active; 'I' for Inactive)
REMARK    1  A    between atoms: C_2  and  N_3
REMARK    2  A    between atoms: C_2  and  C_30
REMARK    3  A    between atoms: C_4  and  C_6
REMARK    4  A    between atoms: C_13  and  N_15
REMARK    5  A    between atoms: N_18  and  C_19
REMARK    6  A    between atoms: C_22  and  O_23
REMARK    7  A    between atoms: O_23  and  C_24
REMARK                            x       y       z     vdW  Elec       q    Type
REMARK                         _______ _______ _______ _____ _____    ______ ____
ROOT
ATOM      6  C   UNL     1      -0.934   2.395  25.370  0.00  0.00    +0.200 C 
ATOM      7  O   UNL     1      -1.467   2.391  26.001  0.00  0.00    -0.216 OA
ATOM      8  C   UNL     1      -0.466   2.679  24.753  0.00  0.00    +0.075 C 
ATOM      9  C   UNL     1       0.002   2.157  24.318  0.00  0.00    +0.187 C 
ATOM     10  O   UNL     1       0.471   2.442  23.700  0.00  0.00    -0.220 OA
ATOM     11  C   UNL     1       0.002   1.353  24.499  0.00  0.00    +0.202 C 
ATOM     12  O   UNL     1       0.470   0.832  24.063  0.00  0.00    -0.219 OA
ATOM     13  C   UNL     1      -0.466   1.070  25.116  0.00  0.00    +0.133 C 
ATOM     14  C   UNL     1      -0.934   1.591  25.552  0.00  0.00    +0.064 C 
ENDROOT
BRANCH  13  15
ATOM     15  N   UNL     1      -0.466   0.264  25.297  0.00  0.00    -0.186 NA
ATOM     16  C   UNL     1      -1.133  -0.195  25.138  0.00  0.00    +0.344 C 
ATOM     17  O   UNL     1      -1.800   0.151  24.799  0.00  0.00    -0.249 OA
ATOM     18  N   UNL     1      -1.132  -0.999  25.320  0.00  0.00    -0.161 NA
BRANCH  18  19
ATOM     19  C   UNL     1      -1.798  -1.458  25.161  0.00  0.00    +0.075 A 
ATOM     20  C   UNL     1      -1.778  -2.020  24.557  0.00  0.00    +0.020 A 
ATOM     21  C   UNL     1      -2.445  -2.480  24.398  0.00  0.00    +0.039 A 
ATOM     22  C   UNL     1      -3.133  -2.377  24.844  0.00  0.00    +0.147 A 
ATOM     28  C   UNL     1      -3.152  -1.815  25.448  0.00  0.00    +0.039 A 
ATOM     29  C   UNL     1      -2.486  -1.356  25.606  0.00  0.00    +0.020 A 
BRANCH  22  23
ATOM     23  O   UNL     1      -3.799  -2.836  24.685  0.00  0.00    -0.404 OA
BRANCH  23  24
ATOM     24  C   UNL     1      -4.223  -2.719  23.988  0.00  0.00    +0.575 C 
ATOM     25  F   UNL     1      -4.647  -2.604  23.289  0.00  0.00    -0.133 F 
ATOM     26  F   UNL     1      -3.869  -3.389  23.660  0.00  0.00    -0.133 F 
ATOM     27  F   UNL     1      -4.578  -2.050  24.314  0.00  0.00    -0.133 F 
ENDBRANCH  23  24
ENDBRANCH  22  23
ENDBRANCH  18  19
ENDBRANCH  13  15
BRANCH   6   4
ATOM      3  N   UNL     1      -1.897   3.448  25.292  0.00  0.00    -0.196 NA
ATOM      4  C   UNL     1      -1.119   3.199  25.408  0.00  0.00    +0.269 C 
ATOM      5  O   UNL     1      -0.527   3.752  25.561  0.00  0.00    -0.271 OA
BRANCH   3   2
ATOM      1  C   UNL     1      -1.485   4.817  25.256  0.00  0.00    +0.033 C 
ATOM      2  C   UNL     1      -2.082   4.252  25.329  0.00  0.00    +0.175 C 
BRANCH   2  30
ATOM     30  C   UNL     1      -2.864   4.490  25.440  0.00  0.00    +0.281 C 
ATOM     31  N   UNL     1      -3.380   4.521  24.797  0.00  0.00    -0.086 NA
ATOM     32  O   UNL     1      -3.130   4.696  26.193  0.00  0.00    -0.270 OA
ENDBRANCH   2  30
ENDBRANCH   3   2
ENDBRANCH   6   4
TORSDOF 7
ENDMDL
MODEL 3
REMARK VINA RESULT:     -10.7      3.301      5.050
REMARK  Name = 
REMARK  7 active torsions:
REMARK  status: ('A' for Active; 'I' for Inactive)
REMARK    1  A    between atoms: C_2  and  N_3
REMARK    2  A    between atoms: C_2  and  C_30
REMARK    3  A    between atoms: C_4  and  C_6
REMARK    4  A    between atoms: C_13  and  N_15
REMARK    5  A    between atoms: N_18  and  C_19
REMARK    6  A    between atoms: C_22  and  O_23
REMARK    7  A    between atoms: O_23  and  C_24
REMARK                            x       y       z     vdW  Elec       q    Type
REMARK                         _______ _______ _______ _____ _____    ______ ____
ROOT
ATOM      6  C   UNL     1      -0.500   1.361  24.069  0.00  0.00    +0.200 C 
ATOM      7  O   UNL     1      -0.950   1.007  23.473  0.00  0.00    -0.216 OA
ATOM      8  C   UNL     1       0.104   1.477  24.619  0.00  0.00    +0.075 C 
ATOM      9  C   UNL     1       0.106   2.153  25.091  0.00  0.00    +0.187 C 
ATOM     10  O   UNL     1       0.710   2.269  25.641  0.00  0.00    -0.220 OA
ATOM     11  C   UNL     1      -0.494   2.713  25.013  0.00  0.00    +0.202 C 
ATOM     12  O   UNL     1      -0.491   3.389  25.486  0.00  0.00    -0.219 OA
ATOM     13  C   UNL     1      -1.098   2.597  24.463  0.00  0.00    +0.133 C 
ATOM     14  C   UNL     1      -1.101   1.920  23.991  0.00  0.00    +0.064 C 
ENDROOT
BRANCH  13  15
ATOM     15  N   UNL     1      -1.699   3.157  24.386  0.00  0.00    -0.186 NA
ATOM     16  C   UNL     1      -2.462   2.984  24.647  0.00  0.00    +0.344 C 
ATOM     17  O   UNL     1      -2.625   2.249  24.985  0.00  0.00    -0.249 OA
ATOM     18  N   UNL     1      -3.061   3.544  24.569  0.00  0.00    -0.161 NA
BRANCH  18  19
ATOM     19  C   UNL     1      -3.824   3.370  24.830  0.00  0.00    +0.075 A 
ATOM     20  C   UNL     1      -4.085   3.653  25.560  0.00  0.00    +0.020 A 
ATOM     21  C   UNL     1      -4.849   3.479  25.821  0.00  0.00    +0.039 A 
ATOM     22  C   UNL     1      -5.351   3.022  25.352  0.00  0.00    +0.147 A 
ATOM     28  C   UNL     1      -5.090   2.739  24.622  0.00  0.00    +0.039 A 
ATOM     29  C   UNL     1      -4.327   2.913  24.362  0.00  0.00    +0.020 A 
BRANCH  22  23
ATOM     23  O   UNL     1      -6.114   2.848  25.613  0.00  0.00    -0.404 OA
BRANCH  23  24
ATOM     24  C   UNL     1      -6.276   2.115  25.953  0.00  0.00    +0.575 C 
ATOM     25  F   UNL     1      -6.438   1.381  26.294  0.00  0.00    -0.133 F 
ATOM     26  F   UNL     1      -6.520   1.828  25.219  0.00  0.00    -0.133 F 
ATOM     27  F   UNL     1      -6.033   2.401  26.688  0.00  0.00    -0.133 F 
ENDBRANCH  23  24
ENDBRANCH  22  23
ENDBRANCH  18  19
ENDBRANCH  13  15
BRANCH   6   4
ATOM      3  N   UNL     1       0.424   0.619  23.271  0.00  0.00    -0.196 NA
ATOM      4  C   UNL     1      -0.055   0.678  23.939  0.00  0.00    +0.269 C 
ATOM      5  O   UNL     1      -0.090   0.054  24.479  0.00  0.00    -0.271 OA
BRANCH   3   2
ATOM      1  C   UNL     1       0.731  -0.739  23.597  0.00  0.00    +0.033 C 
ATOM      2  C   UNL     1       0.869  -0.065  23.141  0.00  0.00    +0.175 C 
BRANCH   2  30
ATOM     30  C   UNL     1       1.451  -0.073  22.557  0.00  0.00    +0.281 C 
ATOM     31  N   UNL     1       2.232   0.113  22.751  0.00  0.00    -0.086 NA
ATOM     32  O   UNL     1       1.253  -0.265  21.780  0.00  0.00    -0.270 OA
ENDBRANCH   2  30
ENDBRANCH   3   2
ENDBRANCH   6   4
TORSDOF 7
ENDMDL
MODEL 4
REMARK VINA RESULT:     -10.6      3.334      6.331
REMARK  Name = 
REMARK  7 active torsions:
REMARK  status: ('A' for Active; 'I' for Inactive)
REMARK    1  A    between atoms: C_2  and  N_3
REMARK    2  A    between atoms: C_2  and  C_30
REMARK    3  A    between atoms: C_4  and  C_6
REMARK    4  A    between atoms: C_13  and  N_15
REMARK    5  A    between atoms: N_18  and  C_19
REMARK    6  A    between atoms: C_22  and  O_23
REMARK    7  A    between atoms: O_23  and  C_24
REMARK                            x       y       z     vdW  Elec       q    Type
REMARK                         _______ _______ _______ _____ _____    ______ ____
ROOT
ATOM      6  C   UNL     1      -1.914  -1.104  25.183  0.00  0.00    +0.200 C 
ATOM      7  O   UNL     1      -2.532  -0.952  25.710  0.00  0.00    -0.216 OA
ATOM      8  C   UNL     1      -1.469  -1.479  24.597  0.00  0.00    +0.075 C 
ATOM      9  C   UNL     1      -0.744  -1.161  24.365  0.00  0.00    +0.187 C 
ATOM     10  O   UNL     1      -0.299  -1.535  23.779  0.00  0.00    -0.220 OA
ATOM     11  C   UNL     1      -0.465  -0.469  24.716  0.00  0.00    +0.202 C 
ATOM     12  O   UNL     1       0.259  -0.151  24.483  0.00  0.00    -0.219 OA
ATOM     13  C   UNL     1      -0.911  -0.095  25.301  0.00  0.00    +0.133 C 
ATOM     14  C   UNL     1      -1.635  -0.413  25.534  0.00  0.00    +0.064 C 
ENDROOT
BRANCH  13  15
ATOM     15  N   UNL     1      -0.631   0.598  25.653  0.00  0.00    -0.186 NA
ATOM     16  C   UNL     1      -0.939   1.329  25.427  0.00  0.00    +0.344 C 
ATOM     17  O   UNL     1      -1.527   1.369  24.850  0.00  0.00    -0.249 OA
ATOM     18  N   UNL     1      -0.659   2.020  25.779  0.00  0.00    -0.161 NA
BRANCH  18  19
ATOM     19  C   UNL     1      -0.967   2.751  25.554  0.00  0.00    +0.075 A 
ATOM     20  C   UNL     1      -1.634   3.052  25.933  0.00  0.00    +0.020 A 
ATOM     21  C   UNL     1      -1.942   3.784  25.708  0.00  0.00    +0.039 A 
ATOM     22  C   UNL     1      -1.583   4.214  25.102  0.00  0.00    +0.147 A 
ATOM     28  C   UNL     1      -0.915   3.913  24.722  0.00  0.00    +0.039 A 
ATOM     29  C   UNL     1      -0.607   3.182  24.948  0.00  0.00    +0.020 A 
BRANCH  22  23
ATOM     23  O   UNL     1      -1.891   4.945  24.877  0.00  0.00    -0.404 OA
BRANCH  23  24
ATOM     24  C   UNL     1      -1.483   5.638  25.060  0.00  0.00    +0.575 C 
ATOM     25  F   UNL     1      -1.076   6.332  25.245  0.00  0.00    -0.133 F 
ATOM     26  F   UNL     1      -1.933   5.721  25.748  0.00  0.00    -0.133 F 
ATOM     27  F   UNL     1      -1.033   5.557  24.374  0.00  0.00    -0.133 F 
ENDBRANCH  23  24
ENDBRANCH  22  23
ENDBRANCH  18  19
ENDBRANCH  13  15
BRANCH   6   4
ATOM      3  N   UNL     1      -3.142  -1.615  24.659  0.00  0.00    -0.196 NA
ATOM      4  C   UNL     1      -2.408  -1.744  25.014  0.00  0.00    +0.269 C 
ATOM      5  O   UNL     1      -2.168  -2.511  25.200  0.00  0.00    -0.271 OA
BRANCH   3   2
ATOM      1  C   UNL     1      -3.514  -2.981  24.864  0.00  0.00    +0.033 C 
ATOM      2  C   UNL     1      -3.636  -2.255  24.490  0.00  0.00    +0.175 C 
BRANCH   2  30
ATOM     30  C   UNL     1      -4.251  -2.168  23.948  0.00  0.00    +0.281 C 
ATOM     31  N   UNL     1      -4.432  -2.784  23.428  0.00  0.00    -0.086 NA
ATOM     32  O   UNL     1      -4.685  -1.467  23.924  0.00  0.00    -0.270 OA
ENDBRANCH   2  30
ENDBRANCH   3   2
ENDBRANCH   6   4
TORSDOF 7
ENDMDL
MODEL 5
REMARK VINA RESULT:     -10.3      3.069      5.990
REMARK  Name = 
REMARK  7 active torsions:
REMARK  status: ('A' for Active; 'I' for Inactive)
REMARK    1  A    between atoms: C_2  and  N_3
REMARK    2  A    between atoms: C_2  and  C_30
REMARK    3  A    between atoms: C_4  and  C_6
REMARK    4  A    between atoms: C_13  and  N_15
REMARK    5  A    between atoms: N_18  and  C_19
REMARK    6  A    between atoms: C_22  and  O_23
REMARK    7  A    between atoms: O_23  and  C_24
REMARK                            x       y       z     vdW  Elec       q    Type
REMARK                         _______ _______ _______ _____ _____    ______ ____
ROOT
ATOM      6  C   UNL     1      -1.149  -0.511  25.003  0.00  0.00    +0.200 C 
ATOM      7  O   UNL     1      -1.712  -0.559  25.604  0.00  0.00    -0.216 OA
ATOM      8  C   UNL     1      -0.649  -0.743  24.388  0.00  0.00    +0.075 C 
ATOM      9  C   UNL     1      -0.163  -0.186  24.021  0.00  0.00    +0.187 C 
ATOM     10  O   UNL     1       0.337  -0.418  23.406  0.00  0.00    -0.220 OA
ATOM     11  C   UNL     1      -0.177   0.601  24.268  0.00  0.00    +0.202 C 
ATOM     12  O   UNL     1       0.309   1.156  23.900  0.00  0.00    -0.219 OA
ATOM     13  C   UNL     1      -0.676   0.831  24.882  0.00  0.00    +0.133 C 
ATOM     14  C   UNL     1      -1.162   0.276  25.249  0.00  0.00    +0.064 C 
ENDROOT
BRANCH  13  15
ATOM     15  N   UNL     1      -0.689   1.619  25.128  0.00  0.00    -0.186 NA
ATOM     16  C   UNL     1      -1.402   2.034  25.149  0.00  0.00    +0.344 C 
ATOM     17  O   UNL     1      -2.103   1.661  24.923  0.00  0.00    -0.249 OA
ATOM     18  N   UNL     1      -1.415   2.820  25.395  0.00  0.00    -0.161 NA
BRANCH  18  19
ATOM     19  C   UNL     1      -2.127   3.235  25.415  0.00  0.00    +0.075 A 
ATOM     20  C   UNL     1      -2.508   3.437  24.712  0.00  0.00    +0.020 A 
ATOM     21  C   UNL     1      -3.221   3.852  24.732  0.00  0.00    +0.039 A 
ATOM     22  C   UNL     1      -3.554   4.064  25.457  0.00  0.00    +0.147 A 
ATOM     28  C   UNL     1      -3.174   3.862  26.161  0.00  0.00    +0.039 A 
ATOM     29  C   UNL     1      -2.461   3.448  26.140  0.00  0.00    +0.020 A 
BRANCH  22  23
ATOM     23  O   UNL     1      -4.267   4.478  25.478  0.00  0.00    -0.404 OA
BRANCH  23  24
ATOM     24  C   UNL     1      -4.982   4.072  25.417  0.00  0.00    +0.575 C 
ATOM     25  F   UNL     1      -5.697   3.665  25.355  0.00  0.00    -0.133 F 
ATOM     26  F   UNL     1      -4.980   4.191  24.600  0.00  0.00    -0.133 F 
ATOM     27  F   UNL     1      -4.984   3.952  26.233  0.00  0.00    -0.133 F 
ENDBRANCH  23  24
ENDBRANCH  22  23
ENDBRANCH  18  19
ENDBRANCH  13  15
BRANCH   6   4
ATOM      3  N   UNL     1      -2.076  -1.557  24.707  0.00  0.00    -0.196 NA
ATOM      4  C   UNL     1      -1.331  -1.315  24.965  0.00  0.00    +0.269 C 
ATOM      5  O   UNL     1      -0.768  -1.877  25.185  0.00  0.00    -0.271 OA
BRANCH   3   2
ATOM      1  C   UNL     1      -1.653  -2.921  24.637  0.00  0.00    +0.033 C 
ATOM      2  C   UNL     1      -2.258  -2.361  24.669  0.00  0.00    +0.175 C 
BRANCH   2  30
ATOM     30  C   UNL     1      -3.046  -2.605  24.663  0.00  0.00    +0.281 C 
ATOM     31  N   UNL     1      -3.483  -2.569  23.963  0.00  0.00    -0.086 NA
ATOM     32  O   UNL     1      -3.398  -2.885  25.355  0.00  0.00    -0.270 OA
ENDBRANCH   2  30
ENDBRANCH   3   2
ENDBRANCH   6   4
TORSDOF 7
ENDMDL
MODEL 6
REMARK VINA RESULT:     -10.0      2.837      5.435
REMARK  Name = 
REMARK  7 active torsions:
REMARK  status: ('A' for Active; 'I' for Inactive)
REMARK    1  A    between atoms: C_2  and  N_3
REMARK    2  A    between atoms: C_2  and  C_30
REMARK    3  A    between atoms: C_4  and  C_6
REMARK    4  A    between atoms: C_13  and  N_15
REMARK    5  A    between atoms: N_18  and  C_19
REMARK    6  A    between atoms: C_22  and  O_23
REMARK    7  A    between atoms: O_23  and  C_24
REMARK                            x       y       z     vdW  Elec       q    Type
REMARK                         _______ _______ _______ _____ _____    ______ ____
ROOT
ATOM      6  C   UNL     1      -3.034  -0.502  25.158  0.00  0.00    +0.200 C 
ATOM      7  O   UNL     1      -2.464  -0.285  25.715  0.00  0.00    -0.216 OA
ATOM      8  C   UNL     1      -3.437  -0.954  24.597  0.00  0.00    +0.075 C 
ATOM      9  C   UNL     1      -4.119  -0.655  24.241  0.00  0.00    +0.187 C 
ATOM     10  O   UNL     1      -4.522  -1.107  23.680  0.00  0.00    -0.220 OA
ATOM     11  C   UNL     1      -4.397   0.094  24.445  0.00  0.00    +0.202 C 
ATOM     12  O   UNL     1      -5.078   0.392  24.089  0.00  0.00    -0.219 OA
ATOM     13  C   UNL     1      -3.993   0.545  25.005  0.00  0.00    +0.133 C 
ATOM     14  C   UNL     1      -3.312   0.247  25.362  0.00  0.00    +0.064 C 
ENDROOT
BRANCH  13  15
ATOM     15  N   UNL     1      -4.272   1.295  25.209  0.00  0.00    -0.186 NA
ATOM     16  C   UNL     1      -3.758   1.940  25.210  0.00  0.00    +0.344 C 
ATOM     17  O   UNL     1      -2.966   1.837  25.006  0.00  0.00    -0.249 OA
ATOM     18  N   UNL     1      -4.037   2.689  25.413  0.00  0.00    -0.161 NA
BRANCH  18  19
ATOM     19  C   UNL     1      -3.524   3.334  25.414  0.00  0.00    +0.075 A 
ATOM     20  C   UNL     1      -3.375   3.743  24.713  0.00  0.00    +0.020 A 
ATOM     21  C   UNL     1      -2.861   4.389  24.713  0.00  0.00    +0.039 A 
ATOM     22  C   UNL     1      -2.496   4.626  25.415  0.00  0.00    +0.147 A 
ATOM     28  C   UNL     1      -2.645   4.217  26.116  0.00  0.00    +0.039 A 
ATOM     29  C   UNL     1      -3.159   3.571  26.115  0.00  0.00    +0.020 A 
BRANCH  22  23
ATOM     23  O   UNL     1      -1.983   5.271  25.416  0.00  0.00    -0.404 OA
BRANCH  23  24
ATOM     24  C   UNL     1      -1.255   5.219  25.031  0.00  0.00    +0.575 C 
ATOM     25  F   UNL     1      -0.527   5.168  24.645  0.00  0.00    -0.133 F 
ATOM     26  F   UNL     1      -1.536   5.716  24.434  0.00  0.00    -0.133 F 
ATOM     27  F   UNL     1      -0.974   4.723  25.627  0.00  0.00    -0.133 F 
ENDBRANCH  23  24
ENDBRANCH  22  23
ENDBRANCH  18  19
ENDBRANCH  13  15
BRANCH   6   4
ATOM      3  N   UNL     1      -1.782  -1.128  24.871  0.00  0.00    -0.196 NA
ATOM      4  C   UNL     1      -2.558  -1.176  25.147  0.00  0.00    +0.269 C 
ATOM      5  O   UNL     1      -2.858  -1.898  25.412  0.00  0.00    -0.271 OA
BRANCH   3   2
ATOM      1  C   UNL     1      -1.651  -2.551  24.808  0.00  0.00    +0.033 C 
ATOM      2  C   UNL     1      -1.306  -1.803  24.860  0.00  0.00    +0.175 C 
BRANCH   2  30
ATOM     30  C   UNL     1      -0.485  -1.728  24.902  0.00  0.00    +0.281 C 
ATOM     31  N   UNL     1      -0.082  -1.292  24.329  0.00  0.00    -0.086 NA
ATOM     32  O   UNL     1      -0.068  -2.090  25.515  0.00  0.00    -0.270 OA
ENDBRANCH   2  30
ENDBRANCH   3   2
ENDBRANCH   6   4
TORSDOF 7
ENDMDL
MODEL 7
REMARK VINA RESULT:      -9.8      1.669      3.102
REMARK  Name = 
REMARK  7 active torsions:
REMARK  status: ('A' for Active; 'I' for Inactive)
REMARK    1  A    between atoms: C_2  and  N_3
REMARK    2  A    between atoms: C_2  and  C_30
REMARK    3  A    between atoms: C_4  and  C_6
REMARK    4  A    between atoms: C_13  and  N_15
REMARK    5  A    between atoms: N_18  and  C_19
REMARK    6  A    between atoms: C_22  and  O_23
REMARK    7  A    between atoms: O_23  and  C_24
REMARK                            x       y       z     vdW  Elec       q    Type
REMARK                         _______ _______ _______ _____ _____    ______ ____
ROOT
ATOM      6  C   UNL     1      -3.016   3.000  24.935  0.00  0.00    +0.200 C 
ATOM      7  O   UNL     1      -3.444   2.450  24.492  0.00  0.00    -0.216 OA
ATOM      8  C   UNL     1      -2.850   3.668  25.391  0.00  0.00    +0.075 C 
ATOM      9  C   UNL     1      -2.081   3.804  25.656  0.00  0.00    +0.187 C 
ATOM     10  O   UNL     1      -1.915   4.472  26.112  0.00  0.00    -0.220 OA
ATOM     11  C   UNL     1      -1.479   3.274  25.467  0.00  0.00    +0.202 C 
ATOM     12  O   UNL     1      -0.710   3.411  25.733  0.00  0.00    -0.219 OA
ATOM     13  C   UNL     1      -1.645   2.607  25.012  0.00  0.00    +0.133 C 
ATOM     14  C   UNL     1      -2.414   2.470  24.746  0.00  0.00    +0.064 C 
ENDROOT
BRANCH  13  15
ATOM     15  N   UNL     1      -1.042   2.076  24.822  0.00  0.00    -0.186 NA
ATOM     16  C   UNL     1      -1.183   1.264  24.847  0.00  0.00    +0.344 C 
ATOM     17  O   UNL     1      -1.928   0.981  25.060  0.00  0.00    -0.249 OA
ATOM     18  N   UNL     1      -0.580   0.735  24.657  0.00  0.00    -0.161 NA
BRANCH  18  19
ATOM     19  C   UNL     1      -0.721  -0.077  24.682  0.00  0.00    +0.075 A 
ATOM     20  C   UNL     1      -0.762  -0.511  23.981  0.00  0.00    +0.020 A 
ATOM     21  C   UNL     1      -0.903  -1.324  24.005  0.00  0.00    +0.039 A 
ATOM     22  C   UNL     1      -1.005  -1.703  24.731  0.00  0.00    +0.147 A 
ATOM     28  C   UNL     1      -0.964  -1.270  25.432  0.00  0.00    +0.039 A 
ATOM     29  C   UNL     1      -0.823  -0.458  25.408  0.00  0.00    +0.020 A 
BRANCH  22  23
ATOM     23  O   UNL     1      -1.146  -2.515  24.756  0.00  0.00    -0.404 OA
BRANCH  23  24
ATOM     24  C   UNL     1      -1.872  -2.814  24.506  0.00  0.00    +0.575 C 
ATOM     25  F   UNL     1      -2.600  -3.114  24.256  0.00  0.00    -0.133 F 
ATOM     26  F   UNL     1      -2.195  -2.653  25.249  0.00  0.00    -0.133 F 
ATOM     27  F   UNL     1      -1.552  -2.976  23.763  0.00  0.00    -0.133 F 
ENDBRANCH  23  24
ENDBRANCH  22  23
ENDBRANCH  18  19
ENDBRANCH  13  15
BRANCH   6   4
ATOM      3  N   UNL     1      -4.371   2.963  25.389  0.00  0.00    -0.196 NA
ATOM      4  C   UNL     1      -3.768   3.340  24.971  0.00  0.00    +0.269 C 
ATOM      5  O   UNL     1      -3.915   4.056  24.589  0.00  0.00    -0.271 OA
BRANCH   3   2
ATOM      1  C   UNL     1      -5.241   4.072  25.152  0.00  0.00    +0.033 C 
ATOM      2  C   UNL     1      -5.122   3.303  25.425  0.00  0.00    +0.175 C 
BRANCH   2  30
ATOM     30  C   UNL     1      -5.755   2.872  25.733  0.00  0.00    +0.281 C 
ATOM     31  N   UNL     1      -6.240   2.434  25.229  0.00  0.00    -0.086 NA
ATOM     32  O   UNL     1      -5.902   2.879  26.545  0.00  0.00    -0.270 OA
ENDBRANCH   2  30
ENDBRANCH   3   2
ENDBRANCH   6   4
TORSDOF 7
ENDMDL
MODEL 8
REMARK VINA RESULT:      -9.7      3.622      5.050
REMARK  Name = 
REMARK  7 active torsions:
REMARK  status: ('A' for Active; 'I' for Inactive)
REMARK    1  A    between atoms: C_2  and  N_3
REMARK    2  A    between atoms: C_2  and  C_30
REMARK    3  A    between atoms: C_4  and  C_6
REMARK    4  A    between atoms: C_13  and  N_15
REMARK    5  A    between atoms: N_18  and  C_19
REMARK    6  A    between atoms: C_22  and  O_23
REMARK    7  A    between atoms: O_23  and  C_24
REMARK                            x       y       z     vdW  Elec       q    Type
REMARK                         _______ _______ _______ _____ _____    ______ ____
ROOT
ATOM      6  C   UNL     1      -0.685   0.178  23.978  0.00  0.00    +0.200 C 
ATOM      7  O   UNL     1      -0.785   0.788  23.431  0.00  0.00    -0.216 OA
ATOM      8  C   UNL     1      -0.311  -0.357  24.484  0.00  0.00    +0.075 C 
ATOM      9  C   UNL     1      -0.760  -0.897  24.916  0.00  0.00    +0.187 C 
ATOM     10  O   UNL     1      -0.386  -1.432  25.422  0.00  0.00    -0.220 OA
ATOM     11  C   UNL     1      -1.581  -0.904  24.843  0.00  0.00    +0.202 C 
ATOM     12  O   UNL     1      -2.030  -1.444  25.275  0.00  0.00    -0.219 OA
ATOM     13  C   UNL     1      -1.954  -0.369  24.337  0.00  0.00    +0.133 C 
ATOM     14  C   UNL     1      -1.506   0.171  23.905  0.00  0.00    +0.064 C 
ENDROOT
BRANCH  13  15
ATOM     15  N   UNL     1      -2.777  -0.376  24.264  0.00  0.00    -0.186 NA
ATOM     16  C   UNL     1      -3.217   0.282  24.494  0.00  0.00    +0.344 C 
ATOM     17  O   UNL     1      -2.837   0.948  24.797  0.00  0.00    -0.249 OA
ATOM     18  N   UNL     1      -4.038   0.274  24.421  0.00  0.00    -0.161 NA
BRANCH  18  19
ATOM     19  C   UNL     1      -4.479   0.932  24.650  0.00  0.00    +0.075 A 
ATOM     20  C   UNL     1      -4.445   1.627  24.207  0.00  0.00    +0.020 A 
ATOM     21  C   UNL     1      -4.885   2.286  24.437  0.00  0.00    +0.039 A 
ATOM     22  C   UNL     1      -5.361   2.250  25.111  0.00  0.00    +0.147 A 
ATOM     28  C   UNL     1      -5.395   1.555  25.554  0.00  0.00    +0.039 A 
ATOM     29  C   UNL     1      -4.955   0.897  25.324  0.00  0.00    +0.020 A 
BRANCH  22  23
ATOM     23  O   UNL     1      -5.801   2.908  25.340  0.00  0.00    -0.404 OA
BRANCH  23  24
ATOM     24  C   UNL     1      -5.424   3.559  25.679  0.00  0.00    +0.575 C 
ATOM     25  F   UNL     1      -5.046   4.210  26.018  0.00  0.00    -0.133 F 
ATOM     26  F   UNL     1      -5.450   3.190  26.417  0.00  0.00    -0.133 F 
ATOM     27  F   UNL     1      -5.398   3.928  24.942  0.00  0.00    -0.133 F 
ENDBRANCH  23  24
ENDBRANCH  22  23
ENDBRANCH  18  19
ENDBRANCH  13  15
BRANCH   6   4
ATOM      3  N   UNL     1       0.511   0.125  23.198  0.00  0.00    -0.196 NA
ATOM      4  C   UNL     1       0.103   0.396  23.862  0.00  0.00    +0.269 C 
ATOM      5  O   UNL     1       0.480   0.885  24.408  0.00  0.00    -0.271 OA
BRANCH   3   2
ATOM      1  C   UNL     1       1.629   0.952  23.531  0.00  0.00    +0.033 C 
ATOM      2  C   UNL     1       1.299   0.344  23.082  0.00  0.00    +0.175 C 
BRANCH   2  30
ATOM     30  C   UNL     1       1.755  -0.046  22.515  0.00  0.00    +0.281 C 
ATOM     31  N   UNL     1       2.558  -0.178  22.653  0.00  0.00    -0.086 NA
ATOM     32  O   UNL     1       1.409  -0.303  21.812  0.00  0.00    -0.270 OA
ENDBRANCH   2  30
ENDBRANCH   3   2
ENDBRANCH   6   4
TORSDOF 7
ENDMDL
