MODEL 1
REMARK VINA RESULT:     -11.6      0.000      0.000
REMARK  Name = 
REMARK  6 active torsions:
REMARK  status: ('A' for Active; 'I' for Inactive)
REMARK    1  A    between atoms: C_2  and  C_3
REMARK    2  A    between atoms: C_3  and  N_4
REMARK    3  A    between atoms: C_8  and  C_9
REMARK    4  A    between atoms: C_11  and  C_14
REMARK    5  A    between atoms: C_18  and  N_20
REMARK    6  A    between atoms: C_23  and  C_26
REMARK                            x       y       z     vdW  Elec       q    Type
REMARK                         _______ _______ _______ _____ _____    ______ ____
ROOT
ATOM     14  C   UNL     1      -4.216   1.930  24.785  0.00  0.00    +0.043 A 
ATOM     15  C   UNL     1      -4.980   2.067  25.065  0.00  0.00    +0.024 A 
ATOM     16  C   UNL     1      -5.462   1.433  25.278  0.00  0.00    +0.100 A 
ATOM     17  N   UNL     1      -5.180   0.661  25.212  0.00  0.00    -0.229 NA
ATOM     18  C   UNL     1      -4.416   0.522  24.933  0.00  0.00    +0.132 A 
ATOM     19  C   UNL     1      -3.934   1.157  24.719  0.00  0.00    +0.037 A 
ENDROOT
BRANCH  18  20
ATOM     20  N   UNL     1      -4.134  -0.250  24.867  0.00  0.00    -0.293 N 
ATOM     21  C   UNL     1      -3.760  -0.608  25.508  0.00  0.00    +0.093 C 
ATOM     22  C   UNL     1      -3.478  -1.381  25.442  0.00  0.00    +0.031 C 
ATOM     23  C   UNL     1      -3.571  -1.795  24.735  0.00  0.00    +0.083 C 
ATOM     24  C   UNL     1      -3.946  -1.437  24.093  0.00  0.00    +0.031 C 
ATOM     25  C   UNL     1      -4.228  -0.664  24.159  0.00  0.00    +0.093 C 
BRANCH  23  26
ATOM     26  C   UNL     1      -3.289  -2.568  24.669  0.00  0.00    +0.260 C 
ATOM     27  N   UNL     1      -2.523  -2.705  24.393  0.00  0.00    -0.088 NA
ATOM     28  O   UNL     1      -3.773  -3.202  24.879  0.00  0.00    -0.272 OA
ENDBRANCH  23  26
ENDBRANCH  18  20
BRANCH  14  11
ATOM      9  C   UNL     1      -2.789   3.507  24.598  0.00  0.00    +0.251 A 
ATOM     10  N   UNL     1      -3.120   2.880  25.021  0.00  0.00    -0.190 NA
ATOM     11  C   UNL     1      -3.734   2.565  24.572  0.00  0.00    +0.203 A 
ATOM     12  N   UNL     1      -3.785   2.996  23.870  0.00  0.00    -0.056 NA
ATOM     13  O   UNL     1      -3.200   3.578  23.886  0.00  0.00    -0.336 OA
BRANCH   9   8
ATOM      4  N   UNL     1      -1.358   3.783  24.794  0.00  0.00    -0.266 NA
ATOM      5  C   UNL     1      -0.923   4.414  25.100  0.00  0.00    +0.073 C 
ATOM      6  C   UNL     1      -1.454   4.999  25.338  0.00  0.00    +0.019 C 
ATOM      7  C   UNL     1      -2.218   4.730  25.179  0.00  0.00    +0.027 C 
ATOM      8  C   UNL     1      -2.159   3.978  24.842  0.00  0.00    +0.138 C 
BRANCH   4   3
ATOM      3  C   UNL     1      -1.048   3.082  24.492  0.00  0.00    +0.072 C 
BRANCH   3   2
ATOM      1  C   UNL     1       0.064   2.205  24.299  0.00  0.00    +0.001 C 
ATOM      2  C   UNL     1      -0.238   2.935  24.537  0.00  0.00    +0.017 C 
ENDBRANCH   3   2
ENDBRANCH   4   3
ENDBRANCH   9   8
ENDBRANCH  14  11
TORSDOF 6
ENDMDL
MODEL 2
REMARK VINA RESULT:     -11.3      1.179      5.120
REMARK  Name = 
REMARK  6 active torsions:
REMARK  status: ('A' for Active; 'I' for Inactive)
REMARK    1  A    between atoms: C_2  and  C_3
REMARK    2  A    between atoms: C_3  and  N_4
REMARK    3  A    between atoms: C_8  and  C_9
REMARK    4  A    between atoms: C_11  and  C_14
REMARK    5  A    between atoms: C_18  and  N_20
REMARK    6  A    between atoms: C_23  and  C_26
REMARK                            x       y       z     vdW  Elec       q    Type
REMARK                         _______ _______ _______ _____ _____    ______ ____
ROOT
ATOM     14  C   UNL     1      -4.325   1.184  24.955  0.00  0.00    +0.043 A 
ATOM     15  C   UNL     1      -5.081   1.438  24.742  0.00  0.00    +0.024 A 
ATOM     16  C   UNL     1      -5.223   2.237  24.598  0.00  0.00    +0.100 A 
ATOM     17  N   UNL     1      -4.609   2.784  24.667  0.00  0.00    -0.229 NA
ATOM     18  C   UNL     1      -3.853   2.531  24.879  0.00  0.00    +0.132 A 
ATOM     19  C   UNL     1      -3.711   1.731  25.023  0.00  0.00    +0.037 A 
ENDROOT
BRANCH  18  20
ATOM     20  N   UNL     1      -3.239   3.078  24.948  0.00  0.00    -0.293 N 
ATOM     21  C   UNL     1      -2.653   3.113  24.370  0.00  0.00    +0.093 C 
ATOM     22  C   UNL     1      -2.039   3.660  24.438  0.00  0.00    +0.031 C 
ATOM     23  C   UNL     1      -2.011   4.171  25.085  0.00  0.00    +0.083 C 
ATOM     24  C   UNL     1      -2.598   4.135  25.664  0.00  0.00    +0.031 C 
ATOM     25  C   UNL     1      -3.212   3.588  25.596  0.00  0.00    +0.093 C 
BRANCH  23  26
ATOM     26  C   UNL     1      -1.397   4.717  25.154  0.00  0.00    +0.260 C 
ATOM     27  N   UNL     1      -0.612   4.465  25.109  0.00  0.00    -0.088 NA
ATOM     28  O   UNL     1      -1.567   5.517  25.267  0.00  0.00    -0.272 OA
ENDBRANCH  23  26
ENDBRANCH  18  20
BRANCH  14  11
ATOM      9  C   UNL     1      -3.861  -0.900  24.926  0.00  0.00    +0.251 A 
ATOM     10  N   UNL     1      -3.929  -0.171  24.545  0.00  0.00    -0.190 NA
ATOM     11  C   UNL     1      -4.184   0.384  25.098  0.00  0.00    +0.203 A 
ATOM     12  N   UNL     1      -4.275  -0.001  25.823  0.00  0.00    -0.056 NA
ATOM     13  O   UNL     1      -4.075  -0.794  25.716  0.00  0.00    -0.336 OA
BRANCH   9   8
ATOM      4  N   UNL     1      -2.853  -1.909  24.571  0.00  0.00    -0.266 NA
ATOM      5  C   UNL     1      -2.866  -2.628  24.166  0.00  0.00    +0.073 C 
ATOM      6  C   UNL     1      -3.642  -2.772  23.925  0.00  0.00    +0.019 C 
ATOM      7  C   UNL     1      -4.109  -2.141  24.181  0.00  0.00    +0.027 C 
ATOM      8  C   UNL     1      -3.621  -1.608  24.580  0.00  0.00    +0.138 C 
BRANCH   4   3
ATOM      3  C   UNL     1      -2.190  -1.554  24.906  0.00  0.00    +0.072 C 
BRANCH   3   2
ATOM      1  C   UNL     1      -0.780  -1.537  25.141  0.00  0.00    +0.001 C 
ATOM      2  C   UNL     1      -1.447  -1.902  24.821  0.00  0.00    +0.017 C 
ENDBRANCH   3   2
ENDBRANCH   4   3
ENDBRANCH   9   8
ENDBRANCH  14  11
TORSDOF 6
ENDMDL
MODEL 3
REMARK VINA RESULT:     -10.9      1.759      2.899
REMARK  Name = 
REMARK  6 active torsions:
REMARK  status: ('A' for Active; 'I' for Inactive)
REMARK    1  A    between atoms: C_2  and  C_3
REMARK    2  A    between atoms: C_3  and  N_4
REMARK    3  A    between atoms: C_8  and  C_9
REMARK    4  A    between atoms: C_11  and  C_14
REMARK    5  A    between atoms: C_18  and  N_20
REMARK    6  A    between atoms: C_23  and  C_26
REMARK                            x       y       z     vdW  Elec       q    Type
REMARK                         _______ _______ _______ _____ _____    ______ ____
ROOT
ATOM     14  C   UNL     1      -0.601   1.095  24.730  0.00  0.00    +0.043 A 
ATOM     15  C   UNL     1       0.060   0.947  24.260  0.00  0.00    +0.024 A 
ATOM     16  C   UNL     1       0.139   0.224  23.873  0.00  0.00    +0.100 A 
ATOM     17  N   UNL     1      -0.444  -0.354  23.956  0.00  0.00    -0.229 NA
ATOM     18  C   UNL     1      -1.106  -0.207  24.426  0.00  0.00    +0.132 A 
ATOM     19  C   UNL     1      -1.185   0.517  24.813  0.00  0.00    +0.037 A 
ENDROOT
BRANCH  18  20
ATOM     20  N   UNL     1      -1.689  -0.785  24.509  0.00  0.00    -0.293 N 
ATOM     21  C   UNL     1      -1.477  -1.564  24.674  0.00  0.00    +0.093 C 
ATOM     22  C   UNL     1      -2.060  -2.142  24.757  0.00  0.00    +0.031 C 
ATOM     23  C   UNL     1      -2.856  -1.940  24.675  0.00  0.00    +0.083 C 
ATOM     24  C   UNL     1      -3.068  -1.159  24.510  0.00  0.00    +0.031 C 
ATOM     25  C   UNL     1      -2.485  -0.582  24.427  0.00  0.00    +0.093 C 
BRANCH  23  26
ATOM     26  C   UNL     1      -3.439  -2.517  24.758  0.00  0.00    +0.260 C 
ATOM     27  N   UNL     1      -3.929  -2.703  24.120  0.00  0.00    -0.088 NA
ATOM     28  O   UNL     1      -3.532  -2.908  25.478  0.00  0.00    -0.272 OA
ENDBRANCH  23  26
ENDBRANCH  18  20
BRANCH  14  11
ATOM      9  C   UNL     1      -0.957   3.100  25.371  0.00  0.00    +0.251 A 
ATOM     10  N   UNL     1      -0.981   2.514  24.791  0.00  0.00    -0.190 NA
ATOM     11  C   UNL     1      -0.679   1.819  25.117  0.00  0.00    +0.203 A 
ATOM     12  N   UNL     1      -0.467   1.976  25.899  0.00  0.00    -0.056 NA
ATOM     13  O   UNL     1      -0.639   2.767  26.056  0.00  0.00    -0.336 OA
BRANCH   9   8
ATOM      4  N   UNL     1      -1.965   4.168  25.430  0.00  0.00    -0.266 NA
ATOM      5  C   UNL     1      -1.967   4.977  25.270  0.00  0.00    +0.073 C 
ATOM      6  C   UNL     1      -1.209   5.190  25.023  0.00  0.00    +0.019 C 
ATOM      7  C   UNL     1      -0.738   4.513  25.032  0.00  0.00    +0.027 C 
ATOM      8  C   UNL     1      -1.206   3.881  25.283  0.00  0.00    +0.138 C 
BRANCH   4   3
ATOM      3  C   UNL     1      -2.609   3.725  25.691  0.00  0.00    +0.072 C 
BRANCH   3   2
ATOM      1  C   UNL     1      -4.020   3.616  25.889  0.00  0.00    +0.001 C 
ATOM      2  C   UNL     1      -3.347   4.081  25.780  0.00  0.00    +0.017 C 
ENDBRANCH   3   2
ENDBRANCH   4   3
ENDBRANCH   9   8
ENDBRANCH  14  11
TORSDOF 6
ENDMDL
MODEL 4
REMARK VINA RESULT:     -10.2      2.413      4.775
REMARK  Name = 
REMARK  6 active torsions:
REMARK  status: ('A' for Active; 'I' for Inactive)
REMARK    1  A    between atoms: C_2  and  C_3
REMARK    2  A    between atoms: C_3  and  N_4
REMARK    3  A    between atoms: C_8  and  C_9
REMARK    4  A    between atoms: C_11  and  C_14
REMARK    5  A    between atoms: C_18  and  N_20
REMARK    6  A    between atoms: C_23  and  C_26
REMARK                            x       y       z     vdW  Elec       q    Type
REMARK                         _______ _______ _______ _____ _____    ______ ____
ROOT
ATOM     14  C   UNL     1      -0.924   3.359  24.972  0.00  0.00    +0.043 A 
ATOM     15  C   UNL     1      -0.605   4.120  24.949  0.00  0.00    +0.024 A 
ATOM     16  C   UNL     1      -1.098   4.776  25.025  0.00  0.00    +0.100 A 
ATOM     17  N   UNL     1      -1.911   4.672  25.125  0.00  0.00    -0.229 NA
ATOM     18  C   UNL     1      -2.230   3.912  25.148  0.00  0.00    +0.132 A 
ATOM     19  C   UNL     1      -1.736   3.255  25.072  0.00  0.00    +0.037 A 
ENDROOT
BRANCH  18  20
ATOM     20  N   UNL     1      -3.042   3.808  25.247  0.00  0.00    -0.293 N 
ATOM     21  C   UNL     1      -3.522   3.666  24.592  0.00  0.00    +0.093 C 
ATOM     22  C   UNL     1      -4.335   3.562  24.692  0.00  0.00    +0.031 C 
ATOM     23  C   UNL     1      -4.667   3.600  25.446  0.00  0.00    +0.083 C 
ATOM     24  C   UNL     1      -4.186   3.743  26.101  0.00  0.00    +0.031 C 
ATOM     25  C   UNL     1      -3.373   3.847  26.002  0.00  0.00    +0.093 C 
BRANCH  23  26
ATOM     26  C   UNL     1      -5.479   3.496  25.545  0.00  0.00    +0.260 C 
ATOM     27  N   UNL     1      -5.811   2.745  25.469  0.00  0.00    -0.088 NA
ATOM     28  O   UNL     1      -5.959   4.144  25.721  0.00  0.00    -0.272 OA
ENDBRANCH  23  26
ENDBRANCH  18  20
BRANCH  14  11
ATOM      9  C   UNL     1       0.100   1.554  24.469  0.00  0.00    +0.251 A 
ATOM     10  N   UNL     1      -0.514   2.092  24.349  0.00  0.00    -0.190 NA
ATOM     11  C   UNL     1      -0.429   2.703  24.896  0.00  0.00    +0.203 A 
ATOM     12  N   UNL     1       0.238   2.544  25.354  0.00  0.00    -0.056 NA
ATOM     13  O   UNL     1       0.565   1.834  25.090  0.00  0.00    -0.336 OA
BRANCH   9   8
ATOM      4  N   UNL     1      -0.093   0.119  24.215  0.00  0.00    -0.266 NA
ATOM      5  C   UNL     1       0.180  -0.415  23.648  0.00  0.00    +0.073 C 
ATOM      6  C   UNL     1       0.668  -0.004  23.125  0.00  0.00    +0.019 C 
ATOM      7  C   UNL     1       0.698   0.784  23.369  0.00  0.00    +0.027 C 
ATOM      8  C   UNL     1       0.227   0.860  24.043  0.00  0.00    +0.138 C 
BRANCH   4   3
ATOM      3  C   UNL     1      -0.596  -0.057  24.844  0.00  0.00    +0.072 C 
BRANCH   3   2
ATOM      1  C   UNL     1      -1.380  -1.003  25.574  0.00  0.00    +0.001 C 
ATOM      2  C   UNL     1      -0.862  -0.830  24.956  0.00  0.00    +0.017 C 
ENDBRANCH   3   2
ENDBRANCH   4   3
ENDBRANCH   9   8
ENDBRANCH  14  11
TORSDOF 6
ENDMDL
MODEL 5
REMARK VINA RESULT:      -9.9      1.610      5.808
REMARK  Name = 
REMARK  6 active torsions:
REMARK  status: ('A' for Active; 'I' for Inactive)
REMARK    1  A    between atoms: C_2  and  C_3
REMARK    2  A    between atoms: C_3  and  N_4
REMARK    3  A    between atoms: C_8  and  C_9
REMARK    4  A    between atoms: C_11  and  C_14
REMARK    5  A    between atoms: C_18  and  N_20
REMARK    6  A    between atoms: C_23  and  C_26
REMARK                            x       y       z     vdW  Elec       q    Type
REMARK                         _______ _______ _______ _____ _____    ______ ____
ROOT
ATOM     14  C   UNL     1      -0.578   0.169  24.477  0.00  0.00    +0.043 A 
ATOM     15  C   UNL     1       0.118   0.043  24.053  0.00  0.00    +0.024 A 
ATOM     16  C   UNL     1       0.581   0.684  23.818  0.00  0.00    +0.100 A 
ATOM     17  N   UNL     1       0.347   1.452  24.006  0.00  0.00    -0.229 NA
ATOM     18  C   UNL     1      -0.350   1.579  24.430  0.00  0.00    +0.132 A 
ATOM     19  C   UNL     1      -0.812   0.938  24.665  0.00  0.00    +0.037 A 
ENDROOT
BRANCH  18  20
ATOM     20  N   UNL     1      -0.584   2.348  24.618  0.00  0.00    -0.293 N 
ATOM     21  C   UNL     1      -1.101   2.754  24.121  0.00  0.00    +0.093 C 
ATOM     22  C   UNL     1      -1.335   3.522  24.309  0.00  0.00    +0.031 C 
ATOM     23  C   UNL     1      -1.052   3.884  24.995  0.00  0.00    +0.083 C 
ATOM     24  C   UNL     1      -0.534   3.477  25.492  0.00  0.00    +0.031 C 
ATOM     25  C   UNL     1      -0.300   2.709  25.303  0.00  0.00    +0.093 C 
BRANCH  23  26
ATOM     26  C   UNL     1      -1.286   4.652  25.183  0.00  0.00    +0.260 C 
ATOM     27  N   UNL     1      -0.829   5.295  24.938  0.00  0.00    -0.088 NA
ATOM     28  O   UNL     1      -1.977   4.779  25.616  0.00  0.00    -0.272 OA
ENDBRANCH  23  26
ENDBRANCH  18  20
BRANCH  14  11
ATOM      9  C   UNL     1      -2.017  -1.381  24.770  0.00  0.00    +0.251 A 
ATOM     10  N   UNL     1      -1.743  -0.721  24.359  0.00  0.00    -0.190 NA
ATOM     11  C   UNL     1      -1.040  -0.473  24.712  0.00  0.00    +0.203 A 
ATOM     12  N   UNL     1      -0.879  -0.980  25.343  0.00  0.00    -0.056 NA
ATOM     13  O   UNL     1      -1.483  -1.541  25.379  0.00  0.00    -0.336 OA
BRANCH   9   8
ATOM      4  N   UNL     1      -3.474  -1.513  24.628  0.00  0.00    -0.266 NA
ATOM      5  C   UNL     1      -3.986  -2.126  24.423  0.00  0.00    +0.073 C 
ATOM      6  C   UNL     1      -3.532  -2.799  24.272  0.00  0.00    +0.019 C 
ATOM      7  C   UNL     1      -2.739  -2.601  24.384  0.00  0.00    +0.027 C 
ATOM      8  C   UNL     1      -2.703  -1.806  24.604  0.00  0.00    +0.138 C 
BRANCH   4   3
ATOM      3  C   UNL     1      -3.694  -0.743  24.822  0.00  0.00    +0.072 C 
BRANCH   3   2
ATOM      1  C   UNL     1      -4.696   0.271  24.920  0.00  0.00    +0.001 C 
ATOM      2  C   UNL     1      -4.477  -0.501  24.730  0.00  0.00    +0.017 C 
ENDBRANCH   3   2
ENDBRANCH   4   3
ENDBRANCH   9   8
ENDBRANCH  14  11
TORSDOF 6
ENDMDL
MODEL 6
REMARK VINA RESULT:      -9.7      2.008      5.002
REMARK  Name = 
REMARK  6 active torsions:
REMARK  status: ('A' for Active; 'I' for Inactive)
REMARK    1  A    between atoms: C_2  and  C_3
REMARK    2  A    between atoms: C_3  and  N_4
REMARK    3  A    between atoms: C_8  and  C_9
REMARK    4  A    between atoms: C_11  and  C_14
REMARK    5  A    between atoms: C_18  and  N_20
REMARK    6  A    between atoms: C_23  and  C_26
REMARK                            x       y       z     vdW  Elec       q    Type
REMARK                         _______ _______ _______ _____ _____    ______ ____
ROOT
ATOM     14  C   UNL     1      -1.388   1.936  24.438  0.00  0.00    +0.043 A 
ATOM     15  C   UNL     1      -0.817   2.529  24.386  0.00  0.00    +0.024 A 
ATOM     16  C   UNL     1      -1.022   3.313  24.538  0.00  0.00    +0.100 A 
ATOM     17  N   UNL     1      -1.798   3.505  24.742  0.00  0.00    -0.229 NA
ATOM     18  C   UNL     1      -2.369   2.912  24.794  0.00  0.00    +0.132 A 
ATOM     19  C   UNL     1      -2.164   2.127  24.642  0.00  0.00    +0.037 A 
ENDROOT
BRANCH  18  20
ATOM     20  N   UNL     1      -3.145   3.103  24.998  0.00  0.00    -0.293 N 
ATOM     21  C   UNL     1      -3.763   2.921  24.483  0.00  0.00    +0.093 C 
ATOM     22  C   UNL     1      -4.539   3.112  24.687  0.00  0.00    +0.031 C 
ATOM     23  C   UNL     1      -4.697   3.486  25.406  0.00  0.00    +0.083 C 
ATOM     24  C   UNL     1      -4.079   3.668  25.920  0.00  0.00    +0.031 C 
ATOM     25  C   UNL     1      -3.302   3.477  25.716  0.00  0.00    +0.093 C 
BRANCH  23  26
ATOM     26  C   UNL     1      -5.474   3.677  25.610  0.00  0.00    +0.260 C 
ATOM     27  N   UNL     1      -5.949   3.120  25.990  0.00  0.00    -0.088 NA
ATOM     28  O   UNL     1      -5.774   4.425  25.433  0.00  0.00    -0.272 OA
ENDBRANCH  23  26
ENDBRANCH  18  20
BRANCH  14  11
ATOM      9  C   UNL     1      -1.008  -0.165  24.420  0.00  0.00    +0.251 A 
ATOM     10  N   UNL     1      -1.294   0.512  24.794  0.00  0.00    -0.190 NA
ATOM     11  C   UNL     1      -1.182   1.151  24.286  0.00  0.00    +0.203 A 
ATOM     12  N   UNL     1      -0.826   0.869  23.596  0.00  0.00    -0.056 NA
ATOM     13  O   UNL     1      -0.719   0.055  23.679  0.00  0.00    -0.336 OA
BRANCH   9   8
ATOM      4  N   UNL     1      -1.647  -1.455  24.723  0.00  0.00    -0.266 NA
ATOM      5  C   UNL     1      -1.406  -2.152  25.092  0.00  0.00    +0.073 C 
ATOM      6  C   UNL     1      -0.621  -2.058  25.328  0.00  0.00    +0.019 C 
ATOM      7  C   UNL     1      -0.377  -1.302  25.105  0.00  0.00    +0.027 C 
ATOM      8  C   UNL     1      -1.011  -0.929  24.731  0.00  0.00    +0.138 C 
BRANCH   4   3
ATOM      3  C   UNL     1      -2.392  -1.308  24.403  0.00  0.00    +0.072 C 
BRANCH   3   2
ATOM      1  C   UNL     1      -3.739  -1.722  24.161  0.00  0.00    +0.001 C 
ATOM      2  C   UNL     1      -2.990  -1.872  24.472  0.00  0.00    +0.017 C 
ENDBRANCH   3   2
ENDBRANCH   4   3
ENDBRANCH   9   8
ENDBRANCH  14  11
TORSDOF 6
ENDMDL
MODEL 7
REMARK VINA RESULT:      -9.2      1.900      4.060
REMARK  Name = 
REMARK  6 active torsions:
REMARK  status: ('A' for Active; 'I' for Inactive)
REMARK    1  A    between atoms: C_2  and  C_3
REMARK    2  A    between atoms: C_3  and  N_4
REMARK    3  A    between atoms: C_8  and  C_9
REMARK    4  A    between atoms: C_11  and  C_14
REMARK    5  A    between atoms: C_18  and  N_20
REMARK    6  A    between atoms: C_23  and  C_26
REMARK                            x       y       z     vdW  Elec       q    Type
REMARK                         _______ _______ _______ _____ _____    ______ ____
ROOT
ATOM     14  C   UNL     1      -3.018  -0.329  24.569  0.00  0.00    +0.043 A 
ATOM     15  C   UNL     1      -3.486  -0.972  24.352  0.00  0.00    +0.024 A 
ATOM     16  C   UNL     1      -4.307  -0.896  24.328  0.00  0.00    +0.100 A 
ATOM     17  N   UNL     1      -4.660  -0.176  24.523  0.00  0.00    -0.229 NA
ATOM     18  C   UNL     1      -4.192   0.467  24.740  0.00  0.00    +0.132 A 
ATOM     19  C   UNL     1      -3.370   0.391  24.763  0.00  0.00    +0.037 A 
ENDROOT
BRANCH  18  20
ATOM     20  N   UNL     1      -4.545   1.187  24.935  0.00  0.00    -0.293 N 
ATOM     21  C   UNL     1      -5.158   1.210  25.485  0.00  0.00    +0.093 C 
ATOM     22  C   UNL     1      -5.511   1.930  25.679  0.00  0.00    +0.031 C 
ATOM     23  C   UNL     1      -5.250   2.627  25.323  0.00  0.00    +0.083 C 
ATOM     24  C   UNL     1      -4.636   2.604  24.773  0.00  0.00    +0.031 C 
ATOM     25  C   UNL     1      -4.283   1.884  24.578  0.00  0.00    +0.093 C 
BRANCH  23  26
ATOM     26  C   UNL     1      -5.603   3.347  25.518  0.00  0.00    +0.260 C 
ATOM     27  N   UNL     1      -5.200   4.054  25.381  0.00  0.00    -0.088 NA
ATOM     28  O   UNL     1      -6.359   3.360  25.848  0.00  0.00    -0.272 OA
ENDBRANCH  23  26
ENDBRANCH  18  20
BRANCH  14  11
ATOM      9  C   UNL     1      -0.900  -0.278  24.301  0.00  0.00    +0.251 A 
ATOM     10  N   UNL     1      -1.661  -0.051  24.077  0.00  0.00    -0.190 NA
ATOM     11  C   UNL     1      -2.197  -0.407  24.592  0.00  0.00    +0.203 A 
ATOM     12  N   UNL     1      -1.767  -0.855  25.136  0.00  0.00    -0.056 NA
ATOM     13  O   UNL     1      -0.966  -0.776  24.956  0.00  0.00    -0.336 OA
BRANCH   9   8
ATOM      4  N   UNL     1       0.183   0.677  24.026  0.00  0.00    -0.266 NA
ATOM      5  C   UNL     1       0.865   0.668  23.562  0.00  0.00    +0.073 C 
ATOM      6  C   UNL     1       0.906  -0.065  23.184  0.00  0.00    +0.019 C 
ATOM      7  C   UNL     1       0.250  -0.508  23.415  0.00  0.00    +0.027 C 
ATOM      8  C   UNL     1      -0.197  -0.050  23.936  0.00  0.00    +0.138 C 
BRANCH   4   3
ATOM      3  C   UNL     1      -0.073   1.303  24.498  0.00  0.00    +0.072 C 
BRANCH   3   2
ATOM      1  C   UNL     1       0.106   2.629  25.000  0.00  0.00    +0.001 C 
ATOM      2  C   UNL     1       0.357   2.006  24.520  0.00  0.00    +0.017 C 
ENDBRANCH   3   2
ENDBRANCH   4   3
ENDBRANCH   9   8
ENDBRANCH  14  11
TORSDOF 6
ENDMDL
