REMARK  Name = 
REMARK  4 active torsions:
REMARK  status: ('A' for Active; 'I' for Inactive)
REMARK    1  A    between atoms: C_13  and  N_14
REMARK    2  A    between atoms: N_14  and  S_15
REMARK    3  A    between atoms: S_15  and  C_18
REMARK    4  A    between atoms: C_20  and  C_24
REMARK                            x       y       z     vdW  Elec       q    Type
REMARK                         _______ _______ _______ _____ _____    ______ ____
ROOT
ATOM      1  C   UNL     1      -0.614  -2.179   0.000  0.00  0.00    +0.095 C 
ATOM      2  C   UNL     1       0.125  -2.547   0.000  0.00  0.00    +0.226 C 
ATOM      3  O   UNL     1       0.176  -3.370   0.000  0.00  0.00    -0.275 OA
ATOM      4  N   UNL     1       0.813  -2.091   0.000  0.00  0.00    -0.279 N 
ATOM      5  C   UNL     1       1.629  -1.912   0.000  0.00  0.00    +0.095 C 
ATOM      6  C   UNL     1       1.582  -0.925   0.000  0.00  0.00    +0.043 C 
ATOM      7  C   UNL     1       1.713  -0.121   0.000  0.00  0.00    +0.011 C 
ATOM      8  C   UNL     1       1.163  -0.557   0.000  0.00  0.00    +0.058 C 
ATOM      9  C   UNL     1       1.225  -1.510   0.000  0.00  0.00    +0.099 C 
ATOM     10  C   UNL     1       0.244  -0.558   0.000  0.00  0.00    +0.041 A 
ATOM     11  C   UNL     1      -0.397  -0.039   0.000  0.00  0.00    +0.014 A 
ATOM     12  C   UNL     1      -1.167  -0.335   0.000  0.00  0.00    +0.024 A 
ATOM     13  C   UNL     1      -1.296  -1.150   0.000  0.00  0.00    +0.147 A 
ATOM     28  C   UNL     1      -0.655  -1.669   0.000  0.00  0.00    +0.277 A 
ATOM     29  O   UNL     1      -1.029  -2.404   0.000  0.00  0.00    -0.266 OA
ATOM     30  N   UNL     1       0.115  -1.373   0.000  0.00  0.00    -0.298 N 
ATOM     31  C   UNL     1       0.622  -0.936   0.000  0.00  0.00    +0.110 C 
ENDROOT
BRANCH  13  14
ATOM     14  N   UNL     1      -2.066  -1.445   0.000  0.00  0.00    -0.092 NA
BRANCH  14  15
ATOM     15  S   UNL     1      -2.707  -0.926   0.000  0.00  0.00    +0.093 S 
ATOM     16  O   UNL     1      -2.188  -0.285   0.000  0.00  0.00    -0.148 OA
ATOM     17  O   UNL     1      -3.226  -1.567   0.000  0.00  0.00    -0.148 OA
BRANCH  15  18
ATOM     18  C   UNL     1      -3.349  -0.407   0.000  0.00  0.00    +0.127 A 
ATOM     19  C   UNL     1      -4.119  -0.703   0.000  0.00  0.00    +0.024 A 
ATOM     20  C   UNL     1      -4.760  -0.184   0.000  0.00  0.00    +0.073 A 
ATOM     21  C   UNL     1      -4.631   0.631   0.000  0.00  0.00    +0.004 A 
ATOM     22  C   UNL     1      -3.861   0.927   0.000  0.00  0.00    +0.001 A 
ATOM     23  C   UNL     1      -3.220   0.408   0.000  0.00  0.00    +0.020 A 
BRANCH  20  24
ATOM     24  C   UNL     1      -5.530  -0.480   0.000  0.00  0.00    +0.419 C 
ATOM     25  F   UNL     1      -6.300  -0.775   0.000  0.00  0.00    -0.166 F 
ATOM     26  F   UNL     1      -5.826   0.291   0.000  0.00  0.00    -0.166 F 
ATOM     27  F   UNL     1      -5.234  -1.250   0.000  0.00  0.00    -0.166 F 
ENDBRANCH  20  24
ENDBRANCH  15  18
ENDBRANCH  14  15
ENDBRANCH  13  14
TORSDOF 4
