REMARK  Name = 
REMARK  6 active torsions:
REMARK  status: ('A' for Active; 'I' for Inactive)
REMARK    1  A    between atoms: C_2  and  C_5
REMARK    2  A    between atoms: C_5  and  N_6
REMARK    3  A    between atoms: C_10  and  C_11
REMARK    4  A    between atoms: C_13  and  C_16
REMARK    5  A    between atoms: C_20  and  N_22
REMARK    6  A    between atoms: C_25  and  C_28
REMARK                            x       y       z     vdW  Elec       q    Type
REMARK                         _______ _______ _______ _____ _____    ______ ____
ROOT
ATOM     11  C   UNL     1       2.206  -4.803   0.000  0.00  0.00    +0.251 A 
ATOM     12  N   UNL     1       1.538  -5.287   0.000  0.00  0.00    -0.190 NA
ATOM     13  C   UNL     1       0.871  -4.803   0.000  0.00  0.00    +0.203 A 
ATOM     14  N   UNL     1       1.126  -4.018   0.000  0.00  0.00    -0.056 NA
ATOM     15  O   UNL     1       1.951  -4.018   0.000  0.00  0.00    -0.336 OA
ENDROOT
BRANCH  13  16
ATOM     16  C   UNL     1       0.086  -5.057   0.000  0.00  0.00    +0.043 A 
ATOM     17  C   UNL     1      -0.086  -5.864   0.000  0.00  0.00    +0.024 A 
ATOM     18  C   UNL     1      -0.870  -6.119   0.000  0.00  0.00    +0.100 A 
ATOM     19  N   UNL     1      -1.483  -5.567   0.000  0.00  0.00    -0.229 NA
ATOM     20  C   UNL     1      -1.312  -4.760   0.000  0.00  0.00    +0.132 A 
ATOM     21  C   UNL     1      -0.527  -4.505   0.000  0.00  0.00    +0.037 A 
BRANCH  20  22
ATOM     22  N   UNL     1      -1.925  -4.208   0.000  0.00  0.00    -0.293 N 
ATOM     23  C   UNL     1      -2.709  -4.463   0.000  0.00  0.00    +0.093 C 
ATOM     24  C   UNL     1      -3.322  -3.911   0.000  0.00  0.00    +0.031 C 
ATOM     25  C   UNL     1      -3.151  -3.104   0.000  0.00  0.00    +0.083 C 
ATOM     26  C   UNL     1      -2.366  -2.849   0.000  0.00  0.00    +0.031 C 
ATOM     27  C   UNL     1      -1.753  -3.401   0.000  0.00  0.00    +0.093 C 
BRANCH  25  28
ATOM     28  C   UNL     1      -3.764  -2.552   0.000  0.00  0.00    +0.260 C 
ATOM     29  N   UNL     1      -4.549  -2.807   0.000  0.00  0.00    -0.088 NA
ATOM     30  O   UNL     1      -3.592  -1.745   0.000  0.00  0.00    -0.272 OA
ENDBRANCH  25  28
ENDBRANCH  20  22
ENDBRANCH  13  16
BRANCH  11  10
ATOM      6  N   UNL     1       3.658  -4.572   0.000  0.00  0.00    -0.266 NA
ATOM      7  C   UNL     1       4.325  -5.057   0.000  0.00  0.00    +0.073 C 
ATOM      8  C   UNL     1       4.070  -5.842   0.000  0.00  0.00    +0.019 C 
ATOM      9  C   UNL     1       3.245  -5.842   0.000  0.00  0.00    +0.027 C 
ATOM     10  C   UNL     1       2.990  -5.057   0.000  0.00  0.00    +0.138 C 
BRANCH   6   5
ATOM      5  C   UNL     1       3.658  -3.748   0.000  0.00  0.00    +0.072 C 
BRANCH   5   2
ATOM      1  C   UNL     1       5.087  -2.922   0.000  0.00  0.00    +0.001 C 
ATOM      2  C   UNL     1       4.372  -3.335   0.000  0.00  0.00    +0.015 C 
ATOM      3  C   UNL     1       3.960  -2.620   0.000  0.00  0.00    +0.001 C 
ATOM      4  C   UNL     1       4.785  -4.050   0.000  0.00  0.00    +0.001 C 
ENDBRANCH   5   2
ENDBRANCH   6   5
ENDBRANCH  11  10
TORSDOF 6
