MODEL 1
REMARK VINA RESULT:      -9.3      0.000      0.000
REMARK  Name = 
REMARK  9 active torsions:
REMARK  status: ('A' for Active; 'I' for Inactive)
REMARK    1  A    between atoms: O_2  and  C_3
REMARK    2  A    between atoms: C_3  and  C_4
REMARK    3  A    between atoms: N_6  and  C_7
REMARK    4  A    between atoms: C_7  and  C_8
REMARK    5  A    between atoms: C_10  and  C_11
REMARK    6  A    between atoms: C_15  and  N_16
REMARK    7  A    between atoms: N_16  and  C_18
REMARK    8  A    between atoms: C_18  and  C_19
REMARK    9  A    between atoms: C_19  and  C_20
REMARK                            x       y       z     vdW  Elec       q    Type
REMARK                         _______ _______ _______ _____ _____    ______ ____
ROOT
ATOM      8  C   UNL     1      -3.778   2.417  25.066  0.00  0.00    +0.154 C 
ATOM      9  O   UNL     1      -4.289   2.910  25.484  0.00  0.00    -0.350 OA
ATOM     10  C   UNL     1      -5.059   2.633  25.375  0.00  0.00    +0.180 C 
ATOM     13  C   UNL     1      -5.022   1.967  24.889  0.00  0.00    +0.198 C 
ATOM     14  O   UNL     1      -5.666   1.514  24.639  0.00  0.00    -0.219 OA
ATOM     15  C   UNL     1      -4.231   1.833  24.698  0.00  0.00    +0.120 C 
ENDROOT
BRANCH  10  11
ATOM     11  C   UNL     1      -5.743   2.964  25.696  0.00  0.00    +0.214 C 
ATOM     12  O   UNL     1      -5.779   3.776  25.841  0.00  0.00    -0.218 OA
ENDBRANCH  10  11
BRANCH  15  16
ATOM     16  N   UNL     1      -3.944   1.222  24.223  0.00  0.00    -0.268 NA
ATOM     17  C   UNL     1      -3.706   1.379  23.449  0.00  0.00    +0.090 C 
BRANCH  16  18
ATOM     18  C   UNL     1      -3.896   0.455  24.523  0.00  0.00    +0.077 C 
BRANCH  18  19
ATOM     19  C   UNL     1      -3.590  -0.152  24.055  0.00  0.00    +0.044 C 
BRANCH  19  20
ATOM     20  C   UNL     1      -3.602  -0.931  24.328  0.00  0.00    -0.021 A 
ATOM     21  C   UNL     1      -4.010  -1.509  23.903  0.00  0.00    -0.004 A 
ATOM     22  C   UNL     1      -4.023  -2.287  24.176  0.00  0.00    -0.000 A 
ATOM     23  C   UNL     1      -3.628  -2.487  24.873  0.00  0.00    -0.000 A 
ATOM     24  C   UNL     1      -3.220  -1.908  25.296  0.00  0.00    -0.000 A 
ATOM     25  C   UNL     1      -3.207  -1.129  25.024  0.00  0.00    -0.004 A 
ENDBRANCH  19  20
ENDBRANCH  18  19
ENDBRANCH  16  18
ENDBRANCH  15  16
BRANCH   8   7
ATOM      7  C   UNL     1      -2.958   2.492  25.023  0.00  0.00    +0.146 C 
BRANCH   7   6
ATOM      4  C   UNL     1      -1.782   3.266  25.266  0.00  0.00    +0.272 C 
ATOM      5  O   UNL     1      -1.318   2.587  25.182  0.00  0.00    -0.271 OA
ATOM      6  N   UNL     1      -2.601   3.218  25.186  0.00  0.00    -0.201 NA
BRANCH   4   3
ATOM      3  C   UNL     1      -1.425   3.991  25.429  0.00  0.00    +0.229 C 
BRANCH   3   2
ATOM      1  C   UNL     1      -0.745   5.130  24.898  0.00  0.00    +0.175 C 
ATOM      2  O   UNL     1      -0.890   4.318  24.893  0.00  0.00    -0.342 OA
ENDBRANCH   3   2
ENDBRANCH   4   3
ENDBRANCH   7   6
ENDBRANCH   8   7
TORSDOF 9
ENDMDL
MODEL 2
REMARK VINA RESULT:      -9.2      2.317      3.709
REMARK  Name = 
REMARK  9 active torsions:
REMARK  status: ('A' for Active; 'I' for Inactive)
REMARK    1  A    between atoms: O_2  and  C_3
REMARK    2  A    between atoms: C_3  and  C_4
REMARK    3  A    between atoms: N_6  and  C_7
REMARK    4  A    between atoms: C_7  and  C_8
REMARK    5  A    between atoms: C_10  and  C_11
REMARK    6  A    between atoms: C_15  and  N_16
REMARK    7  A    between atoms: N_16  and  C_18
REMARK    8  A    between atoms: C_18  and  C_19
REMARK    9  A    between atoms: C_19  and  C_20
REMARK                            x       y       z     vdW  Elec       q    Type
REMARK                         _______ _______ _______ _____ _____    ______ ____
ROOT
ATOM      8  C   UNL     1      -0.616   0.815  24.412  0.00  0.00    +0.154 C 
ATOM      9  O   UNL     1       0.014   0.950  23.897  0.00  0.00    -0.350 OA
ATOM     10  C   UNL     1       0.312   0.218  23.659  0.00  0.00    +0.180 C 
ATOM     13  C   UNL     1      -0.135  -0.370  24.028  0.00  0.00    +0.198 C 
ATOM     14  O   UNL     1      -0.026  -1.184  23.946  0.00  0.00    -0.219 OA
ATOM     15  C   UNL     1      -0.708  -0.002  24.493  0.00  0.00    +0.120 C 
ENDROOT
BRANCH  10  11
ATOM     11  C   UNL     1       0.944   0.097  23.144  0.00  0.00    +0.214 C 
ATOM     12  O   UNL     1       1.576   0.628  23.134  0.00  0.00    -0.218 OA
ENDBRANCH  10  11
BRANCH  15  16
ATOM     16  N   UNL     1      -1.273  -0.383  24.957  0.00  0.00    -0.268 NA
ATOM     17  C   UNL     1      -1.151  -0.470  25.768  0.00  0.00    +0.090 C 
BRANCH  16  18
ATOM     18  C   UNL     1      -1.962  -0.677  24.610  0.00  0.00    +0.077 C 
BRANCH  18  19
ATOM     19  C   UNL     1      -2.516  -1.080  25.069  0.00  0.00    +0.044 C 
BRANCH  19  20
ATOM     20  C   UNL     1      -3.128  -1.498  24.707  0.00  0.00    -0.021 A 
ATOM     21  C   UNL     1      -3.734  -1.090  24.321  0.00  0.00    -0.004 A 
ATOM     22  C   UNL     1      -4.345  -1.508  23.959  0.00  0.00    -0.000 A 
ATOM     23  C   UNL     1      -4.352  -2.332  23.981  0.00  0.00    -0.000 A 
ATOM     24  C   UNL     1      -3.747  -2.739  24.367  0.00  0.00    -0.000 A 
ATOM     25  C   UNL     1      -3.134  -2.322  24.730  0.00  0.00    -0.004 A 
ENDBRANCH  19  20
ENDBRANCH  18  19
ENDBRANCH  16  18
ENDBRANCH  15  16
BRANCH   8   7
ATOM      7  C   UNL     1      -1.074   1.393  24.781  0.00  0.00    +0.146 C 
BRANCH   7   6
ATOM      4  C   UNL     1      -1.335   2.771  25.052  0.00  0.00    +0.272 C 
ATOM      5  O   UNL     1      -2.074   2.571  25.361  0.00  0.00    -0.271 OA
ATOM      6  N   UNL     1      -0.835   2.183  24.762  0.00  0.00    -0.201 NA
BRANCH   4   3
ATOM      3  C   UNL     1      -1.096   3.560  25.033  0.00  0.00    +0.229 C 
BRANCH   3   2
ATOM      1  C   UNL     1      -1.412   4.950  25.144  0.00  0.00    +0.175 C 
ATOM      2  O   UNL     1      -1.633   4.159  25.218  0.00  0.00    -0.342 OA
ENDBRANCH   3   2
ENDBRANCH   4   3
ENDBRANCH   7   6
ENDBRANCH   8   7
TORSDOF 9
ENDMDL
MODEL 3
REMARK VINA RESULT:      -8.7      2.739      3.571
REMARK  Name = 
REMARK  9 active torsions:
REMARK  status: ('A' for Active; 'I' for Inactive)
REMARK    1  A    between atoms: O_2  and  C_3
REMARK    2  A    between atoms: C_3  and  C_4
REMARK    3  A    between atoms: N_6  and  C_7
REMARK    4  A    between atoms: C_7  and  C_8
REMARK    5  A    between atoms: C_10  and  C_11
REMARK    6  A    between atoms: C_15  and  N_16
REMARK    7  A    between atoms: N_16  and  C_18
REMARK    8  A    between atoms: C_18  and  C_19
REMARK    9  A    between atoms: C_19  and  C_20
REMARK                            x       y       z     vdW  Elec       q    Type
REMARK                         _______ _______ _______ _____ _____    ______ ____
ROOT
ATOM      8  C   UNL     1      -0.918   1.016  24.302  0.00  0.00    +0.154 C 
ATOM      9  O   UNL     1      -0.859   1.814  24.102  0.00  0.00    -0.350 OA
ATOM     10  C   UNL     1      -1.458   2.222  24.497  0.00  0.00    +0.180 C 
ATOM     13  C   UNL     1      -1.888   1.675  24.941  0.00  0.00    +0.198 C 
ATOM     14  O   UNL     1      -2.538   1.844  25.421  0.00  0.00    -0.219 OA
ATOM     15  C   UNL     1      -1.554   0.930  24.820  0.00  0.00    +0.120 C 
ENDROOT
BRANCH  10  11
ATOM     11  C   UNL     1      -1.601   3.033  24.455  0.00  0.00    +0.214 C 
ATOM     12  O   UNL     1      -0.968   3.561  24.400  0.00  0.00    -0.218 OA
ENDBRANCH  10  11
BRANCH  15  16
ATOM     16  N   UNL     1      -1.813   0.223  25.159  0.00  0.00    -0.268 NA
ATOM     17  C   UNL     1      -1.488  -0.036  25.871  0.00  0.00    +0.090 C 
BRANCH  16  18
ATOM     18  C   UNL     1      -2.396  -0.224  24.784  0.00  0.00    +0.077 C 
BRANCH  18  19
ATOM     19  C   UNL     1      -2.737  -0.866  25.174  0.00  0.00    +0.044 C 
BRANCH  19  20
ATOM     20  C   UNL     1      -3.218  -1.394  24.760  0.00  0.00    -0.021 A 
ATOM     21  C   UNL     1      -3.042  -2.200  24.760  0.00  0.00    -0.004 A 
ATOM     22  C   UNL     1      -3.523  -2.727  24.346  0.00  0.00    -0.000 A 
ATOM     23  C   UNL     1      -4.179  -2.448  23.932  0.00  0.00    -0.000 A 
ATOM     24  C   UNL     1      -4.355  -1.642  23.932  0.00  0.00    -0.000 A 
ATOM     25  C   UNL     1      -3.875  -1.114  24.346  0.00  0.00    -0.004 A 
ENDBRANCH  19  20
ENDBRANCH  18  19
ENDBRANCH  16  18
ENDBRANCH  15  16
BRANCH   8   7
ATOM      7  C   UNL     1      -0.428   0.411  24.031  0.00  0.00    +0.146 C 
BRANCH   7   6
ATOM      4  C   UNL     1       0.675  -0.026  23.234  0.00  0.00    +0.272 C 
ATOM      5  O   UNL     1       0.565  -0.798  23.506  0.00  0.00    -0.271 OA
ATOM      6  N   UNL     1       0.178   0.578  23.497  0.00  0.00    -0.201 NA
BRANCH   4   3
ATOM      3  C   UNL     1       1.280   0.141  22.700  0.00  0.00    +0.229 C 
BRANCH   3   2
ATOM      1  C   UNL     1       2.676   0.114  22.395  0.00  0.00    +0.175 C 
ATOM      2  O   UNL     1       2.030  -0.186  22.810  0.00  0.00    -0.342 OA
ENDBRANCH   3   2
ENDBRANCH   4   3
ENDBRANCH   7   6
ENDBRANCH   8   7
TORSDOF 9
ENDMDL
MODEL 4
REMARK VINA RESULT:      -8.7      1.413      4.351
REMARK  Name = 
REMARK  9 active torsions:
REMARK  status: ('A' for Active; 'I' for Inactive)
REMARK    1  A    between atoms: O_2  and  C_3
REMARK    2  A    between atoms: C_3  and  C_4
REMARK    3  A    between atoms: N_6  and  C_7
REMARK    4  A    between atoms: C_7  and  C_8
REMARK    5  A    between atoms: C_10  and  C_11
REMARK    6  A    between atoms: C_15  and  N_16
REMARK    7  A    between atoms: N_16  and  C_18
REMARK    8  A    between atoms: C_18  and  C_19
REMARK    9  A    between atoms: C_19  and  C_20
REMARK                            x       y       z     vdW  Elec       q    Type
REMARK                         _______ _______ _______ _____ _____    ______ ____
ROOT
ATOM      8  C   UNL     1      -4.633   1.487  24.966  0.00  0.00    +0.154 C 
ATOM      9  O   UNL     1      -5.278   1.346  25.460  0.00  0.00    -0.350 OA
ATOM     10  C   UNL     1      -5.609   2.074  25.663  0.00  0.00    +0.180 C 
ATOM     13  C   UNL     1      -5.167   2.666  25.295  0.00  0.00    +0.198 C 
ATOM     14  O   UNL     1      -5.305   3.478  25.348  0.00  0.00    -0.219 OA
ATOM     15  C   UNL     1      -4.564   2.303  24.864  0.00  0.00    +0.120 C 
ENDROOT
BRANCH  10  11
ATOM     11  C   UNL     1      -6.265   2.189  26.150  0.00  0.00    +0.214 C 
ATOM     12  O   UNL     1      -6.496   1.598  26.678  0.00  0.00    -0.218 OA
ENDBRANCH  10  11
BRANCH  15  16
ATOM     16  N   UNL     1      -3.993   2.690  24.410  0.00  0.00    -0.268 NA
ATOM     17  C   UNL     1      -4.112   2.798  23.602  0.00  0.00    +0.090 C 
BRANCH  16  18
ATOM     18  C   UNL     1      -3.303   2.968  24.767  0.00  0.00    +0.077 C 
BRANCH  18  19
ATOM     19  C   UNL     1      -2.720   3.331  24.310  0.00  0.00    +0.044 C 
BRANCH  19  20
ATOM     20  C   UNL     1      -2.048   3.645  24.670  0.00  0.00    -0.021 A 
ATOM     21  C   UNL     1      -2.041   4.434  24.913  0.00  0.00    -0.004 A 
ATOM     22  C   UNL     1      -1.369   4.748  25.273  0.00  0.00    -0.000 A 
ATOM     23  C   UNL     1      -0.704   4.274  25.391  0.00  0.00    -0.000 A 
ATOM     24  C   UNL     1      -0.712   3.486  25.149  0.00  0.00    -0.000 A 
ATOM     25  C   UNL     1      -1.383   3.171  24.788  0.00  0.00    -0.004 A 
ENDBRANCH  19  20
ENDBRANCH  18  19
ENDBRANCH  16  18
ENDBRANCH  15  16
BRANCH   8   7
ATOM      7  C   UNL     1      -4.143   0.914  24.633  0.00  0.00    +0.146 C 
BRANCH   7   6
ATOM      4  C   UNL     1      -3.825  -0.463  24.421  0.00  0.00    +0.272 C 
ATOM      5  O   UNL     1      -3.075  -0.248  24.151  0.00  0.00    -0.271 OA
ATOM      6  N   UNL     1      -4.358   0.118  24.662  0.00  0.00    -0.201 NA
BRANCH   4   3
ATOM      3  C   UNL     1      -4.041  -1.258  24.450  0.00  0.00    +0.229 C 
BRANCH   3   2
ATOM      1  C   UNL     1      -3.679  -2.639  24.391  0.00  0.00    +0.175 C 
ATOM      2  O   UNL     1      -3.480  -1.844  24.300  0.00  0.00    -0.342 OA
ENDBRANCH   3   2
ENDBRANCH   4   3
ENDBRANCH   7   6
ENDBRANCH   8   7
TORSDOF 9
ENDMDL
MODEL 5
REMARK VINA RESULT:      -8.7      2.352      5.639
REMARK  Name = 
REMARK  9 active torsions:
REMARK  status: ('A' for Active; 'I' for Inactive)
REMARK    1  A    between atoms: O_2  and  C_3
REMARK    2  A    between atoms: C_3  and  C_4
REMARK    3  A    between atoms: N_6  and  C_7
REMARK    4  A    between atoms: C_7  and  C_8
REMARK    5  A    between atoms: C_10  and  C_11
REMARK    6  A    between atoms: C_15  and  N_16
REMARK    7  A    between atoms: N_16  and  C_18
REMARK    8  A    between atoms: C_18  and  C_19
REMARK    9  A    between atoms: C_19  and  C_20
REMARK                            x       y       z     vdW  Elec       q    Type
REMARK                         _______ _______ _______ _____ _____    ______ ____
ROOT
ATOM      8  C   UNL     1      -0.905   0.656  24.411  0.00  0.00    +0.154 C 
ATOM      9  O   UNL     1      -0.539   0.244  23.797  0.00  0.00    -0.350 OA
ATOM     10  C   UNL     1       0.200   0.588  23.665  0.00  0.00    +0.180 C 
ATOM     13  C   UNL     1       0.289   1.211  24.197  0.00  0.00    +0.198 C 
ATOM     14  O   UNL     1       0.947   1.706  24.257  0.00  0.00    -0.219 OA
ATOM     15  C   UNL     1      -0.393   1.254  24.658  0.00  0.00    +0.120 C 
ENDROOT
BRANCH  10  11
ATOM     11  C   UNL     1       0.751   0.348  23.099  0.00  0.00    +0.214 C 
ATOM     12  O   UNL     1       0.817  -0.450  22.900  0.00  0.00    -0.218 OA
ENDBRANCH  10  11
BRANCH  15  16
ATOM     16  N   UNL     1      -0.538   1.798  25.261  0.00  0.00    -0.268 NA
ATOM     17  C   UNL     1      -0.347   1.611  26.041  0.00  0.00    +0.090 C 
BRANCH  16  18
ATOM     18  C   UNL     1      -0.873   2.531  25.082  0.00  0.00    +0.077 C 
BRANCH  18  19
ATOM     19  C   UNL     1      -0.947   3.105  25.670  0.00  0.00    +0.044 C 
BRANCH  19  20
ATOM     20  C   UNL     1      -1.293   3.834  25.496  0.00  0.00    -0.021 A 
ATOM     21  C   UNL     1      -0.845   4.427  25.137  0.00  0.00    -0.004 A 
ATOM     22  C   UNL     1      -1.191   5.155  24.962  0.00  0.00    -0.000 A 
ATOM     23  C   UNL     1      -1.984   5.290  25.147  0.00  0.00    -0.000 A 
ATOM     24  C   UNL     1      -2.431   4.697  25.506  0.00  0.00    -0.000 A 
ATOM     25  C   UNL     1      -2.086   3.968  25.680  0.00  0.00    -0.004 A 
ENDBRANCH  19  20
ENDBRANCH  18  19
ENDBRANCH  16  18
ENDBRANCH  15  16
BRANCH   8   7
ATOM      7  C   UNL     1      -1.652   0.497  24.723  0.00  0.00    +0.146 C 
BRANCH   7   6
ATOM      4  C   UNL     1      -2.824  -0.320  24.730  0.00  0.00    +0.272 C 
ATOM      5  O   UNL     1      -3.255   0.302  25.062  0.00  0.00    -0.271 OA
ATOM      6  N   UNL     1      -2.023  -0.222  24.561  0.00  0.00    -0.201 NA
BRANCH   4   3
ATOM      3  C   UNL     1      -3.195  -1.038  24.569  0.00  0.00    +0.229 C 
BRANCH   3   2
ATOM      1  C   UNL     1      -4.256  -1.751  23.931  0.00  0.00    +0.175 C 
ATOM      2  O   UNL     1      -3.947  -1.048  24.229  0.00  0.00    -0.342 OA
ENDBRANCH   3   2
ENDBRANCH   4   3
ENDBRANCH   7   6
ENDBRANCH   8   7
TORSDOF 9
ENDMDL
MODEL 6
REMARK VINA RESULT:      -8.5      1.981      4.394
REMARK  Name = 
REMARK  9 active torsions:
REMARK  status: ('A' for Active; 'I' for Inactive)
REMARK    1  A    between atoms: O_2  and  C_3
REMARK    2  A    between atoms: C_3  and  C_4
REMARK    3  A    between atoms: N_6  and  C_7
REMARK    4  A    between atoms: C_7  and  C_8
REMARK    5  A    between atoms: C_10  and  C_11
REMARK    6  A    between atoms: C_15  and  N_16
REMARK    7  A    between atoms: N_16  and  C_18
REMARK    8  A    between atoms: C_18  and  C_19
REMARK    9  A    between atoms: C_19  and  C_20
REMARK                            x       y       z     vdW  Elec       q    Type
REMARK                         _______ _______ _______ _____ _____    ______ ____
ROOT
ATOM      8  C   UNL     1      -1.497   1.599  25.091  0.00  0.00    +0.154 C 
ATOM      9  O   UNL     1      -0.817   1.659  25.554  0.00  0.00    -0.350 OA
ATOM     10  C   UNL     1      -0.708   2.454  25.746  0.00  0.00    +0.180 C 
ATOM     13  C   UNL     1      -1.321   2.885  25.401  0.00  0.00    +0.198 C 
ATOM     14  O   UNL     1      -1.428   3.702  25.452  0.00  0.00    -0.219 OA
ATOM     15  C   UNL     1      -1.809   2.357  24.996  0.00  0.00    +0.120 C 
ENDROOT
BRANCH  10  11
ATOM     11  C   UNL     1      -0.094   2.763  26.202  0.00  0.00    +0.214 C 
ATOM     12  O   UNL     1       0.638   2.381  26.220  0.00  0.00    -0.218 OA
ENDBRANCH  10  11
BRANCH  15  16
ATOM     16  N   UNL     1      -2.488   2.553  24.571  0.00  0.00    -0.268 NA
ATOM     17  C   UNL     1      -2.432   2.762  23.776  0.00  0.00    +0.090 C 
BRANCH  16  18
ATOM     18  C   UNL     1      -3.225   2.539  24.944  0.00  0.00    +0.077 C 
BRANCH  18  19
ATOM     19  C   UNL     1      -3.905   2.730  24.518  0.00  0.00    +0.044 C 
BRANCH  19  20
ATOM     20  C   UNL     1      -4.650   2.628  24.860  0.00  0.00    -0.021 A 
ATOM     21  C   UNL     1      -5.099   1.960  24.676  0.00  0.00    -0.004 A 
ATOM     22  C   UNL     1      -5.843   1.858  25.018  0.00  0.00    -0.000 A 
ATOM     23  C   UNL     1      -6.137   2.422  25.543  0.00  0.00    -0.000 A 
ATOM     24  C   UNL     1      -5.687   3.088  25.727  0.00  0.00    -0.000 A 
ATOM     25  C   UNL     1      -4.943   3.192  25.385  0.00  0.00    -0.004 A 
ENDBRANCH  19  20
ENDBRANCH  18  19
ENDBRANCH  16  18
ENDBRANCH  15  16
BRANCH   8   7
ATOM      7  C   UNL     1      -1.810   0.903  24.777  0.00  0.00    +0.146 C 
BRANCH   7   6
ATOM      4  C   UNL     1      -1.773  -0.520  24.653  0.00  0.00    +0.272 C 
ATOM      5  O   UNL     1      -2.515  -0.507  24.291  0.00  0.00    -0.271 OA
ATOM      6  N   UNL     1      -1.421   0.185  24.896  0.00  0.00    -0.201 NA
BRANCH   4   3
ATOM      3  C   UNL     1      -1.385  -1.237  24.772  0.00  0.00    +0.229 C 
BRANCH   3   2
ATOM      1  C   UNL     1      -1.342  -2.659  24.635  0.00  0.00    +0.175 C 
ATOM      2  O   UNL     1      -1.736  -1.943  24.526  0.00  0.00    -0.342 OA
ENDBRANCH   3   2
ENDBRANCH   4   3
ENDBRANCH   7   6
ENDBRANCH   8   7
TORSDOF 9
ENDMDL
MODEL 7
REMARK VINA RESULT:      -8.4      1.353      3.082
REMARK  Name = 
REMARK  9 active torsions:
REMARK  status: ('A' for Active; 'I' for Inactive)
REMARK    1  A    between atoms: O_2  and  C_3
REMARK    2  A    between atoms: C_3  and  C_4
REMARK    3  A    between atoms: N_6  and  C_7
REMARK    4  A    between atoms: C_7  and  C_8
REMARK    5  A    between atoms: C_10  and  C_11
REMARK    6  A    between atoms: C_15  and  N_16
REMARK    7  A    between atoms: N_16  and  C_18
REMARK    8  A    between atoms: C_18  and  C_19
REMARK    9  A    between atoms: C_19  and  C_20
REMARK                            x       y       z     vdW  Elec       q    Type
REMARK                         _______ _______ _______ _____ _____    ______ ____
ROOT
ATOM      8  C   UNL     1      -2.008   1.980  25.001  0.00  0.00    +0.154 C 
ATOM      9  O   UNL     1      -1.570   2.422  25.542  0.00  0.00    -0.350 OA
ATOM     10  C   UNL     1      -0.851   2.036  25.666  0.00  0.00    +0.180 C 
ATOM     13  C   UNL     1      -0.845   1.355  25.201  0.00  0.00    +0.198 C 
ATOM     14  O   UNL     1      -0.232   0.804  25.155  0.00  0.00    -0.219 OA
ATOM     15  C   UNL     1      -1.560   1.320  24.790  0.00  0.00    +0.120 C 
ENDROOT
BRANCH  10  11
ATOM     11  C   UNL     1      -0.246   2.288  26.166  0.00  0.00    +0.214 C 
ATOM     12  O   UNL     1      -0.018   3.082  26.171  0.00  0.00    -0.218 OA
ENDBRANCH  10  11
BRANCH  15  16
ATOM     16  N   UNL     1      -1.786   0.728  24.261  0.00  0.00    -0.268 NA
ATOM     17  C   UNL     1      -1.613   0.803  23.459  0.00  0.00    +0.090 C 
BRANCH  16  18
ATOM     18  C   UNL     1      -2.187   0.060  24.537  0.00  0.00    +0.077 C 
BRANCH  18  19
ATOM     19  C   UNL     1      -2.389  -0.544  24.013  0.00  0.00    +0.044 C 
BRANCH  19  20
ATOM     20  C   UNL     1      -2.807  -1.202  24.283  0.00  0.00    -0.021 A 
ATOM     21  C   UNL     1      -3.627  -1.236  24.190  0.00  0.00    -0.004 A 
ATOM     22  C   UNL     1      -4.044  -1.894  24.460  0.00  0.00    -0.000 A 
ATOM     23  C   UNL     1      -3.644  -2.517  24.823  0.00  0.00    -0.000 A 
ATOM     24  C   UNL     1      -2.825  -2.483  24.915  0.00  0.00    -0.000 A 
ATOM     25  C   UNL     1      -2.406  -1.825  24.646  0.00  0.00    -0.004 A 
ENDBRANCH  19  20
ENDBRANCH  18  19
ENDBRANCH  16  18
ENDBRANCH  15  16
BRANCH   8   7
ATOM      7  C   UNL     1      -2.761   2.165  24.720  0.00  0.00    +0.146 C 
BRANCH   7   6
ATOM      4  C   UNL     1      -3.951   2.951  24.799  0.00  0.00    +0.272 C 
ATOM      5  O   UNL     1      -4.233   2.594  24.109  0.00  0.00    -0.271 OA
ATOM      6  N   UNL     1      -3.216   2.737  25.103  0.00  0.00    -0.201 NA
BRANCH   4   3
ATOM      3  C   UNL     1      -4.406   3.523  25.182  0.00  0.00    +0.229 C 
BRANCH   3   2
ATOM      1  C   UNL     1      -5.673   3.984  25.653  0.00  0.00    +0.175 C 
ATOM      2  O   UNL     1      -5.220   3.417  25.262  0.00  0.00    -0.342 OA
ENDBRANCH   3   2
ENDBRANCH   4   3
ENDBRANCH   7   6
ENDBRANCH   8   7
TORSDOF 9
ENDMDL
