MODEL 1
REMARK VINA RESULT:      -9.6      0.000      0.000
REMARK  Name = 
REMARK  3 active torsions:
REMARK  status: ('A' for Active; 'I' for Inactive)
REMARK    1  A    between atoms: C_4  and  O_5
REMARK    2  A    between atoms: O_5  and  C_6
REMARK    3  A    between atoms: N_11  and  C_13
REMARK                            x       y       z     vdW  Elec       q    Type
REMARK                         _______ _______ _______ _____ _____    ______ ____
ROOT
ATOM      6  C   UNL     1      -3.799   2.343  24.452  0.00  0.00    +0.213 C 
ATOM      7  C   UNL     1      -4.427   2.848  24.626  0.00  0.00    +0.187 C 
ATOM      8  O   UNL     1      -5.179   2.656  24.906  0.00  0.00    -0.348 OA
ATOM      9  C   UNL     1      -5.490   1.911  25.080  0.00  0.00    +0.160 C 
ATOM     10  C   UNL     1      -5.123   1.175  25.017  0.00  0.00    +0.105 C 
ATOM     11  N   UNL     1      -4.357   1.001  24.765  0.00  0.00    -0.269 NA
ATOM     12  C   UNL     1      -3.767   1.521  24.513  0.00  0.00    +0.119 C 
ENDROOT
BRANCH  11  13
ATOM     13  C   UNL     1      -4.153   0.202  24.765  0.00  0.00    +0.058 C 
ATOM     14  C   UNL     1      -4.059  -0.377  24.184  0.00  0.00    +0.016 C 
ATOM     15  C   UNL     1      -3.865  -0.929  24.764  0.00  0.00    +0.003 C 
ATOM     16  C   UNL     1      -3.959  -0.352  25.346  0.00  0.00    +0.016 C 
ENDBRANCH  11  13
BRANCH   6   5
ATOM      5  O   UNL     1      -3.111   2.708  24.179  0.00  0.00    -0.460 OA
BRANCH   5   4
ATOM      1  C   UNL     1      -0.818   2.591  25.880  0.00  0.00    +0.052 C 
ATOM      2  C   UNL     1      -1.451   3.013  25.563  0.00  0.00    +0.062 A 
ATOM      3  N   UNL     1      -1.964   2.649  25.030  0.00  0.00    -0.216 NA
ATOM      4  C   UNL     1      -2.598   3.072  24.713  0.00  0.00    +0.225 A 
ATOM     17  C   UNL     1      -2.718   3.859  24.930  0.00  0.00    +0.058 A 
ATOM     18  C   UNL     1      -2.205   4.222  25.463  0.00  0.00    +0.006 A 
ATOM     19  C   UNL     1      -1.572   3.800  25.780  0.00  0.00    +0.015 A 
ENDBRANCH   5   4
ENDBRANCH   6   5
TORSDOF 3
ENDMDL
MODEL 2
REMARK VINA RESULT:      -9.5      1.030      3.375
REMARK  Name = 
REMARK  3 active torsions:
REMARK  status: ('A' for Active; 'I' for Inactive)
REMARK    1  A    between atoms: C_4  and  O_5
REMARK    2  A    between atoms: O_5  and  C_6
REMARK    3  A    between atoms: N_11  and  C_13
REMARK                            x       y       z     vdW  Elec       q    Type
REMARK                         _______ _______ _______ _____ _____    ______ ____
ROOT
ATOM      6  C   UNL     1      -4.100   1.948  24.598  0.00  0.00    +0.213 C 
ATOM      7  C   UNL     1      -4.908   1.918  24.762  0.00  0.00    +0.187 C 
ATOM      8  O   UNL     1      -5.367   2.456  25.186  0.00  0.00    -0.348 OA
ATOM      9  C   UNL     1      -5.131   3.158  25.551  0.00  0.00    +0.160 C 
ATOM     10  C   UNL     1      -4.379   3.494  25.581  0.00  0.00    +0.105 C 
ATOM     11  N   UNL     1      -3.676   3.212  25.255  0.00  0.00    -0.269 NA
ATOM     12  C   UNL     1      -3.551   2.523  24.817  0.00  0.00    +0.119 C 
ENDROOT
BRANCH  11  13
ATOM     13  C   UNL     1      -3.008   3.680  25.383  0.00  0.00    +0.058 C 
ATOM     14  C   UNL     1      -2.536   3.857  26.036  0.00  0.00    +0.016 C 
ATOM     15  C   UNL     1      -2.064   4.341  25.564  0.00  0.00    +0.003 C 
ATOM     16  C   UNL     1      -2.535   4.164  24.910  0.00  0.00    +0.016 C 
ENDBRANCH  11  13
BRANCH   6   5
ATOM      5  O   UNL     1      -3.801   1.318  24.155  0.00  0.00    -0.460 OA
BRANCH   5   4
ATOM      1  C   UNL     1      -1.966  -0.417  25.492  0.00  0.00    +0.052 C 
ATOM      2  C   UNL     1      -2.719  -0.270  25.190  0.00  0.00    +0.062 A 
ATOM      3  N   UNL     1      -2.883   0.450  24.824  0.00  0.00    -0.216 NA
ATOM      4  C   UNL     1      -3.637   0.598  24.522  0.00  0.00    +0.225 A 
ATOM     17  C   UNL     1      -4.226   0.024  24.587  0.00  0.00    +0.058 A 
ATOM     18  C   UNL     1      -4.062  -0.696  24.953  0.00  0.00    +0.006 A 
ATOM     19  C   UNL     1      -3.308  -0.844  25.255  0.00  0.00    +0.015 A 
ENDBRANCH   5   4
ENDBRANCH   6   5
TORSDOF 3
ENDMDL
MODEL 3
REMARK VINA RESULT:      -9.5      1.674      2.859
REMARK  Name = 
REMARK  3 active torsions:
REMARK  status: ('A' for Active; 'I' for Inactive)
REMARK    1  A    between atoms: C_4  and  O_5
REMARK    2  A    between atoms: O_5  and  C_6
REMARK    3  A    between atoms: N_11  and  C_13
REMARK                            x       y       z     vdW  Elec       q    Type
REMARK                         _______ _______ _______ _____ _____    ______ ____
ROOT
ATOM      6  C   UNL     1      -2.940   0.808  24.328  0.00  0.00    +0.213 C 
ATOM      7  C   UNL     1      -2.272   1.231  24.562  0.00  0.00    +0.187 C 
ATOM      8  O   UNL     1      -1.622   0.967  24.997  0.00  0.00    -0.348 OA
ATOM      9  C   UNL     1      -1.481   0.215  25.306  0.00  0.00    +0.160 C 
ATOM     10  C   UNL     1      -1.955  -0.458  25.256  0.00  0.00    +0.105 C 
ATOM     11  N   UNL     1      -2.686  -0.547  24.885  0.00  0.00    -0.269 NA
ATOM     12  C   UNL     1      -3.125   0.017  24.472  0.00  0.00    +0.119 C 
ENDROOT
BRANCH  11  13
ATOM     13  C   UNL     1      -3.024  -1.298  24.934  0.00  0.00    +0.058 C 
ATOM     14  C   UNL     1      -3.053  -1.958  24.439  0.00  0.00    +0.016 C 
ATOM     15  C   UNL     1      -3.502  -2.360  25.002  0.00  0.00    +0.003 C 
ATOM     16  C   UNL     1      -3.474  -1.701  25.497  0.00  0.00    +0.016 C 
ENDBRANCH  11  13
BRANCH   6   5
ATOM      5  O   UNL     1      -3.499   1.233  23.893  0.00  0.00    -0.460 OA
BRANCH   5   4
ATOM      1  C   UNL     1      -5.882   1.859  25.340  0.00  0.00    +0.052 C 
ATOM      2  C   UNL     1      -5.173   2.099  24.993  0.00  0.00    +0.062 A 
ATOM      3  N   UNL     1      -4.690   1.546  24.617  0.00  0.00    -0.216 NA
ATOM      4  C   UNL     1      -3.981   1.786  24.269  0.00  0.00    +0.225 A 
ATOM     17  C   UNL     1      -3.756   2.578  24.299  0.00  0.00    +0.058 A 
ATOM     18  C   UNL     1      -4.238   3.131  24.675  0.00  0.00    +0.006 A 
ATOM     19  C   UNL     1      -4.947   2.891  25.023  0.00  0.00    +0.015 A 
ENDBRANCH   5   4
ENDBRANCH   6   5
TORSDOF 3
ENDMDL
MODEL 4
REMARK VINA RESULT:      -9.4      1.099      4.094
REMARK  Name = 
REMARK  3 active torsions:
REMARK  status: ('A' for Active; 'I' for Inactive)
REMARK    1  A    between atoms: C_4  and  O_5
REMARK    2  A    between atoms: O_5  and  C_6
REMARK    3  A    between atoms: N_11  and  C_13
REMARK                            x       y       z     vdW  Elec       q    Type
REMARK                         _______ _______ _______ _____ _____    ______ ____
ROOT
ATOM      6  C   UNL     1      -2.017   1.933  24.685  0.00  0.00    +0.213 C 
ATOM      7  C   UNL     1      -1.623   1.317  25.068  0.00  0.00    +0.187 C 
ATOM      8  O   UNL     1      -1.013   1.362  25.621  0.00  0.00    -0.348 OA
ATOM      9  C   UNL     1      -0.646   2.034  25.929  0.00  0.00    +0.160 C 
ATOM     10  C   UNL     1      -0.798   2.826  25.759  0.00  0.00    +0.105 C 
ATOM     11  N   UNL     1      -1.355   3.143  25.240  0.00  0.00    -0.269 NA
ATOM     12  C   UNL     1      -1.898   2.745  24.761  0.00  0.00    +0.119 C 
ENDROOT
BRANCH  11  13
ATOM     13  C   UNL     1      -1.372   3.967  25.191  0.00  0.00    +0.058 C 
ATOM     14  C   UNL     1      -0.885   4.542  24.855  0.00  0.00    +0.016 C 
ATOM     15  C   UNL     1      -1.396   5.131  25.123  0.00  0.00    +0.003 C 
ATOM     16  C   UNL     1      -1.883   4.557  25.460  0.00  0.00    +0.016 C 
ENDBRANCH  11  13
BRANCH   6   5
ATOM      5  O   UNL     1      -2.608   1.706  24.156  0.00  0.00    -0.460 OA
BRANCH   5   4
ATOM      1  C   UNL     1      -5.292   2.277  24.952  0.00  0.00    +0.052 C 
ATOM      2  C   UNL     1      -4.681   1.735  24.837  0.00  0.00    +0.062 A 
ATOM      3  N   UNL     1      -3.950   1.991  24.554  0.00  0.00    -0.216 NA
ATOM      4  C   UNL     1      -3.339   1.449  24.439  0.00  0.00    +0.225 A 
ATOM     17  C   UNL     1      -3.459   0.651  24.608  0.00  0.00    +0.058 A 
ATOM     18  C   UNL     1      -4.190   0.395  24.891  0.00  0.00    +0.006 A 
ATOM     19  C   UNL     1      -4.801   0.937  25.006  0.00  0.00    +0.015 A 
ENDBRANCH   5   4
ENDBRANCH   6   5
TORSDOF 3
ENDMDL
MODEL 5
REMARK VINA RESULT:      -9.2      1.718      4.223
REMARK  Name = 
REMARK  3 active torsions:
REMARK  status: ('A' for Active; 'I' for Inactive)
REMARK    1  A    between atoms: C_4  and  O_5
REMARK    2  A    between atoms: O_5  and  C_6
REMARK    3  A    between atoms: N_11  and  C_13
REMARK                            x       y       z     vdW  Elec       q    Type
REMARK                         _______ _______ _______ _____ _____    ______ ____
ROOT
ATOM      6  C   UNL     1      -2.893   0.383  25.038  0.00  0.00    +0.213 C 
ATOM      7  C   UNL     1      -2.111   0.124  25.011  0.00  0.00    +0.187 C 
ATOM      8  O   UNL     1      -1.445   0.526  24.735  0.00  0.00    -0.348 OA
ATOM      9  C   UNL     1      -1.398   1.287  24.419  0.00  0.00    +0.160 C 
ATOM     10  C   UNL     1      -2.005   1.833  24.300  0.00  0.00    +0.105 C 
ATOM     11  N   UNL     1      -2.809   1.753  24.468  0.00  0.00    -0.269 NA
ATOM     12  C   UNL     1      -3.204   1.107  24.797  0.00  0.00    +0.119 C 
ENDROOT
BRANCH  11  13
ATOM     13  C   UNL     1      -3.279   2.405  24.284  0.00  0.00    +0.058 C 
ATOM     14  C   UNL     1      -3.589   2.723  23.588  0.00  0.00    +0.016 C 
ATOM     15  C   UNL     1      -3.945   3.327  24.022  0.00  0.00    +0.003 C 
ATOM     16  C   UNL     1      -3.636   3.010  24.719  0.00  0.00    +0.016 C 
ENDBRANCH  11  13
BRANCH   6   5
ATOM      5  O   UNL     1      -3.438  -0.155  25.348  0.00  0.00    -0.460 OA
BRANCH   5   4
ATOM      1  C   UNL     1      -3.221  -2.970  24.907  0.00  0.00    +0.052 C 
ATOM      2  C   UNL     1      -3.535  -2.236  24.698  0.00  0.00    +0.062 A 
ATOM      3  N   UNL     1      -3.330  -1.563  25.128  0.00  0.00    -0.216 NA
ATOM      4  C   UNL     1      -3.643  -0.828  24.919  0.00  0.00    +0.225 A 
ATOM     17  C   UNL     1      -4.161  -0.769  24.280  0.00  0.00    +0.058 A 
ATOM     18  C   UNL     1      -4.366  -1.442  23.851  0.00  0.00    +0.006 A 
ATOM     19  C   UNL     1      -4.053  -2.176  24.059  0.00  0.00    +0.015 A 
ENDBRANCH   5   4
ENDBRANCH   6   5
TORSDOF 3
ENDMDL
MODEL 6
REMARK VINA RESULT:      -9.0      2.131      4.699
REMARK  Name = 
REMARK  3 active torsions:
REMARK  status: ('A' for Active; 'I' for Inactive)
REMARK    1  A    between atoms: C_4  and  O_5
REMARK    2  A    between atoms: O_5  and  C_6
REMARK    3  A    between atoms: N_11  and  C_13
REMARK                            x       y       z     vdW  Elec       q    Type
REMARK                         _______ _______ _______ _____ _____    ______ ____
ROOT
ATOM      6  C   UNL     1      -1.140  -0.172  25.159  0.00  0.00    +0.213 C 
ATOM      7  C   UNL     1      -0.786  -0.576  24.533  0.00  0.00    +0.187 C 
ATOM      8  O   UNL     1      -0.256  -0.288  23.970  0.00  0.00    -0.348 OA
ATOM      9  C   UNL     1       0.050   0.475  23.893  0.00  0.00    +0.160 C 
ATOM     10  C   UNL     1      -0.098   1.137  24.362  0.00  0.00    +0.105 C 
ATOM     11  N   UNL     1      -0.588   1.201  25.022  0.00  0.00    -0.269 NA
ATOM     12  C   UNL     1      -1.053   0.618  25.377  0.00  0.00    +0.119 C 
ENDROOT
BRANCH  11  13
ATOM     13  C   UNL     1      -0.619   1.947  25.374  0.00  0.00    +0.058 C 
ATOM     14  C   UNL     1      -1.040   2.642  25.233  0.00  0.00    +0.016 C 
ATOM     15  C   UNL     1      -0.663   3.001  25.872  0.00  0.00    +0.003 C 
ATOM     16  C   UNL     1      -0.241   2.306  26.014  0.00  0.00    +0.016 C 
ENDBRANCH  11  13
BRANCH   6   5
ATOM      5  O   UNL     1      -1.650  -0.619  25.630  0.00  0.00    -0.460 OA
BRANCH   5   4
ATOM      1  C   UNL     1      -4.388  -0.019  25.071  0.00  0.00    +0.052 C 
ATOM      2  C   UNL     1      -3.755  -0.549  25.058  0.00  0.00    +0.062 A 
ATOM      3  N   UNL     1      -3.019  -0.319  25.350  0.00  0.00    -0.216 NA
ATOM      4  C   UNL     1      -2.386  -0.849  25.338  0.00  0.00    +0.225 A 
ATOM     17  C   UNL     1      -2.491  -1.608  25.033  0.00  0.00    +0.058 A 
ATOM     18  C   UNL     1      -3.227  -1.838  24.741  0.00  0.00    +0.006 A 
ATOM     19  C   UNL     1      -3.860  -1.308  24.754  0.00  0.00    +0.015 A 
ENDBRANCH   5   4
ENDBRANCH   6   5
TORSDOF 3
ENDMDL
