MODEL 1
REMARK VINA RESULT:     -11.7      0.000      0.000
REMARK  Name = 
REMARK  5 active torsions:
REMARK  status: ('A' for Active; 'I' for Inactive)
REMARK    1  A    between atoms: N_3  and  C_20
REMARK    2  A    between atoms: N_7  and  C_8
REMARK    3  A    between atoms: C_8  and  C_9
REMARK    4  A    between atoms: C_9  and  C_10
REMARK    5  A    between atoms: C_10  and  C_11
REMARK                            x       y       z     vdW  Elec       q    Type
REMARK                         _______ _______ _______ _____ _____    ______ ____
ROOT
ATOM      1  O   UNL     1      -3.394   4.084  25.949  0.00  0.00    -0.252 OA
ATOM      2  C   UNL     1      -3.163   3.500  25.414  0.00  0.00    +0.307 C 
ATOM      3  N   UNL     1      -2.460   3.489  24.982  0.00  0.00    -0.264 N 
ATOM      4  C   UNL     1      -2.457   2.806  24.518  0.00  0.00    +0.116 C 
ATOM      5  C   UNL     1      -3.156   2.395  24.665  0.00  0.00    +0.113 C 
ATOM      6  C   UNL     1      -3.454   1.686  24.366  0.00  0.00    +0.094 C 
ATOM      7  N   UNL     1      -4.186   1.405  24.621  0.00  0.00    -0.270 NA
ATOM     17  C   UNL     1      -4.622   1.834  25.174  0.00  0.00    +0.094 C 
ATOM     18  C   UNL     1      -4.326   2.543  25.474  0.00  0.00    +0.112 C 
ATOM     19  N   UNL     1      -3.592   2.824  25.219  0.00  0.00    -0.261 N 
ENDROOT
BRANCH   3  20
ATOM     20  C   UNL     1      -1.866   4.061  25.007  0.00  0.00    +0.082 C 
ATOM     21  C   UNL     1      -1.074   3.832  25.024  0.00  0.00    +0.052 C 
ATOM     22  C   UNL     1      -0.479   4.404  25.050  0.00  0.00    +0.144 C 
ATOM     23  O   UNL     1      -0.677   5.204  25.059  0.00  0.00    -0.354 OA
ATOM     24  C   UNL     1      -1.470   5.434  25.042  0.00  0.00    +0.144 C 
ATOM     25  C   UNL     1      -2.064   4.862  25.016  0.00  0.00    +0.052 C 
ENDBRANCH   3  20
BRANCH   7   8
ATOM      8  C   UNL     1      -4.483   0.696  24.322  0.00  0.00    +0.073 C 
BRANCH   8   9
ATOM      9  C   UNL     1      -4.140  -0.021  24.543  0.00  0.00    +0.022 C 
BRANCH   9  10
ATOM     10  C   UNL     1      -4.496  -0.733  24.325  0.00  0.00    +0.028 C 
BRANCH  10  11
ATOM     11  C   UNL     1      -4.106  -1.447  24.460  0.00  0.00    -0.022 A 
ATOM     12  C   UNL     1      -3.697  -1.568  25.166  0.00  0.00    -0.004 A 
ATOM     13  C   UNL     1      -3.308  -2.282  25.301  0.00  0.00    -0.000 A 
ATOM     14  C   UNL     1      -3.327  -2.876  24.730  0.00  0.00    -0.000 A 
ATOM     15  C   UNL     1      -3.735  -2.757  24.023  0.00  0.00    -0.000 A 
ATOM     16  C   UNL     1      -4.125  -2.042  23.888  0.00  0.00    -0.004 A 
ENDBRANCH  10  11
ENDBRANCH   9  10
ENDBRANCH   8   9
ENDBRANCH   7   8
TORSDOF 5
ENDMDL
MODEL 2
REMARK VINA RESULT:     -11.3      2.663      6.010
REMARK  Name = 
REMARK  5 active torsions:
REMARK  status: ('A' for Active; 'I' for Inactive)
REMARK    1  A    between atoms: N_3  and  C_20
REMARK    2  A    between atoms: N_7  and  C_8
REMARK    3  A    between atoms: C_8  and  C_9
REMARK    4  A    between atoms: C_9  and  C_10
REMARK    5  A    between atoms: C_10  and  C_11
REMARK                            x       y       z     vdW  Elec       q    Type
REMARK                         _______ _______ _______ _____ _____    ______ ____
ROOT
ATOM      1  O   UNL     1      -1.379  -1.745  23.879  0.00  0.00    -0.252 OA
ATOM      2  C   UNL     1      -1.715  -1.161  24.356  0.00  0.00    +0.307 C 
ATOM      3  N   UNL     1      -2.491  -1.149  24.634  0.00  0.00    -0.264 N 
ATOM      4  C   UNL     1      -2.590  -0.467  25.088  0.00  0.00    +0.116 C 
ATOM      5  C   UNL     1      -1.874  -0.058  25.091  0.00  0.00    +0.113 C 
ATOM      6  C   UNL     1      -1.643   0.650  25.446  0.00  0.00    +0.094 C 
ATOM      7  N   UNL     1      -0.874   0.929  25.350  0.00  0.00    -0.270 NA
ATOM     17  C   UNL     1      -0.333   0.501  24.898  0.00  0.00    +0.094 C 
ATOM     18  C   UNL     1      -0.562  -0.207  24.542  0.00  0.00    +0.112 C 
ATOM     19  N   UNL     1      -1.333  -0.487  24.638  0.00  0.00    -0.261 N 
ENDROOT
BRANCH   3  20
ATOM     20  C   UNL     1      -3.069  -1.719  24.484  0.00  0.00    +0.082 C 
ATOM     21  C   UNL     1      -3.685  -1.555  23.960  0.00  0.00    +0.052 C 
ATOM     22  C   UNL     1      -4.262  -2.125  23.810  0.00  0.00    +0.144 C 
ATOM     23  O   UNL     1      -4.223  -2.859  24.184  0.00  0.00    -0.354 OA
ATOM     24  C   UNL     1      -3.607  -3.024  24.708  0.00  0.00    +0.144 C 
ATOM     25  C   UNL     1      -3.030  -2.454  24.858  0.00  0.00    +0.052 C 
ENDBRANCH   3  20
BRANCH   7   8
ATOM      8  C   UNL     1      -0.643   1.637  25.706  0.00  0.00    +0.073 C 
BRANCH   8   9
ATOM      9  C   UNL     1      -0.931   2.355  25.421  0.00  0.00    +0.022 C 
BRANCH   9  10
ATOM     10  C   UNL     1      -0.735   3.060  25.803  0.00  0.00    +0.028 C 
BRANCH  10  11
ATOM     11  C   UNL     1      -1.050   3.775  25.539  0.00  0.00    -0.022 A 
ATOM     12  C   UNL     1      -0.598   4.275  25.063  0.00  0.00    -0.004 A 
ATOM     13  C   UNL     1      -0.913   4.989  24.798  0.00  0.00    -0.000 A 
ATOM     14  C   UNL     1      -1.681   5.205  25.010  0.00  0.00    -0.000 A 
ATOM     15  C   UNL     1      -2.133   4.706  25.486  0.00  0.00    -0.000 A 
ATOM     16  C   UNL     1      -1.818   3.990  25.750  0.00  0.00    -0.004 A 
ENDBRANCH  10  11
ENDBRANCH   9  10
ENDBRANCH   8   9
ENDBRANCH   7   8
TORSDOF 5
ENDMDL
MODEL 3
REMARK VINA RESULT:     -10.8      1.573      2.234
REMARK  Name = 
REMARK  5 active torsions:
REMARK  status: ('A' for Active; 'I' for Inactive)
REMARK    1  A    between atoms: N_3  and  C_20
REMARK    2  A    between atoms: N_7  and  C_8
REMARK    3  A    between atoms: C_8  and  C_9
REMARK    4  A    between atoms: C_9  and  C_10
REMARK    5  A    between atoms: C_10  and  C_11
REMARK                            x       y       z     vdW  Elec       q    Type
REMARK                         _______ _______ _______ _____ _____    ______ ____
ROOT
ATOM      1  O   UNL     1       0.070   2.891  24.329  0.00  0.00    -0.252 OA
ATOM      2  C   UNL     1      -0.588   2.601  24.735  0.00  0.00    +0.307 C 
ATOM      3  N   UNL     1      -1.183   3.056  25.080  0.00  0.00    -0.264 N 
ATOM      4  C   UNL     1      -1.729   2.542  25.426  0.00  0.00    +0.116 C 
ATOM      5  C   UNL     1      -1.470   1.771  25.294  0.00  0.00    +0.113 C 
ATOM      6  C   UNL     1      -1.785   1.038  25.508  0.00  0.00    +0.094 C 
ATOM      7  N   UNL     1      -1.395   0.344  25.295  0.00  0.00    -0.270 NA
ATOM     17  C   UNL     1      -0.690   0.380  24.868  0.00  0.00    +0.094 C 
ATOM     18  C   UNL     1      -0.374   1.111  24.654  0.00  0.00    +0.112 C 
ATOM     19  N   UNL     1      -0.765   1.807  24.868  0.00  0.00    -0.261 N 
ENDROOT
BRANCH   3  20
ATOM     20  C   UNL     1      -1.226   3.880  25.079  0.00  0.00    +0.082 C 
ATOM     21  C   UNL     1      -1.905   4.258  25.354  0.00  0.00    +0.052 C 
ATOM     22  C   UNL     1      -1.948   5.082  25.354  0.00  0.00    +0.144 C 
ATOM     23  O   UNL     1      -1.312   5.528  25.078  0.00  0.00    -0.354 OA
ATOM     24  C   UNL     1      -0.632   5.151  24.803  0.00  0.00    +0.144 C 
ATOM     25  C   UNL     1      -0.589   4.327  24.804  0.00  0.00    +0.052 C 
ENDBRANCH   3  20
BRANCH   7   8
ATOM      8  C   UNL     1      -1.710  -0.389  25.509  0.00  0.00    +0.073 C 
BRANCH   8   9
ATOM      9  C   UNL     1      -2.273  -0.752  25.028  0.00  0.00    +0.022 C 
BRANCH   9  10
ATOM     10  C   UNL     1      -2.764  -1.338  25.338  0.00  0.00    +0.028 C 
BRANCH  10  11
ATOM     11  C   UNL     1      -3.262  -1.766  24.839  0.00  0.00    -0.022 A 
ATOM     12  C   UNL     1      -3.166  -2.582  24.760  0.00  0.00    -0.004 A 
ATOM     13  C   UNL     1      -3.664  -3.010  24.261  0.00  0.00    -0.000 A 
ATOM     14  C   UNL     1      -4.258  -2.622  23.840  0.00  0.00    -0.000 A 
ATOM     15  C   UNL     1      -4.354  -1.807  23.918  0.00  0.00    -0.000 A 
ATOM     16  C   UNL     1      -3.856  -1.379  24.418  0.00  0.00    -0.004 A 
ENDBRANCH  10  11
ENDBRANCH   9  10
ENDBRANCH   8   9
ENDBRANCH   7   8
TORSDOF 5
ENDMDL
MODEL 4
REMARK VINA RESULT:     -10.4      2.014      5.553
REMARK  Name = 
REMARK  5 active torsions:
REMARK  status: ('A' for Active; 'I' for Inactive)
REMARK    1  A    between atoms: N_3  and  C_20
REMARK    2  A    between atoms: N_7  and  C_8
REMARK    3  A    between atoms: C_8  and  C_9
REMARK    4  A    between atoms: C_9  and  C_10
REMARK    5  A    between atoms: C_10  and  C_11
REMARK                            x       y       z     vdW  Elec       q    Type
REMARK                         _______ _______ _______ _____ _____    ______ ____
ROOT
ATOM      1  O   UNL     1      -4.510  -0.771  23.880  0.00  0.00    -0.252 OA
ATOM      2  C   UNL     1      -3.970  -0.373  24.360  0.00  0.00    +0.307 C 
ATOM      3  N   UNL     1      -3.319  -0.709  24.739  0.00  0.00    -0.264 N 
ATOM      4  C   UNL     1      -2.932  -0.112  25.159  0.00  0.00    +0.116 C 
ATOM      5  C   UNL     1      -3.345   0.592  25.039  0.00  0.00    +0.113 C 
ATOM      6  C   UNL     1      -3.220   1.359  25.315  0.00  0.00    +0.094 C 
ATOM      7  N   UNL     1      -3.735   1.965  25.098  0.00  0.00    -0.270 NA
ATOM     17  C   UNL     1      -4.376   1.804  24.605  0.00  0.00    +0.094 C 
ATOM     18  C   UNL     1      -4.502   1.037  24.328  0.00  0.00    +0.112 C 
ATOM     19  N   UNL     1      -3.986   0.431  24.545  0.00  0.00    -0.261 N 
ENDROOT
BRANCH   3  20
ATOM     20  C   UNL     1      -3.094  -1.502  24.705  0.00  0.00    +0.082 C 
ATOM     21  C   UNL     1      -3.592  -2.086  25.007  0.00  0.00    +0.052 C 
ATOM     22  C   UNL     1      -3.366  -2.879  24.973  0.00  0.00    +0.144 C 
ATOM     23  O   UNL     1      -2.644  -3.087  24.636  0.00  0.00    -0.354 OA
ATOM     24  C   UNL     1      -2.145  -2.504  24.333  0.00  0.00    +0.144 C 
ATOM     25  C   UNL     1      -2.370  -1.711  24.368  0.00  0.00    +0.052 C 
ENDBRANCH   3  20
BRANCH   7   8
ATOM      8  C   UNL     1      -3.610   2.732  25.374  0.00  0.00    +0.073 C 
BRANCH   8   9
ATOM      9  C   UNL     1      -2.924   3.140  25.165  0.00  0.00    +0.022 C 
BRANCH   9  10
ATOM     10  C   UNL     1      -2.683   3.796  25.604  0.00  0.00    +0.028 C 
BRANCH  10  11
ATOM     11  C   UNL     1      -2.023   4.230  25.369  0.00  0.00    -0.022 A 
ATOM     12  C   UNL     1      -2.086   5.043  25.244  0.00  0.00    -0.004 A 
ATOM     13  C   UNL     1      -1.426   5.477  25.009  0.00  0.00    -0.000 A 
ATOM     14  C   UNL     1      -0.701   5.099  24.899  0.00  0.00    -0.000 A 
ATOM     15  C   UNL     1      -0.637   4.286  25.024  0.00  0.00    -0.000 A 
ATOM     16  C   UNL     1      -1.298   3.851  25.259  0.00  0.00    -0.004 A 
ENDBRANCH  10  11
ENDBRANCH   9  10
ENDBRANCH   8   9
ENDBRANCH   7   8
TORSDOF 5
ENDMDL
MODEL 5
REMARK VINA RESULT:      -9.3      3.063      4.388
REMARK  Name = 
REMARK  5 active torsions:
REMARK  status: ('A' for Active; 'I' for Inactive)
REMARK    1  A    between atoms: N_3  and  C_20
REMARK    2  A    between atoms: N_7  and  C_8
REMARK    3  A    between atoms: C_8  and  C_9
REMARK    4  A    between atoms: C_9  and  C_10
REMARK    5  A    between atoms: C_10  and  C_11
REMARK                            x       y       z     vdW  Elec       q    Type
REMARK                         _______ _______ _______ _____ _____    ______ ____
ROOT
ATOM      1  O   UNL     1      -0.123  -0.991  24.862  0.00  0.00    -0.252 OA
ATOM      2  C   UNL     1      -0.644  -0.457  24.507  0.00  0.00    +0.307 C 
ATOM      3  N   UNL     1      -0.446   0.108  23.940  0.00  0.00    -0.264 N 
ATOM      4  C   UNL     1      -1.133   0.520  23.740  0.00  0.00    +0.116 C 
ATOM      5  C   UNL     1      -1.754   0.209  24.185  0.00  0.00    +0.113 C 
ATOM      6  C   UNL     1      -2.557   0.397  24.220  0.00  0.00    +0.094 C 
ATOM      7  N   UNL     1      -3.057  -0.018  24.728  0.00  0.00    -0.270 NA
ATOM     17  C   UNL     1      -2.754  -0.621  25.202  0.00  0.00    +0.094 C 
ATOM     18  C   UNL     1      -1.952  -0.810  25.168  0.00  0.00    +0.112 C 
ATOM     19  N   UNL     1      -1.452  -0.395  24.659  0.00  0.00    -0.261 N 
ENDROOT
BRANCH   3  20
ATOM     20  C   UNL     1       0.305   0.239  23.626  0.00  0.00    +0.082 C 
ATOM     21  C   UNL     1       0.751   0.886  23.877  0.00  0.00    +0.052 C 
ATOM     22  C   UNL     1       1.503   1.017  23.564  0.00  0.00    +0.144 C 
ATOM     23  O   UNL     1       1.809   0.500  22.999  0.00  0.00    -0.354 OA
ATOM     24  C   UNL     1       1.365  -0.148  22.747  0.00  0.00    +0.144 C 
ATOM     25  C   UNL     1       0.613  -0.279  23.061  0.00  0.00    +0.052 C 
ENDBRANCH   3  20
BRANCH   7   8
ATOM      8  C   UNL     1      -3.859   0.170  24.763  0.00  0.00    +0.073 C 
BRANCH   8   9
ATOM      9  C   UNL     1      -4.096   0.934  24.963  0.00  0.00    +0.022 C 
BRANCH   9  10
ATOM     10  C   UNL     1      -4.889   1.152  24.897  0.00  0.00    +0.028 C 
BRANCH  10  11
ATOM     11  C   UNL     1      -5.135   1.898  25.146  0.00  0.00    -0.022 A 
ATOM     12  C   UNL     1      -5.691   1.970  25.752  0.00  0.00    -0.004 A 
ATOM     13  C   UNL     1      -5.936   2.716  26.001  0.00  0.00    -0.000 A 
ATOM     14  C   UNL     1      -5.627   3.393  25.644  0.00  0.00    -0.000 A 
ATOM     15  C   UNL     1      -5.071   3.322  25.038  0.00  0.00    -0.000 A 
ATOM     16  C   UNL     1      -4.825   2.574  24.789  0.00  0.00    -0.004 A 
ENDBRANCH  10  11
ENDBRANCH   9  10
ENDBRANCH   8   9
ENDBRANCH   7   8
TORSDOF 5
ENDMDL
MODEL 6
REMARK VINA RESULT:      -8.3      2.734      5.071
REMARK  Name = 
REMARK  5 active torsions:
REMARK  status: ('A' for Active; 'I' for Inactive)
REMARK    1  A    between atoms: N_3  and  C_20
REMARK    2  A    between atoms: N_7  and  C_8
REMARK    3  A    between atoms: C_8  and  C_9
REMARK    4  A    between atoms: C_9  and  C_10
REMARK    5  A    between atoms: C_10  and  C_11
REMARK                            x       y       z     vdW  Elec       q    Type
REMARK                         _______ _______ _______ _____ _____    ______ ____
ROOT
ATOM      1  O   UNL     1       0.019  -0.166  23.755  0.00  0.00    -0.252 OA
ATOM      2  C   UNL     1      -0.701   0.042  24.101  0.00  0.00    +0.307 C 
ATOM      3  N   UNL     1      -1.178  -0.451  24.559  0.00  0.00    -0.264 N 
ATOM      4  C   UNL     1      -1.842  -0.019  24.791  0.00  0.00    +0.116 C 
ATOM      5  C   UNL     1      -1.775   0.740  24.475  0.00  0.00    +0.113 C 
ATOM      6  C   UNL     1      -2.265   1.402  24.520  0.00  0.00    +0.094 C 
ATOM      7  N   UNL     1      -2.050   2.101  24.140  0.00  0.00    -0.270 NA
ATOM     17  C   UNL     1      -1.345   2.139  23.713  0.00  0.00    +0.094 C 
ATOM     18  C   UNL     1      -0.854   1.477  23.668  0.00  0.00    +0.112 C 
ATOM     19  N   UNL     1      -1.070   0.777  24.049  0.00  0.00    -0.261 N 
ENDROOT
BRANCH   3  20
ATOM     20  C   UNL     1      -1.019  -1.237  24.753  0.00  0.00    +0.082 C 
ATOM     21  C   UNL     1      -1.451  -1.845  24.399  0.00  0.00    +0.052 C 
ATOM     22  C   UNL     1      -1.292  -2.631  24.593  0.00  0.00    +0.144 C 
ATOM     23  O   UNL     1      -0.702  -2.809  25.140  0.00  0.00    -0.354 OA
ATOM     24  C   UNL     1      -0.269  -2.202  25.494  0.00  0.00    +0.144 C 
ATOM     25  C   UNL     1      -0.428  -1.416  25.301  0.00  0.00    +0.052 C 
ENDBRANCH   3  20
BRANCH   7   8
ATOM      8  C   UNL     1      -2.540   2.764  24.185  0.00  0.00    +0.073 C 
BRANCH   8   9
ATOM      9  C   UNL     1      -3.359   2.671  24.209  0.00  0.00    +0.022 C 
BRANCH   9  10
ATOM     10  C   UNL     1      -3.845   3.325  24.336  0.00  0.00    +0.028 C 
BRANCH  10  11
ATOM     11  C   UNL     1      -4.539   3.245  24.775  0.00  0.00    -0.022 A 
ATOM     12  C   UNL     1      -5.048   2.612  24.631  0.00  0.00    -0.004 A 
ATOM     13  C   UNL     1      -5.741   2.532  25.070  0.00  0.00    -0.000 A 
ATOM     14  C   UNL     1      -5.927   3.086  25.653  0.00  0.00    -0.000 A 
ATOM     15  C   UNL     1      -5.418   3.719  25.797  0.00  0.00    -0.000 A 
ATOM     16  C   UNL     1      -4.724   3.799  25.358  0.00  0.00    -0.004 A 
ENDBRANCH  10  11
ENDBRANCH   9  10
ENDBRANCH   8   9
ENDBRANCH   7   8
TORSDOF 5
ENDMDL
