MODEL 1
REMARK VINA RESULT:     -14.2      0.000      0.000
REMARK  Name = 
REMARK  6 active torsions:
REMARK  status: ('A' for Active; 'I' for Inactive)
REMARK    1  A    between atoms: O_2  and  C_3
REMARK    2  A    between atoms: C_6  and  S_9
REMARK    3  A    between atoms: S_9  and  N_12
REMARK    4  A    between atoms: N_12  and  C_13
REMARK    5  A    between atoms: N_25  and  C_26
REMARK    6  A    between atoms: C_29  and  C_32
REMARK                            x       y       z     vdW  Elec       q    Type
REMARK                         _______ _______ _______ _____ _____    ______ ____
ROOT
ATOM     13  C   UNL     1      -3.907   1.437  24.914  0.00  0.00    +0.147 A 
ATOM     14  C   UNL     1      -4.684   1.163  24.883  0.00  0.00    +0.024 A 
ATOM     15  C   UNL     1      -5.310   1.677  25.041  0.00  0.00    +0.014 A 
ATOM     16  C   UNL     1      -5.158   2.465  25.229  0.00  0.00    +0.041 A 
ATOM     17  C   UNL     1      -5.595   3.245  25.443  0.00  0.00    +0.058 C 
ATOM     18  C   UNL     1      -6.239   3.506  25.539  0.00  0.00    +0.011 C 
ATOM     19  C   UNL     1      -5.471   3.774  25.568  0.00  0.00    +0.043 C 
ATOM     20  C   UNL     1      -4.626   4.279  25.652  0.00  0.00    +0.097 C 
ATOM     21  N   UNL     1      -4.081   3.670  25.475  0.00  0.00    -0.262 N 
ATOM     22  C   UNL     1      -4.787   3.746  25.528  0.00  0.00    +0.101 C 
ATOM     23  C   UNL     1      -3.353   3.301  25.349  0.00  0.00    +0.327 C 
ATOM     24  O   UNL     1      -3.326   2.501  25.149  0.00  0.00    -0.250 OA
ATOM     25  N   UNL     1      -2.654   3.733  25.422  0.00  0.00    -0.162 NA
ATOM     35  C   UNL     1      -5.005   2.964  25.345  0.00  0.00    +0.110 C 
ATOM     36  N   UNL     1      -4.380   2.740  25.259  0.00  0.00    -0.298 N 
ATOM     37  C   UNL     1      -3.755   2.226  25.102  0.00  0.00    +0.277 A 
ATOM     38  O   UNL     1      -2.931   2.255  25.069  0.00  0.00    -0.266 OA
ENDROOT
BRANCH  25  26
ATOM     26  C   UNL     1      -1.927   3.364  25.295  0.00  0.00    +0.075 A 
ATOM     27  C   UNL     1      -1.595   3.354  24.540  0.00  0.00    +0.017 A 
ATOM     28  C   UNL     1      -0.868   2.985  24.414  0.00  0.00    +0.004 A 
ATOM     29  C   UNL     1      -0.473   2.626  25.043  0.00  0.00    +0.035 A 
ATOM     30  C   UNL     1      -0.805   2.635  25.798  0.00  0.00    +0.004 A 
ATOM     31  C   UNL     1      -1.532   3.004  25.925  0.00  0.00    +0.017 A 
BRANCH  29  32
ATOM     32  C   UNL     1       0.254   2.257  24.916  0.00  0.00    +0.173 C 
ATOM     33  C   UNL     1       0.397   1.861  24.206  0.00  0.00    +0.077 C 
ATOM     34  O   UNL     1       0.838   2.283  25.498  0.00  0.00    -0.291 OA
ENDBRANCH  29  32
ENDBRANCH  25  26
BRANCH  13  12
ATOM     12  N   UNL     1      -3.282   0.923  24.756  0.00  0.00    -0.092 NA
BRANCH  12   9
ATOM      9  S   UNL     1      -3.426   0.117  24.657  0.00  0.00    +0.093 S 
ATOM     10  O   UNL     1      -3.372   0.007  25.473  0.00  0.00    -0.148 OA
ATOM     11  O   UNL     1      -3.479   0.226  23.842  0.00  0.00    -0.148 OA
BRANCH   9   6
ATOM      3  C   UNL     1      -3.856  -2.303  24.363  0.00  0.00    +0.139 A 
ATOM      4  C   UNL     1      -3.485  -2.030  25.048  0.00  0.00    +0.038 A 
ATOM      5  C   UNL     1      -3.341  -1.224  25.145  0.00  0.00    +0.023 A 
ATOM      6  C   UNL     1      -3.569  -0.690  24.559  0.00  0.00    +0.127 A 
ATOM      7  C   UNL     1      -3.941  -0.963  23.875  0.00  0.00    +0.023 A 
ATOM      8  C   UNL     1      -4.084  -1.769  23.777  0.00  0.00    +0.038 A 
BRANCH   3   2
ATOM      1  C   UNL     1      -3.378  -3.648  24.323  0.00  0.00    +0.252 C 
ATOM      2  O   UNL     1      -4.000  -3.109  24.266  0.00  0.00    -0.471 OA
ENDBRANCH   3   2
ENDBRANCH   9   6
ENDBRANCH  12   9
ENDBRANCH  13  12
TORSDOF 6
ENDMDL
MODEL 2
REMARK VINA RESULT:     -13.7      1.404      4.360
REMARK  Name = 
REMARK  6 active torsions:
REMARK  status: ('A' for Active; 'I' for Inactive)
REMARK    1  A    between atoms: O_2  and  C_3
REMARK    2  A    between atoms: C_6  and  S_9
REMARK    3  A    between atoms: S_9  and  N_12
REMARK    4  A    between atoms: N_12  and  C_13
REMARK    5  A    between atoms: N_25  and  C_26
REMARK    6  A    between atoms: C_29  and  C_32
REMARK                            x       y       z     vdW  Elec       q    Type
REMARK                         _______ _______ _______ _____ _____    ______ ____
ROOT
ATOM     13  C   UNL     1      -3.457   0.129  24.385  0.00  0.00    +0.147 A 
ATOM     14  C   UNL     1      -4.238  -0.138  24.353  0.00  0.00    +0.024 A 
ATOM     15  C   UNL     1      -4.398  -0.947  24.362  0.00  0.00    +0.014 A 
ATOM     16  C   UNL     1      -3.779  -1.490  24.401  0.00  0.00    +0.041 A 
ATOM     17  C   UNL     1      -3.624  -2.395  24.426  0.00  0.00    +0.058 C 
ATOM     18  C   UNL     1      -3.960  -3.011  24.422  0.00  0.00    +0.011 C 
ATOM     19  C   UNL     1      -3.191  -2.745  24.452  0.00  0.00    +0.043 C 
ATOM     20  C   UNL     1      -2.211  -2.623  24.495  0.00  0.00    +0.097 C 
ATOM     21  N   UNL     1      -2.173  -1.789  24.481  0.00  0.00    -0.262 N 
ATOM     22  C   UNL     1      -2.675  -2.294  24.468  0.00  0.00    +0.101 C 
ATOM     23  C   UNL     1      -1.841  -1.033  24.482  0.00  0.00    +0.327 C 
ATOM     24  O   UNL     1      -2.328  -0.368  24.446  0.00  0.00    -0.250 OA
ATOM     25  N   UNL     1      -1.022  -0.943  24.518  0.00  0.00    -0.162 NA
ATOM     35  C   UNL     1      -3.343  -1.797  24.427  0.00  0.00    +0.110 C 
ATOM     36  N   UNL     1      -2.998  -1.223  24.432  0.00  0.00    -0.298 N 
ATOM     37  C   UNL     1      -2.837  -0.414  24.424  0.00  0.00    +0.277 A 
ATOM     38  O   UNL     1      -2.177   0.079  24.445  0.00  0.00    -0.266 OA
ENDROOT
BRANCH  25  26
ATOM     26  C   UNL     1      -0.690  -0.187  24.519  0.00  0.00    +0.075 A 
ATOM     27  C   UNL     1      -0.580   0.214  25.232  0.00  0.00    +0.017 A 
ATOM     28  C   UNL     1      -0.248   0.970  25.232  0.00  0.00    +0.004 A 
ATOM     29  C   UNL     1      -0.025   1.323  24.520  0.00  0.00    +0.035 A 
ATOM     30  C   UNL     1      -0.136   0.921  23.808  0.00  0.00    +0.004 A 
ATOM     31  C   UNL     1      -0.467   0.167  23.807  0.00  0.00    +0.017 A 
BRANCH  29  32
ATOM     32  C   UNL     1       0.306   2.078  24.521  0.00  0.00    +0.173 C 
ATOM     33  C   UNL     1      -0.114   2.713  24.840  0.00  0.00    +0.077 C 
ATOM     34  O   UNL     1       1.058   2.200  24.205  0.00  0.00    -0.291 OA
ENDBRANCH  29  32
ENDBRANCH  25  26
BRANCH  13  12
ATOM     12  N   UNL     1      -3.297   0.937  24.376  0.00  0.00    -0.092 NA
BRANCH  12   9
ATOM      9  S   UNL     1      -3.865   1.473  24.644  0.00  0.00    +0.093 S 
ATOM     10  O   UNL     1      -3.637   1.326  25.422  0.00  0.00    -0.148 OA
ATOM     11  O   UNL     1      -4.093   1.620  23.865  0.00  0.00    -0.148 OA
BRANCH   9   6
ATOM      3  C   UNL     1      -5.566   3.081  25.447  0.00  0.00    +0.139 A 
ATOM      4  C   UNL     1      -4.780   3.320  25.362  0.00  0.00    +0.038 A 
ATOM      5  C   UNL     1      -4.214   2.784  25.094  0.00  0.00    +0.023 A 
ATOM      6  C   UNL     1      -4.432   2.009  24.912  0.00  0.00    +0.127 A 
ATOM      7  C   UNL     1      -5.217   1.771  24.997  0.00  0.00    +0.023 A 
ATOM      8  C   UNL     1      -5.784   2.307  25.265  0.00  0.00    +0.038 A 
BRANCH   3   2
ATOM      1  C   UNL     1      -5.996   4.428  25.650  0.00  0.00    +0.252 C 
ATOM      2  O   UNL     1      -6.132   3.617  25.715  0.00  0.00    -0.471 OA
ENDBRANCH   3   2
ENDBRANCH   9   6
ENDBRANCH  12   9
ENDBRANCH  13  12
TORSDOF 6
ENDMDL
MODEL 3
REMARK VINA RESULT:     -13.6      1.051      3.525
REMARK  Name = 
REMARK  6 active torsions:
REMARK  status: ('A' for Active; 'I' for Inactive)
REMARK    1  A    between atoms: O_2  and  C_3
REMARK    2  A    between atoms: C_6  and  S_9
REMARK    3  A    between atoms: S_9  and  N_12
REMARK    4  A    between atoms: N_12  and  C_13
REMARK    5  A    between atoms: N_25  and  C_26
REMARK    6  A    between atoms: C_29  and  C_32
REMARK                            x       y       z     vdW  Elec       q    Type
REMARK                         _______ _______ _______ _____ _____    ______ ____
ROOT
ATOM     13  C   UNL     1      -2.185   1.076  24.749  0.00  0.00    +0.147 A 
ATOM     14  C   UNL     1      -1.612   0.501  24.601  0.00  0.00    +0.024 A 
ATOM     15  C   UNL     1      -0.832   0.724  24.450  0.00  0.00    +0.014 A 
ATOM     16  C   UNL     1      -0.625   1.523  24.447  0.00  0.00    +0.041 A 
ATOM     17  C   UNL     1       0.101   2.071  24.323  0.00  0.00    +0.058 C 
ATOM     18  C   UNL     1       0.788   2.051  24.179  0.00  0.00    +0.011 C 
ATOM     19  C   UNL     1       0.220   2.616  24.325  0.00  0.00    +0.043 C 
ATOM     20  C   UNL     1      -0.314   3.434  24.476  0.00  0.00    +0.097 C 
ATOM     21  N   UNL     1      -1.062   3.090  24.615  0.00  0.00    -0.262 N 
ATOM     22  C   UNL     1      -0.401   2.871  24.466  0.00  0.00    +0.101 C 
ATOM     23  C   UNL     1      -1.869   3.043  24.780  0.00  0.00    +0.327 C 
ATOM     24  O   UNL     1      -2.241   2.307  24.821  0.00  0.00    -0.250 OA
ATOM     25  N   UNL     1      -2.305   3.732  24.905  0.00  0.00    -0.162 NA
ATOM     35  C   UNL     1      -0.545   2.051  24.456  0.00  0.00    +0.110 C 
ATOM     36  N   UNL     1      -1.199   2.098  24.594  0.00  0.00    -0.298 N 
ATOM     37  C   UNL     1      -1.978   1.875  24.745  0.00  0.00    +0.277 A 
ATOM     38  O   UNL     1      -2.699   2.239  24.913  0.00  0.00    -0.266 OA
ENDROOT
BRANCH  25  26
ATOM     26  C   UNL     1      -3.112   3.686  25.070  0.00  0.00    +0.075 A 
ATOM     27  C   UNL     1      -3.371   3.646  25.853  0.00  0.00    +0.017 A 
ATOM     28  C   UNL     1      -4.178   3.600  26.017  0.00  0.00    +0.004 A 
ATOM     29  C   UNL     1      -4.726   3.593  25.400  0.00  0.00    +0.035 A 
ATOM     30  C   UNL     1      -4.467   3.633  24.619  0.00  0.00    +0.004 A 
ATOM     31  C   UNL     1      -3.660   3.680  24.453  0.00  0.00    +0.017 A 
BRANCH  29  32
ATOM     32  C   UNL     1      -5.533   3.547  25.566  0.00  0.00    +0.173 C 
ATOM     33  C   UNL     1      -5.905   2.811  25.598  0.00  0.00    +0.077 C 
ATOM     34  O   UNL     1      -5.967   4.235  25.700  0.00  0.00    -0.291 OA
ENDBRANCH  29  32
ENDBRANCH  25  26
BRANCH  13  12
ATOM     12  N   UNL     1      -2.964   0.852  24.899  0.00  0.00    -0.092 NA
BRANCH  12   9
ATOM      9  S   UNL     1      -3.197   0.069  24.787  0.00  0.00    +0.093 S 
ATOM     10  O   UNL     1      -3.016  -0.098  25.575  0.00  0.00    -0.148 OA
ATOM     11  O   UNL     1      -3.378   0.235  24.000  0.00  0.00    -0.148 OA
BRANCH   9   6
ATOM      3  C   UNL     1      -3.897  -2.282  24.452  0.00  0.00    +0.139 A 
ATOM      4  C   UNL     1      -4.103  -1.707  23.898  0.00  0.00    +0.038 A 
ATOM      5  C   UNL     1      -3.870  -0.924  24.009  0.00  0.00    +0.023 A 
ATOM      6  C   UNL     1      -3.430  -0.715  24.676  0.00  0.00    +0.127 A 
ATOM      7  C   UNL     1      -3.224  -1.290  25.231  0.00  0.00    +0.023 A 
ATOM      8  C   UNL     1      -3.458  -2.073  25.119  0.00  0.00    +0.038 A 
BRANCH   3   2
ATOM      1  C   UNL     1      -3.592  -3.617  24.049  0.00  0.00    +0.252 C 
ATOM      2  O   UNL     1      -4.131  -3.065  24.341  0.00  0.00    -0.471 OA
ENDBRANCH   3   2
ENDBRANCH   9   6
ENDBRANCH  12   9
ENDBRANCH  13  12
TORSDOF 6
ENDMDL
MODEL 4
REMARK VINA RESULT:     -13.5      1.424      4.180
REMARK  Name = 
REMARK  6 active torsions:
REMARK  status: ('A' for Active; 'I' for Inactive)
REMARK    1  A    between atoms: O_2  and  C_3
REMARK    2  A    between atoms: C_6  and  S_9
REMARK    3  A    between atoms: S_9  and  N_12
REMARK    4  A    between atoms: N_12  and  C_13
REMARK    5  A    between atoms: N_25  and  C_26
REMARK    6  A    between atoms: C_29  and  C_32
REMARK                            x       y       z     vdW  Elec       q    Type
REMARK                         _______ _______ _______ _____ _____    ______ ____
ROOT
ATOM     13  C   UNL     1      -2.032   1.405  24.481  0.00  0.00    +0.147 A 
ATOM     14  C   UNL     1      -1.645   2.133  24.446  0.00  0.00    +0.024 A 
ATOM     15  C   UNL     1      -2.072   2.833  24.543  0.00  0.00    +0.014 A 
ATOM     16  C   UNL     1      -2.885   2.804  24.676  0.00  0.00    +0.041 A 
ATOM     17  C   UNL     1      -3.606   3.357  24.816  0.00  0.00    +0.058 C 
ATOM     18  C   UNL     1      -3.776   4.035  24.870  0.00  0.00    +0.011 C 
ATOM     19  C   UNL     1      -4.155   3.315  24.905  0.00  0.00    +0.043 C 
ATOM     20  C   UNL     1      -4.782   2.555  24.979  0.00  0.00    +0.097 C 
ATOM     21  N   UNL     1      -4.249   1.922  24.867  0.00  0.00    -0.262 N 
ATOM     22  C   UNL     1      -4.225   2.633  24.890  0.00  0.00    +0.101 C 
ATOM     23  C   UNL     1      -3.982   1.144  24.793  0.00  0.00    +0.327 C 
ATOM     24  O   UNL     1      -3.183   0.994  24.655  0.00  0.00    -0.250 OA
ATOM     25  N   UNL     1      -4.515   0.518  24.856  0.00  0.00    -0.162 NA
ATOM     35  C   UNL     1      -3.408   2.729  24.759  0.00  0.00    +0.110 C 
ATOM     36  N   UNL     1      -3.272   2.075  24.711  0.00  0.00    -0.298 N 
ATOM     37  C   UNL     1      -2.845   1.376  24.614  0.00  0.00    +0.277 A 
ATOM     38  O   UNL     1      -2.992   0.565  24.607  0.00  0.00    -0.266 OA
ENDROOT
BRANCH  25  26
ATOM     26  C   UNL     1      -4.248  -0.260  24.782  0.00  0.00    +0.075 A 
ATOM     27  C   UNL     1      -3.957  -0.661  25.443  0.00  0.00    +0.017 A 
ATOM     28  C   UNL     1      -3.691  -1.438  25.368  0.00  0.00    +0.004 A 
ATOM     29  C   UNL     1      -3.715  -1.814  24.634  0.00  0.00    +0.035 A 
ATOM     30  C   UNL     1      -4.006  -1.413  23.975  0.00  0.00    +0.004 A 
ATOM     31  C   UNL     1      -4.272  -0.636  24.048  0.00  0.00    +0.017 A 
BRANCH  29  32
ATOM     32  C   UNL     1      -3.448  -2.591  24.560  0.00  0.00    +0.173 C 
ATOM     33  C   UNL     1      -2.653  -2.768  24.694  0.00  0.00    +0.077 C 
ATOM     34  O   UNL     1      -3.975  -3.191  24.354  0.00  0.00    -0.291 OA
ENDBRANCH  29  32
ENDBRANCH  25  26
BRANCH  13  12
ATOM     12  N   UNL     1      -1.604   0.707  24.384  0.00  0.00    -0.092 NA
BRANCH  12   9
ATOM      9  S   UNL     1      -0.824   0.734  24.118  0.00  0.00    +0.093 S 
ATOM     10  O   UNL     1      -0.557   0.698  24.897  0.00  0.00    -0.148 OA
ATOM     11  O   UNL     1      -1.091   0.770  23.338  0.00  0.00    -0.148 OA
BRANCH   9   6
ATOM      3  C   UNL     1       1.518   0.814  23.320  0.00  0.00    +0.139 A 
ATOM      4  C   UNL     1       1.019   0.206  23.073  0.00  0.00    +0.038 A 
ATOM      5  C   UNL     1       0.238   0.179  23.339  0.00  0.00    +0.023 A 
ATOM      6  C   UNL     1      -0.043   0.761  23.852  0.00  0.00    +0.127 A 
ATOM      7  C   UNL     1       0.456   1.370  24.099  0.00  0.00    +0.023 A 
ATOM      8  C   UNL     1       1.236   1.397  23.833  0.00  0.00    +0.038 A 
BRANCH   3   2
ATOM      1  C   UNL     1       2.622   0.192  22.662  0.00  0.00    +0.252 C 
ATOM      2  O   UNL     1       2.298   0.841  23.054  0.00  0.00    -0.471 OA
ENDBRANCH   3   2
ENDBRANCH   9   6
ENDBRANCH  12   9
ENDBRANCH  13  12
TORSDOF 6
ENDMDL
MODEL 5
REMARK VINA RESULT:     -13.1      1.788      3.691
REMARK  Name = 
REMARK  6 active torsions:
REMARK  status: ('A' for Active; 'I' for Inactive)
REMARK    1  A    between atoms: O_2  and  C_3
REMARK    2  A    between atoms: C_6  and  S_9
REMARK    3  A    between atoms: S_9  and  N_12
REMARK    4  A    between atoms: N_12  and  C_13
REMARK    5  A    between atoms: N_25  and  C_26
REMARK    6  A    between atoms: C_29  and  C_32
REMARK                            x       y       z     vdW  Elec       q    Type
REMARK                         _______ _______ _______ _____ _____    ______ ____
ROOT
ATOM     13  C   UNL     1      -1.757   2.306  24.890  0.00  0.00    +0.147 A 
ATOM     14  C   UNL     1      -0.932   2.297  24.851  0.00  0.00    +0.024 A 
ATOM     15  C   UNL     1      -0.511   3.006  24.873  0.00  0.00    +0.014 A 
ATOM     16  C   UNL     1      -0.913   3.723  24.934  0.00  0.00    +0.041 A 
ATOM     17  C   UNL     1      -0.756   4.627  24.981  0.00  0.00    +0.058 C 
ATOM     18  C   UNL     1      -0.234   5.096  24.984  0.00  0.00    +0.011 C 
ATOM     19  C   UNL     1      -1.048   5.101  25.022  0.00  0.00    +0.043 C 
ATOM     20  C   UNL     1      -2.011   5.312  25.080  0.00  0.00    +0.097 C 
ATOM     21  N   UNL     1      -2.326   4.538  25.049  0.00  0.00    -0.262 N 
ATOM     22  C   UNL     1      -1.684   4.847  25.037  0.00  0.00    +0.101 C 
ATOM     23  C   UNL     1      -2.891   3.937  25.040  0.00  0.00    +0.327 C 
ATOM     24  O   UNL     1      -2.654   3.148  24.982  0.00  0.00    -0.250 OA
ATOM     25  N   UNL     1      -3.693   4.124  25.089  0.00  0.00    -0.162 NA
ATOM     35  C   UNL     1      -1.221   4.158  24.975  0.00  0.00    +0.110 C 
ATOM     36  N   UNL     1      -1.737   3.732  24.973  0.00  0.00    -0.298 N 
ATOM     37  C   UNL     1      -2.159   3.023  24.951  0.00  0.00    +0.277 A 
ATOM     38  O   UNL     1      -2.946   2.777  24.974  0.00  0.00    -0.266 OA
ENDROOT
BRANCH  25  26
ATOM     26  C   UNL     1      -4.258   3.523  25.079  0.00  0.00    +0.075 A 
ATOM     27  C   UNL     1      -4.523   3.216  24.360  0.00  0.00    +0.017 A 
ATOM     28  C   UNL     1      -5.088   2.616  24.352  0.00  0.00    +0.004 A 
ATOM     29  C   UNL     1      -5.389   2.321  25.062  0.00  0.00    +0.035 A 
ATOM     30  C   UNL     1      -5.124   2.628  25.780  0.00  0.00    +0.004 A 
ATOM     31  C   UNL     1      -4.559   3.229  25.790  0.00  0.00    +0.017 A 
BRANCH  29  32
ATOM     32  C   UNL     1      -5.953   1.720  25.052  0.00  0.00    +0.173 C 
ATOM     33  C   UNL     1      -5.728   0.940  25.199  0.00  0.00    +0.077 C 
ATOM     34  O   UNL     1      -6.743   1.898  24.896  0.00  0.00    -0.291 OA
ENDBRANCH  29  32
ENDBRANCH  25  26
BRANCH  13  12
ATOM     12  N   UNL     1      -2.177   1.597  24.867  0.00  0.00    -0.092 NA
BRANCH  12   9
ATOM      9  S   UNL     1      -1.779   0.878  24.934  0.00  0.00    +0.093 S 
ATOM     10  O   UNL     1      -1.806   0.939  25.756  0.00  0.00    -0.148 OA
ATOM     11  O   UNL     1      -1.751   0.817  24.112  0.00  0.00    -0.148 OA
BRANCH   9   6
ATOM      3  C   UNL     1      -0.584  -1.280  25.137  0.00  0.00    +0.139 A 
ATOM      4  C   UNL     1      -1.033  -0.996  25.768  0.00  0.00    +0.038 A 
ATOM      5  C   UNL     1      -1.431  -0.277  25.700  0.00  0.00    +0.023 A 
ATOM      6  C   UNL     1      -1.380   0.158  25.001  0.00  0.00    +0.127 A 
ATOM      7  C   UNL     1      -0.931  -0.125  24.370  0.00  0.00    +0.023 A 
ATOM      8  C   UNL     1      -0.533  -0.844  24.438  0.00  0.00    +0.038 A 
BRANCH   3   2
ATOM      1  C   UNL     1      -0.586  -2.706  25.064  0.00  0.00    +0.252 C 
ATOM      2  O   UNL     1      -0.185  -1.999  25.204  0.00  0.00    -0.471 OA
ENDBRANCH   3   2
ENDBRANCH   9   6
ENDBRANCH  12   9
ENDBRANCH  13  12
TORSDOF 6
ENDMDL
MODEL 6
REMARK VINA RESULT:     -12.9      1.711      2.174
REMARK  Name = 
REMARK  6 active torsions:
REMARK  status: ('A' for Active; 'I' for Inactive)
REMARK    1  A    between atoms: O_2  and  C_3
REMARK    2  A    between atoms: C_6  and  S_9
REMARK    3  A    between atoms: S_9  and  N_12
REMARK    4  A    between atoms: N_12  and  C_13
REMARK    5  A    between atoms: N_25  and  C_26
REMARK    6  A    between atoms: C_29  and  C_32
REMARK                            x       y       z     vdW  Elec       q    Type
REMARK                         _______ _______ _______ _____ _____    ______ ____
ROOT
ATOM     13  C   UNL     1      -3.303   1.358  24.810  0.00  0.00    +0.147 A 
ATOM     14  C   UNL     1      -3.666   0.619  24.747  0.00  0.00    +0.024 A 
ATOM     15  C   UNL     1      -4.480   0.548  24.863  0.00  0.00    +0.014 A 
ATOM     16  C   UNL     1      -4.930   1.216  25.041  0.00  0.00    +0.041 A 
ATOM     17  C   UNL     1      -5.797   1.465  25.217  0.00  0.00    +0.058 C 
ATOM     18  C   UNL     1      -6.445   1.201  25.276  0.00  0.00    +0.011 C 
ATOM     19  C   UNL     1      -6.083   1.929  25.337  0.00  0.00    +0.043 C 
ATOM     20  C   UNL     1      -5.835   2.878  25.451  0.00  0.00    +0.097 C 
ATOM     21  N   UNL     1      -5.013   2.826  25.314  0.00  0.00    -0.262 N 
ATOM     22  C   UNL     1      -5.573   2.387  25.331  0.00  0.00    +0.101 C 
ATOM     23  C   UNL     1      -4.229   3.071  25.231  0.00  0.00    +0.327 C 
ATOM     24  O   UNL     1      -3.641   2.520  25.051  0.00  0.00    -0.250 OA
ATOM     25  N   UNL     1      -4.033   3.866  25.329  0.00  0.00    -0.162 NA
ATOM     35  C   UNL     1      -5.175   1.677  25.154  0.00  0.00    +0.110 C 
ATOM     36  N   UNL     1      -4.567   1.954  25.104  0.00  0.00    -0.298 N 
ATOM     37  C   UNL     1      -3.754   2.025  24.988  0.00  0.00    +0.277 A 
ATOM     38  O   UNL     1      -3.183   2.621  24.995  0.00  0.00    -0.266 OA
ENDROOT
BRANCH  25  26
ATOM     26  C   UNL     1      -3.250   4.111  25.247  0.00  0.00    +0.075 A 
ATOM     27  C   UNL     1      -2.760   4.161  25.910  0.00  0.00    +0.017 A 
ATOM     28  C   UNL     1      -1.977   4.406  25.826  0.00  0.00    +0.004 A 
ATOM     29  C   UNL     1      -1.683   4.601  25.080  0.00  0.00    +0.035 A 
ATOM     30  C   UNL     1      -2.172   4.551  24.418  0.00  0.00    +0.004 A 
ATOM     31  C   UNL     1      -2.955   4.306  24.500  0.00  0.00    +0.017 A 
BRANCH  29  32
ATOM     32  C   UNL     1      -0.900   4.846  24.998  0.00  0.00    +0.173 C 
ATOM     33  C   UNL     1      -0.296   4.286  24.947  0.00  0.00    +0.077 C 
ATOM     34  O   UNL     1      -0.719   5.650  24.966  0.00  0.00    -0.291 OA
ENDBRANCH  29  32
ENDBRANCH  25  26
BRANCH  13  12
ATOM     12  N   UNL     1      -2.490   1.428  24.694  0.00  0.00    -0.092 NA
BRANCH  12   9
ATOM      9  S   UNL     1      -2.003   0.766  24.770  0.00  0.00    +0.093 S 
ATOM     10  O   UNL     1      -1.910   0.926  25.573  0.00  0.00    -0.148 OA
ATOM     11  O   UNL     1      -2.097   0.605  23.966  0.00  0.00    -0.148 OA
BRANCH   9   6
ATOM      3  C   UNL     1      -0.544  -1.220  24.999  0.00  0.00    +0.139 A 
ATOM      4  C   UNL     1      -1.043  -1.001  25.619  0.00  0.00    +0.038 A 
ATOM      5  C   UNL     1      -1.529  -0.339  25.542  0.00  0.00    +0.023 A 
ATOM      6  C   UNL     1      -1.516   0.103  24.846  0.00  0.00    +0.127 A 
ATOM      7  C   UNL     1      -1.018  -0.116  24.226  0.00  0.00    +0.023 A 
ATOM      8  C   UNL     1      -0.532  -0.778  24.303  0.00  0.00    +0.038 A 
BRANCH   3   2
ATOM      1  C   UNL     1      -0.369  -2.591  25.363  0.00  0.00    +0.252 C 
ATOM      2  O   UNL     1      -0.058  -1.882  25.076  0.00  0.00    -0.471 OA
ENDBRANCH   3   2
ENDBRANCH   9   6
ENDBRANCH  12   9
ENDBRANCH  13  12
TORSDOF 6
ENDMDL
MODEL 7
REMARK VINA RESULT:     -12.5      1.803      3.795
REMARK  Name = 
REMARK  6 active torsions:
REMARK  status: ('A' for Active; 'I' for Inactive)
REMARK    1  A    between atoms: O_2  and  C_3
REMARK    2  A    between atoms: C_6  and  S_9
REMARK    3  A    between atoms: S_9  and  N_12
REMARK    4  A    between atoms: N_12  and  C_13
REMARK    5  A    between atoms: N_25  and  C_26
REMARK    6  A    between atoms: C_29  and  C_32
REMARK                            x       y       z     vdW  Elec       q    Type
REMARK                         _______ _______ _______ _____ _____    ______ ____
ROOT
ATOM     13  C   UNL     1      -1.790   0.752  24.486  0.00  0.00    +0.147 A 
ATOM     14  C   UNL     1      -1.713  -0.055  24.336  0.00  0.00    +0.024 A 
ATOM     15  C   UNL     1      -2.377  -0.545  24.360  0.00  0.00    +0.014 A 
ATOM     16  C   UNL     1      -3.117  -0.227  24.535  0.00  0.00    +0.041 A 
ATOM     17  C   UNL     1      -3.996  -0.477  24.636  0.00  0.00    +0.058 C 
ATOM     18  C   UNL     1      -4.415  -1.040  24.608  0.00  0.00    +0.011 C 
ATOM     19  C   UNL     1      -4.487  -0.242  24.756  0.00  0.00    +0.043 C 
ATOM     20  C   UNL     1      -4.775   0.681  24.960  0.00  0.00    +0.097 C 
ATOM     21  N   UNL     1      -4.038   1.072  24.907  0.00  0.00    -0.262 N 
ATOM     22  C   UNL     1      -4.290   0.409  24.835  0.00  0.00    +0.101 C 
ATOM     23  C   UNL     1      -3.493   1.691  24.924  0.00  0.00    +0.327 C 
ATOM     24  O   UNL     1      -2.696   1.543  24.769  0.00  0.00    -0.250 OA
ATOM     25  N   UNL     1      -3.744   2.457  25.096  0.00  0.00    -0.162 NA
ATOM     35  C   UNL     1      -3.572   0.029  24.653  0.00  0.00    +0.110 C 
ATOM     36  N   UNL     1      -3.194   0.581  24.686  0.00  0.00    -0.298 N 
ATOM     37  C   UNL     1      -2.531   1.070  24.661  0.00  0.00    +0.277 A 
ATOM     38  O   UNL     1      -2.354   1.869  24.769  0.00  0.00    -0.266 OA
ENDROOT
BRANCH  25  26
ATOM     26  C   UNL     1      -3.198   3.076  25.112  0.00  0.00    +0.075 A 
ATOM     27  C   UNL     1      -2.794   3.251  25.811  0.00  0.00    +0.017 A 
ATOM     28  C   UNL     1      -2.249   3.870  25.827  0.00  0.00    +0.004 A 
ATOM     29  C   UNL     1      -2.107   4.314  25.145  0.00  0.00    +0.035 A 
ATOM     30  C   UNL     1      -2.511   4.139  24.448  0.00  0.00    +0.004 A 
ATOM     31  C   UNL     1      -3.057   3.521  24.431  0.00  0.00    +0.017 A 
BRANCH  29  32
ATOM     32  C   UNL     1      -1.562   4.932  25.163  0.00  0.00    +0.173 C 
ATOM     33  C   UNL     1      -0.772   4.791  24.967  0.00  0.00    +0.077 C 
ATOM     34  O   UNL     1      -1.804   5.691  25.375  0.00  0.00    -0.291 OA
ENDBRANCH  29  32
ENDBRANCH  25  26
BRANCH  13  12
ATOM     12  N   UNL     1      -1.127   1.241  24.462  0.00  0.00    -0.092 NA
BRANCH  12   9
ATOM      9  S   UNL     1      -0.436   0.982  24.092  0.00  0.00    +0.093 S 
ATOM     10  O   UNL     1      -0.712   1.275  23.372  0.00  0.00    -0.148 OA
ATOM     11  O   UNL     1      -0.161   0.688  24.812  0.00  0.00    -0.148 OA
BRANCH   9   6
ATOM      3  C   UNL     1       1.634   0.205  22.981  0.00  0.00    +0.139 A 
ATOM      4  C   UNL     1       1.631   0.919  23.395  0.00  0.00    +0.038 A 
ATOM      5  C   UNL     1       0.941   1.177  23.765  0.00  0.00    +0.023 A 
ATOM      6  C   UNL     1       0.254   0.722  23.721  0.00  0.00    +0.127 A 
ATOM      7  C   UNL     1       0.257   0.009  23.307  0.00  0.00    +0.023 A 
ATOM      8  C   UNL     1       0.947  -0.250  22.937  0.00  0.00    +0.038 A 
BRANCH   3   2
ATOM      1  C   UNL     1       2.996   0.426  22.608  0.00  0.00    +0.252 C 
ATOM      2  O   UNL     1       2.325  -0.053  22.610  0.00  0.00    -0.471 OA
ENDBRANCH   3   2
ENDBRANCH   9   6
ENDBRANCH  12   9
ENDBRANCH  13  12
TORSDOF 6
ENDMDL
MODEL 8
REMARK VINA RESULT:     -11.6      1.112      4.116
REMARK  Name = 
REMARK  6 active torsions:
REMARK  status: ('A' for Active; 'I' for Inactive)
REMARK    1  A    between atoms: O_2  and  C_3
REMARK    2  A    between atoms: C_6  and  S_9
REMARK    3  A    between atoms: S_9  and  N_12
REMARK    4  A    between atoms: N_12  and  C_13
REMARK    5  A    between atoms: N_25  and  C_26
REMARK    6  A    between atoms: C_29  and  C_32
REMARK                            x       y       z     vdW  Elec       q    Type
REMARK                         _______ _______ _______ _____ _____    ______ ____
ROOT
ATOM     13  C   UNL     1      -3.104   1.889  24.869  0.00  0.00    +0.147 A 
ATOM     14  C   UNL     1      -3.082   2.710  24.950  0.00  0.00    +0.024 A 
ATOM     15  C   UNL     1      -3.782   3.133  25.061  0.00  0.00    +0.014 A 
ATOM     16  C   UNL     1      -4.504   2.734  25.091  0.00  0.00    +0.041 A 
ATOM     17  C   UNL     1      -5.403   2.893  25.195  0.00  0.00    +0.058 C 
ATOM     18  C   UNL     1      -5.862   3.415  25.292  0.00  0.00    +0.011 C 
ATOM     19  C   UNL     1      -5.880   2.604  25.212  0.00  0.00    +0.043 C 
ATOM     20  C   UNL     1      -6.105   1.645  25.137  0.00  0.00    +0.097 C 
ATOM     21  N   UNL     1      -5.339   1.330  25.030  0.00  0.00    -0.262 N 
ATOM     22  C   UNL     1      -5.636   1.970  25.124  0.00  0.00    +0.101 C 
ATOM     23  C   UNL     1      -4.748   0.764  24.915  0.00  0.00    +0.327 C 
ATOM     24  O   UNL     1      -3.958   0.998  24.862  0.00  0.00    -0.250 OA
ATOM     25  N   UNL     1      -4.947  -0.033  24.854  0.00  0.00    -0.162 NA
ATOM     35  C   UNL     1      -4.942   2.429  25.103  0.00  0.00    +0.110 C 
ATOM     36  N   UNL     1      -4.525   1.913  25.010  0.00  0.00    -0.298 N 
ATOM     37  C   UNL     1      -3.825   1.491  24.899  0.00  0.00    +0.277 A 
ATOM     38  O   UNL     1      -3.593   0.706  24.797  0.00  0.00    -0.266 OA
ENDROOT
BRANCH  25  26
ATOM     26  C   UNL     1      -4.357  -0.598  24.739  0.00  0.00    +0.075 A 
ATOM     27  C   UNL     1      -4.004  -0.965  25.390  0.00  0.00    +0.017 A 
ATOM     28  C   UNL     1      -3.414  -1.529  25.274  0.00  0.00    +0.004 A 
ATOM     29  C   UNL     1      -3.176  -1.728  24.509  0.00  0.00    +0.035 A 
ATOM     30  C   UNL     1      -3.529  -1.362  23.860  0.00  0.00    +0.004 A 
ATOM     31  C   UNL     1      -4.119  -0.797  23.974  0.00  0.00    +0.017 A 
BRANCH  29  32
ATOM     32  C   UNL     1      -2.586  -2.293  24.395  0.00  0.00    +0.173 C 
ATOM     33  C   UNL     1      -1.792  -2.081  24.473  0.00  0.00    +0.077 C 
ATOM     34  O   UNL     1      -2.788  -3.069  24.203  0.00  0.00    -0.291 OA
ENDBRANCH  29  32
ENDBRANCH  25  26
BRANCH  13  12
ATOM     12  N   UNL     1      -2.404   1.468  24.758  0.00  0.00    -0.092 NA
BRANCH  12   9
ATOM      9  S   UNL     1      -1.704   1.731  25.107  0.00  0.00    +0.093 S 
ATOM     10  O   UNL     1      -1.876   1.291  25.783  0.00  0.00    -0.148 OA
ATOM     11  O   UNL     1      -1.533   2.171  24.431  0.00  0.00    -0.148 OA
BRANCH   9   6
ATOM      3  C   UNL     1       0.395   2.518  26.156  0.00  0.00    +0.139 A 
ATOM      4  C   UNL     1      -0.278   2.401  26.618  0.00  0.00    +0.038 A 
ATOM      5  C   UNL     1      -0.978   2.139  26.268  0.00  0.00    +0.023 A 
ATOM      6  C   UNL     1      -1.004   1.994  25.457  0.00  0.00    +0.127 A 
ATOM      7  C   UNL     1      -0.331   2.111  24.995  0.00  0.00    +0.023 A 
ATOM      8  C   UNL     1       0.369   2.373  25.344  0.00  0.00    +0.038 A 
BRANCH   3   2
ATOM      1  C   UNL     1       1.172   2.775  27.327  0.00  0.00    +0.252 C 
ATOM      2  O   UNL     1       1.094   2.781  26.506  0.00  0.00    -0.471 OA
ENDBRANCH   3   2
ENDBRANCH   9   6
ENDBRANCH  12   9
ENDBRANCH  13  12
TORSDOF 6
ENDMDL
