MODEL 1
REMARK VINA RESULT:     -11.2      0.000      0.000
REMARK  Name = 
REMARK  6 active torsions:
REMARK  status: ('A' for Active; 'I' for Inactive)
REMARK    1  A    between atoms: O_2  and  C_3
REMARK    2  A    between atoms: C_6  and  C_7
REMARK    3  A    between atoms: C_7  and  N_8
REMARK    4  A    between atoms: N_8  and  C_9
REMARK    5  A    between atoms: C_15  and  N_18
REMARK    6  A    between atoms: C_21  and  C_24
REMARK                            x       y       z     vdW  Elec       q    Type
REMARK                         _______ _______ _______ _____ _____    ______ ____
ROOT
ATOM      9  C   UNL     1      -3.308   1.273  24.714  0.00  0.00    +0.135 C 
ATOM     10  C   UNL     1      -4.183   0.977  24.817  0.00  0.00    +0.166 C 
ATOM     11  C   UNL     1      -4.276   0.204  24.801  0.00  0.00    +0.176 C 
ATOM     12  O   UNL     1      -4.751  -0.343  24.843  0.00  0.00    -0.327 OA
ATOM     13  C   UNL     1      -4.470   0.494  24.837  0.00  0.00    +0.253 C 
ATOM     14  O   UNL     1      -4.843   1.226  24.912  0.00  0.00    -0.328 OA
ATOM     15  C   UNL     1      -3.551   0.788  24.728  0.00  0.00    +0.147 C 
ATOM     16  C   UNL     1      -2.936   0.536  24.639  0.00  0.00    +0.190 C 
ATOM     17  O   UNL     1      -2.334  -0.019  24.540  0.00  0.00    -0.220 OA
ENDROOT
BRANCH  15  18
ATOM     18  N   UNL     1      -3.586  -0.035  24.703  0.00  0.00    -0.268 NA
ATOM     19  C   UNL     1      -3.718  -0.421  23.985  0.00  0.00    +0.073 C 
ATOM     20  C   UNL     1      -3.753  -1.245  23.960  0.00  0.00    +0.027 C 
ATOM     21  C   UNL     1      -3.656  -1.683  24.652  0.00  0.00    +0.083 C 
ATOM     22  C   UNL     1      -3.524  -1.298  25.369  0.00  0.00    +0.027 C 
ATOM     23  C   UNL     1      -3.489  -0.474  25.394  0.00  0.00    +0.073 C 
BRANCH  21  24
ATOM     24  C   UNL     1      -3.690  -2.507  24.627  0.00  0.00    +0.260 C 
ATOM     25  N   UNL     1      -3.924  -2.890  23.934  0.00  0.00    -0.088 NA
ATOM     26  O   UNL     1      -3.492  -2.950  25.295  0.00  0.00    -0.272 OA
ENDBRANCH  21  24
ENDBRANCH  15  18
BRANCH   9   8
ATOM      8  N   UNL     1      -2.997   2.037  24.701  0.00  0.00    -0.209 NA
BRANCH   8   7
ATOM      7  C   UNL     1      -2.511   2.295  25.316  0.00  0.00    +0.115 C 
BRANCH   7   6
ATOM      3  C   UNL     1      -1.570   4.583  25.273  0.00  0.00    +0.139 A 
ATOM      4  C   UNL     1      -1.110   3.943  25.030  0.00  0.00    +0.037 A 
ATOM      5  C   UNL     1      -1.423   3.181  25.044  0.00  0.00    +0.000 A 
ATOM      6  C   UNL     1      -2.197   3.057  25.301  0.00  0.00    -0.005 A 
ATOM     27  C   UNL     1      -2.658   3.697  25.545  0.00  0.00    +0.000 A 
ATOM     28  C   UNL     1      -2.344   4.460  25.531  0.00  0.00    +0.037 A 
BRANCH   3   2
ATOM      1  C   UNL     1      -0.751   5.573  24.647  0.00  0.00    +0.252 C 
ATOM      2  O   UNL     1      -1.256   5.347  25.259  0.00  0.00    -0.471 OA
ENDBRANCH   3   2
ENDBRANCH   7   6
ENDBRANCH   8   7
ENDBRANCH   9   8
TORSDOF 6
ENDMDL
MODEL 2
REMARK VINA RESULT:     -11.0      1.284      5.120
REMARK  Name = 
REMARK  6 active torsions:
REMARK  status: ('A' for Active; 'I' for Inactive)
REMARK    1  A    between atoms: O_2  and  C_3
REMARK    2  A    between atoms: C_6  and  C_7
REMARK    3  A    between atoms: C_7  and  N_8
REMARK    4  A    between atoms: N_8  and  C_9
REMARK    5  A    between atoms: C_15  and  N_18
REMARK    6  A    between atoms: C_21  and  C_24
REMARK                            x       y       z     vdW  Elec       q    Type
REMARK                         _______ _______ _______ _____ _____    ______ ____
ROOT
ATOM      9  C   UNL     1      -3.610   1.618  24.464  0.00  0.00    +0.135 C 
ATOM     10  C   UNL     1      -4.101   2.404  24.401  0.00  0.00    +0.166 C 
ATOM     11  C   UNL     1      -3.705   3.056  24.556  0.00  0.00    +0.176 C 
ATOM     12  O   UNL     1      -3.738   3.779  24.605  0.00  0.00    -0.327 OA
ATOM     13  C   UNL     1      -4.029   2.958  24.464  0.00  0.00    +0.253 C 
ATOM     14  O   UNL     1      -4.758   2.636  24.250  0.00  0.00    -0.328 OA
ATOM     15  C   UNL     1      -3.503   2.145  24.534  0.00  0.00    +0.147 C 
ATOM     16  C   UNL     1      -2.880   1.944  24.679  0.00  0.00    +0.190 C 
ATOM     17  O   UNL     1      -2.083   1.986  24.889  0.00  0.00    -0.220 OA
ENDROOT
BRANCH  15  18
ATOM     18  N   UNL     1      -3.032   2.799  24.709  0.00  0.00    -0.268 NA
ATOM     19  C   UNL     1      -2.578   3.151  24.116  0.00  0.00    +0.073 C 
ATOM     20  C   UNL     1      -2.107   3.805  24.291  0.00  0.00    +0.027 C 
ATOM     21  C   UNL     1      -2.089   4.107  25.058  0.00  0.00    +0.083 C 
ATOM     22  C   UNL     1      -2.542   3.756  25.651  0.00  0.00    +0.027 C 
ATOM     23  C   UNL     1      -3.014   3.102  25.476  0.00  0.00    +0.073 C 
BRANCH  21  24
ATOM     24  C   UNL     1      -1.618   4.761  25.233  0.00  0.00    +0.260 C 
ATOM     25  N   UNL     1      -0.831   4.781  24.986  0.00  0.00    -0.088 NA
ATOM     26  O   UNL     1      -1.932   5.396  25.656  0.00  0.00    -0.272 OA
ENDBRANCH  21  24
ENDBRANCH  15  18
BRANCH   9   8
ATOM      8  N   UNL     1      -3.834   0.833  24.343  0.00  0.00    -0.209 NA
BRANCH   8   7
ATOM      7  C   UNL     1      -3.910   0.321  24.987  0.00  0.00    +0.115 C 
BRANCH   7   6
ATOM      3  C   UNL     1      -3.816  -2.126  24.638  0.00  0.00    +0.139 A 
ATOM      4  C   UNL     1      -3.509  -1.796  25.329  0.00  0.00    +0.037 A 
ATOM      5  C   UNL     1      -3.540  -0.980  25.445  0.00  0.00    +0.000 A 
ATOM      6  C   UNL     1      -3.878  -0.494  24.871  0.00  0.00    -0.005 A 
ATOM     27  C   UNL     1      -4.186  -0.825  24.180  0.00  0.00    +0.000 A 
ATOM     28  C   UNL     1      -4.155  -1.641  24.063  0.00  0.00    +0.037 A 
BRANCH   3   2
ATOM      1  C   UNL     1      -3.057  -3.317  24.416  0.00  0.00    +0.252 C 
ATOM      2  O   UNL     1      -3.785  -2.943  24.522  0.00  0.00    -0.471 OA
ENDBRANCH   3   2
ENDBRANCH   7   6
ENDBRANCH   8   7
ENDBRANCH   9   8
TORSDOF 6
ENDMDL
MODEL 3
REMARK VINA RESULT:     -10.8      1.421      5.423
REMARK  Name = 
REMARK  6 active torsions:
REMARK  status: ('A' for Active; 'I' for Inactive)
REMARK    1  A    between atoms: O_2  and  C_3
REMARK    2  A    between atoms: C_6  and  C_7
REMARK    3  A    between atoms: C_7  and  N_8
REMARK    4  A    between atoms: N_8  and  C_9
REMARK    5  A    between atoms: C_15  and  N_18
REMARK    6  A    between atoms: C_21  and  C_24
REMARK                            x       y       z     vdW  Elec       q    Type
REMARK                         _______ _______ _______ _____ _____    ______ ____
ROOT
ATOM      9  C   UNL     1      -1.821   1.303  24.946  0.00  0.00    +0.135 C 
ATOM     10  C   UNL     1      -1.133   1.554  25.516  0.00  0.00    +0.166 C 
ATOM     11  C   UNL     1      -0.982   2.317  25.538  0.00  0.00    +0.176 C 
ATOM     12  O   UNL     1      -0.568   2.837  25.828  0.00  0.00    -0.327 OA
ATOM     13  C   UNL     1      -0.866   2.020  25.683  0.00  0.00    +0.253 C 
ATOM     14  O   UNL     1      -0.662   1.274  25.971  0.00  0.00    -0.328 OA
ATOM     15  C   UNL     1      -1.588   1.772  25.083  0.00  0.00    +0.147 C 
ATOM     16  C   UNL     1      -2.025   2.053  24.658  0.00  0.00    +0.190 C 
ATOM     17  O   UNL     1      -2.419   2.635  24.226  0.00  0.00    -0.220 OA
ENDROOT
BRANCH  15  18
ATOM     18  N   UNL     1      -1.476   2.589  25.064  0.00  0.00    -0.268 NA
ATOM     19  C   UNL     1      -1.900   3.077  25.578  0.00  0.00    +0.073 C 
ATOM     20  C   UNL     1      -1.788   3.894  25.559  0.00  0.00    +0.027 C 
ATOM     21  C   UNL     1      -1.251   4.223  25.026  0.00  0.00    +0.083 C 
ATOM     22  C   UNL     1      -0.827   3.737  24.513  0.00  0.00    +0.027 C 
ATOM     23  C   UNL     1      -0.939   2.920  24.532  0.00  0.00    +0.073 C 
BRANCH  21  24
ATOM     24  C   UNL     1      -1.138   5.041  25.007  0.00  0.00    +0.260 C 
ATOM     25  N   UNL     1      -1.726   5.545  25.290  0.00  0.00    -0.088 NA
ATOM     26  O   UNL     1      -0.437   5.354  24.704  0.00  0.00    -0.272 OA
ENDBRANCH  21  24
ENDBRANCH  15  18
BRANCH   9   8
ATOM      8  N   UNL     1      -2.136   0.558  24.776  0.00  0.00    -0.209 NA
BRANCH   8   7
ATOM      7  C   UNL     1      -2.911   0.379  24.995  0.00  0.00    +0.115 C 
BRANCH   7   6
ATOM      3  C   UNL     1      -3.867  -1.837  24.449  0.00  0.00    +0.139 A 
ATOM      4  C   UNL     1      -3.436  -1.734  25.145  0.00  0.00    +0.037 A 
ATOM      5  C   UNL     1      -3.117  -0.996  25.327  0.00  0.00    +0.000 A 
ATOM      6  C   UNL     1      -3.229  -0.360  24.813  0.00  0.00    -0.005 A 
ATOM     27  C   UNL     1      -3.661  -0.463  24.117  0.00  0.00    +0.000 A 
ATOM     28  C   UNL     1      -3.980  -1.202  23.935  0.00  0.00    +0.037 A 
BRANCH   3   2
ATOM      1  C   UNL     1      -3.694  -3.236  24.214  0.00  0.00    +0.252 C 
ATOM      2  O   UNL     1      -4.186  -2.577  24.267  0.00  0.00    -0.471 OA
ENDBRANCH   3   2
ENDBRANCH   7   6
ENDBRANCH   8   7
ENDBRANCH   9   8
TORSDOF 6
ENDMDL
