MODEL 1
REMARK VINA RESULT:     -14.2      0.000      0.000
REMARK  Name = 
REMARK  5 active torsions:
REMARK  status: ('A' for Active; 'I' for Inactive)
REMARK    1  A    between atoms: C_1  and  N_2
REMARK    2  A    between atoms: C_1  and  C_16
REMARK    3  A    between atoms: C_7  and  O_9
REMARK    4  A    between atoms: O_9  and  C_10
REMARK    5  A    between atoms: C_19  and  C_22
REMARK                            x       y       z     vdW  Elec       q    Type
REMARK                         _______ _______ _______ _____ _____    ______ ____
ROOT
ATOM      2  N   UNL     1      -3.820   2.860  24.697  0.00  0.00    -0.264 NA
ATOM      3  C   UNL     1      -4.346   3.079  25.294  0.00  0.00    +0.105 C 
ATOM      4  C   UNL     1      -4.214   3.578  25.938  0.00  0.00    +0.160 C 
ATOM      5  O   UNL     1      -3.525   3.983  26.143  0.00  0.00    -0.348 OA
ATOM      6  C   UNL     1      -2.796   3.987  25.755  0.00  0.00    +0.187 C 
ATOM      7  C   UNL     1      -2.578   3.588  25.067  0.00  0.00    +0.211 C 
ATOM      8  C   UNL     1      -3.033   3.087  24.596  0.00  0.00    +0.119 C 
ENDROOT
BRANCH   2   1
ATOM      1  C   UNL     1      -4.121   2.347  24.126  0.00  0.00    +0.099 C 
BRANCH   1  16
ATOM     16  C   UNL     1      -4.045   1.531  24.223  0.00  0.00    -0.006 A 
ATOM     17  C   UNL     1      -4.478   1.143  24.807  0.00  0.00    -0.003 A 
ATOM     18  C   UNL     1      -4.402   0.327  24.904  0.00  0.00    -0.000 A 
ATOM     19  C   UNL     1      -3.893  -0.100  24.416  0.00  0.00    -0.000 A 
ATOM     20  C   UNL     1      -3.459   0.288  23.831  0.00  0.00    -0.000 A 
ATOM     21  C   UNL     1      -3.535   1.104  23.734  0.00  0.00    -0.003 A 
BRANCH  19  22
ATOM     22  C   UNL     1      -3.817  -0.916  24.513  0.00  0.00    -0.000 A 
ATOM     23  C   UNL     1      -3.440  -1.219  25.182  0.00  0.00    -0.000 A 
ATOM     24  C   UNL     1      -3.364  -2.034  25.278  0.00  0.00    +0.000 A 
ATOM     25  C   UNL     1      -3.665  -2.547  24.706  0.00  0.00    +0.000 A 
ATOM     26  C   UNL     1      -4.042  -2.245  24.037  0.00  0.00    +0.000 A 
ATOM     27  C   UNL     1      -4.117  -1.429  23.941  0.00  0.00    -0.000 A 
ENDBRANCH  19  22
ENDBRANCH   1  16
ENDBRANCH   2   1
BRANCH   7   9
ATOM      9  O   UNL     1      -1.800   3.707  24.816  0.00  0.00    -0.475 OA
BRANCH   9  10
ATOM     10  C   UNL     1      -1.201   3.205  25.080  0.00  0.00    +0.139 A 
ATOM     11  C   UNL     1      -0.763   2.766  24.535  0.00  0.00    +0.037 A 
ATOM     12  C   UNL     1      -0.163   2.264  24.799  0.00  0.00    +0.003 A 
ATOM     13  C   UNL     1      -0.001   2.202  25.606  0.00  0.00    +0.000 A 
ATOM     14  C   UNL     1      -0.440   2.641  26.149  0.00  0.00    +0.003 A 
ATOM     15  C   UNL     1      -1.039   3.143  25.886  0.00  0.00    +0.037 A 
ENDBRANCH   9  10
ENDBRANCH   7   9
TORSDOF 5
ENDMDL
MODEL 2
REMARK VINA RESULT:     -12.7      1.671      2.864
REMARK  Name = 
REMARK  5 active torsions:
REMARK  status: ('A' for Active; 'I' for Inactive)
REMARK    1  A    between atoms: C_1  and  N_2
REMARK    2  A    between atoms: C_1  and  C_16
REMARK    3  A    between atoms: C_7  and  O_9
REMARK    4  A    between atoms: O_9  and  C_10
REMARK    5  A    between atoms: C_19  and  C_22
REMARK                            x       y       z     vdW  Elec       q    Type
REMARK                         _______ _______ _______ _____ _____    ______ ____
ROOT
ATOM      2  N   UNL     1      -0.502   0.945  25.344  0.00  0.00    -0.264 NA
ATOM      3  C   UNL     1      -0.157   0.780  24.612  0.00  0.00    +0.105 C 
ATOM      4  C   UNL     1       0.158   1.308  24.062  0.00  0.00    +0.160 C 
ATOM      5  O   UNL     1       0.207   2.130  24.106  0.00  0.00    -0.348 OA
ATOM      6  C   UNL     1      -0.048   2.629  24.713  0.00  0.00    +0.187 C 
ATOM      7  C   UNL     1      -0.415   2.427  25.424  0.00  0.00    +0.211 C 
ATOM      8  C   UNL     1      -0.617   1.678  25.705  0.00  0.00    +0.119 C 
ENDROOT
BRANCH   2   1
ATOM      1  C   UNL     1      -0.767   0.291  25.770  0.00  0.00    +0.099 C 
BRANCH   1  16
ATOM     16  C   UNL     1      -1.369  -0.184  25.464  0.00  0.00    -0.006 A 
ATOM     17  C   UNL     1      -2.158   0.012  25.599  0.00  0.00    -0.003 A 
ATOM     18  C   UNL     1      -2.760  -0.464  25.294  0.00  0.00    -0.000 A 
ATOM     19  C   UNL     1      -2.570  -1.135  24.854  0.00  0.00    -0.000 A 
ATOM     20  C   UNL     1      -1.781  -1.331  24.719  0.00  0.00    -0.000 A 
ATOM     21  C   UNL     1      -1.180  -0.856  25.024  0.00  0.00    -0.003 A 
BRANCH  19  22
ATOM     22  C   UNL     1      -3.172  -1.610  24.549  0.00  0.00    -0.000 A 
ATOM     23  C   UNL     1      -3.765  -1.277  24.081  0.00  0.00    -0.000 A 
ATOM     24  C   UNL     1      -4.365  -1.753  23.776  0.00  0.00    +0.000 A 
ATOM     25  C   UNL     1      -4.374  -2.561  23.938  0.00  0.00    +0.000 A 
ATOM     26  C   UNL     1      -3.782  -2.895  24.406  0.00  0.00    +0.000 A 
ATOM     27  C   UNL     1      -3.181  -2.420  24.711  0.00  0.00    -0.000 A 
ENDBRANCH  19  22
ENDBRANCH   1  16
ENDBRANCH   2   1
BRANCH   7   9
ATOM      9  O   UNL     1      -0.604   3.059  25.920  0.00  0.00    -0.475 OA
BRANCH   9  10
ATOM     10  C   UNL     1      -1.178   3.606  25.691  0.00  0.00    +0.139 A 
ATOM     11  C   UNL     1      -1.971   3.472  25.874  0.00  0.00    +0.037 A 
ATOM     12  C   UNL     1      -2.544   4.020  25.645  0.00  0.00    +0.003 A 
ATOM     13  C   UNL     1      -2.324   4.700  25.233  0.00  0.00    +0.000 A 
ATOM     14  C   UNL     1      -1.531   4.833  25.051  0.00  0.00    +0.003 A 
ATOM     15  C   UNL     1      -0.957   4.286  25.280  0.00  0.00    +0.037 A 
ENDBRANCH   9  10
ENDBRANCH   7   9
TORSDOF 5
ENDMDL
MODEL 3
REMARK VINA RESULT:     -12.4      1.213      2.733
REMARK  Name = 
REMARK  5 active torsions:
REMARK  status: ('A' for Active; 'I' for Inactive)
REMARK    1  A    between atoms: C_1  and  N_2
REMARK    2  A    between atoms: C_1  and  C_16
REMARK    3  A    between atoms: C_7  and  O_9
REMARK    4  A    between atoms: O_9  and  C_10
REMARK    5  A    between atoms: C_19  and  C_22
REMARK                            x       y       z     vdW  Elec       q    Type
REMARK                         _______ _______ _______ _____ _____    ______ ____
ROOT
ATOM      2  N   UNL     1      -2.055   2.610  24.772  0.00  0.00    -0.264 NA
ATOM      3  C   UNL     1      -1.551   2.901  25.357  0.00  0.00    +0.105 C 
ATOM      4  C   UNL     1      -1.698   3.491  25.915  0.00  0.00    +0.160 C 
ATOM      5  O   UNL     1      -2.384   3.935  26.026  0.00  0.00    -0.348 OA
ATOM      6  C   UNL     1      -3.093   3.899  25.606  0.00  0.00    +0.187 C 
ATOM      7  C   UNL     1      -3.291   3.411  24.972  0.00  0.00    +0.211 C 
ATOM      8  C   UNL     1      -2.829   2.836  24.600  0.00  0.00    +0.119 C 
ENDROOT
BRANCH   2   1
ATOM      1  C   UNL     1      -1.743   2.014  24.295  0.00  0.00    +0.099 C 
BRANCH   1  16
ATOM     16  C   UNL     1      -1.982   1.231  24.403  0.00  0.00    -0.006 A 
ATOM     17  C   UNL     1      -2.402   0.843  23.808  0.00  0.00    -0.003 A 
ATOM     18  C   UNL     1      -2.642   0.061  23.916  0.00  0.00    -0.000 A 
ATOM     19  C   UNL     1      -2.461  -0.332  24.618  0.00  0.00    -0.000 A 
ATOM     20  C   UNL     1      -2.042   0.056  25.212  0.00  0.00    -0.000 A 
ATOM     21  C   UNL     1      -1.802   0.838  25.105  0.00  0.00    -0.003 A 
BRANCH  19  22
ATOM     22  C   UNL     1      -2.701  -1.114  24.726  0.00  0.00    -0.000 A 
ATOM     23  C   UNL     1      -3.435  -1.279  25.066  0.00  0.00    -0.000 A 
ATOM     24  C   UNL     1      -3.674  -2.060  25.173  0.00  0.00    +0.000 A 
ATOM     25  C   UNL     1      -3.180  -2.679  24.941  0.00  0.00    +0.000 A 
ATOM     26  C   UNL     1      -2.446  -2.515  24.600  0.00  0.00    +0.000 A 
ATOM     27  C   UNL     1      -2.207  -1.734  24.493  0.00  0.00    -0.000 A 
ENDBRANCH  19  22
ENDBRANCH   1  16
ENDBRANCH   2   1
BRANCH   7   9
ATOM      9  O   UNL     1      -4.053   3.509  24.669  0.00  0.00    -0.475 OA
BRANCH   9  10
ATOM     10  C   UNL     1      -4.679   3.066  24.973  0.00  0.00    +0.139 A 
ATOM     11  C   UNL     1      -5.043   2.491  24.506  0.00  0.00    +0.037 A 
ATOM     12  C   UNL     1      -5.668   2.048  24.810  0.00  0.00    +0.003 A 
ATOM     13  C   UNL     1      -5.930   2.180  25.583  0.00  0.00    +0.000 A 
ATOM     14  C   UNL     1      -5.565   2.754  26.049  0.00  0.00    +0.003 A 
ATOM     15  C   UNL     1      -4.940   3.197  25.744  0.00  0.00    +0.037 A 
ENDBRANCH   9  10
ENDBRANCH   7   9
TORSDOF 5
ENDMDL
