MODEL 1
REMARK VINA RESULT:     -10.4      0.000      0.000
REMARK  Name = 
REMARK  9 active torsions:
REMARK  status: ('A' for Active; 'I' for Inactive)
REMARK    1  A    between atoms: O_2  and  C_3
REMARK    2  A    between atoms: C_3  and  C_5
REMARK    3  A    between atoms: C_10  and  C_11
REMARK    4  A    between atoms: C_11  and  C_12
REMARK    5  A    between atoms: C_14  and  C_15
REMARK    6  A    between atoms: C_18  and  C_19
REMARK    7  A    between atoms: C_19  and  N_20
REMARK    8  A    between atoms: N_20  and  C_21
REMARK    9  A    between atoms: C_21  and  C_22
REMARK                            x       y       z     vdW  Elec       q    Type
REMARK                         _______ _______ _______ _____ _____    ______ ____
ROOT
ATOM     12  C   UNL     1      -4.821   1.564  24.781  0.00  0.00    +0.026 C 
ATOM     13  C   UNL     1      -4.413   1.735  24.085  0.00  0.00    +0.005 C 
ATOM     14  C   UNL     1      -4.012   2.453  24.008  0.00  0.00    +0.006 C 
ATOM     18  C   UNL     1      -4.021   2.998  24.626  0.00  0.00    +0.039 C 
ATOM     28  C   UNL     1      -4.429   2.827  25.322  0.00  0.00    -0.033 C 
ATOM     29  C   UNL     1      -4.829   2.110  25.400  0.00  0.00    -0.048 C 
ATOM     30  C   UNL     1      -5.238   1.938  26.096  0.00  0.00    +0.026 C 
ENDROOT
BRANCH  14  15
ATOM     15  C   UNL     1      -3.604   2.624  23.312  0.00  0.00    +0.000 C 
ATOM     16  C   UNL     1      -2.882   2.257  23.156  0.00  0.00    +0.000 C 
ATOM     17  C   UNL     1      -3.917   3.164  22.772  0.00  0.00    +0.000 C 
ENDBRANCH  14  15
BRANCH  12  11
ATOM     11  C   UNL     1      -5.221   0.847  24.859  0.00  0.00    +0.070 C 
BRANCH  11  10
ATOM      5  C   UNL     1      -3.269  -2.105  24.609  0.00  0.00    +0.077 A 
ATOM      6  C   UNL     1      -3.357  -1.404  25.034  0.00  0.00    +0.027 A 
ATOM      7  C   UNL     1      -3.957  -0.873  24.837  0.00  0.00    +0.100 A 
ATOM      8  C   UNL     1      -4.470  -1.044  24.214  0.00  0.00    +0.100 A 
ATOM      9  N   UNL     1      -5.006  -0.421  24.147  0.00  0.00    -0.229 NA
ATOM     10  C   UNL     1      -4.824   0.135  24.727  0.00  0.00    +0.139 A 
ATOM     31  N   UNL     1      -4.176  -0.144  25.154  0.00  0.00    -0.229 NA
ATOM     32  C   UNL     1      -4.383  -1.746  23.788  0.00  0.00    +0.021 A 
ATOM     33  C   UNL     1      -3.783  -2.276  23.986  0.00  0.00    +0.008 A 
BRANCH   5   3
ATOM      3  C   UNL     1      -2.669  -2.635  24.806  0.00  0.00    +0.341 C 
ATOM      4  O   UNL     1      -2.832  -3.277  25.297  0.00  0.00    -0.245 OA
BRANCH   3   2
ATOM      1  C   UNL     1      -1.256  -2.800  24.937  0.00  0.00    +0.256 C 
ATOM      2  O   UNL     1      -1.906  -2.523  24.513  0.00  0.00    -0.441 OA
ENDBRANCH   3   2
ENDBRANCH   5   3
ENDBRANCH  11  10
ENDBRANCH  12  11
BRANCH  18  19
ATOM     19  C   UNL     1      -3.620   3.716  24.549  0.00  0.00    +0.093 C 
BRANCH  19  20
ATOM     20  N   UNL     1      -3.065   3.941  25.115  0.00  0.00    -0.218 NA
BRANCH  20  21
ATOM     21  C   UNL     1      -2.742   4.701  25.098  0.00  0.00    +0.089 C 
BRANCH  21  22
ATOM     22  C   UNL     1      -1.924   4.800  25.076  0.00  0.00    +0.017 C 
ATOM     23  C   UNL     1      -1.599   5.475  24.729  0.00  0.00    +0.001 C 
ATOM     24  C   UNL     1      -0.780   5.575  24.707  0.00  0.00    +0.000 C 
ATOM     25  C   UNL     1      -0.286   4.999  25.033  0.00  0.00    +0.000 C 
ATOM     26  C   UNL     1      -0.610   4.325  25.380  0.00  0.00    +0.000 C 
ATOM     27  C   UNL     1      -1.429   4.226  25.401  0.00  0.00    +0.001 C 
ENDBRANCH  21  22
ENDBRANCH  20  21
ENDBRANCH  19  20
ENDBRANCH  18  19
TORSDOF 9
ENDMDL
MODEL 2
REMARK VINA RESULT:     -10.3      3.794      5.459
REMARK  Name = 
REMARK  9 active torsions:
REMARK  status: ('A' for Active; 'I' for Inactive)
REMARK    1  A    between atoms: O_2  and  C_3
REMARK    2  A    between atoms: C_3  and  C_5
REMARK    3  A    between atoms: C_10  and  C_11
REMARK    4  A    between atoms: C_11  and  C_12
REMARK    5  A    between atoms: C_14  and  C_15
REMARK    6  A    between atoms: C_18  and  C_19
REMARK    7  A    between atoms: C_19  and  N_20
REMARK    8  A    between atoms: N_20  and  C_21
REMARK    9  A    between atoms: C_21  and  C_22
REMARK                            x       y       z     vdW  Elec       q    Type
REMARK                         _______ _______ _______ _____ _____    ______ ____
ROOT
ATOM     12  C   UNL     1      -0.612   2.004  24.809  0.00  0.00    +0.026 C 
ATOM     13  C   UNL     1      -0.821   1.209  24.736  0.00  0.00    +0.005 C 
ATOM     14  C   UNL     1      -0.340   0.695  24.305  0.00  0.00    +0.006 C 
ATOM     18  C   UNL     1       0.348   0.974  23.948  0.00  0.00    +0.039 C 
ATOM     28  C   UNL     1       0.557   1.769  24.021  0.00  0.00    -0.033 C 
ATOM     29  C   UNL     1       0.078   2.284  24.451  0.00  0.00    -0.048 C 
ATOM     30  C   UNL     1       0.287   3.079  24.524  0.00  0.00    +0.026 C 
ENDROOT
BRANCH  14  15
ATOM     15  C   UNL     1      -0.549  -0.100  24.233  0.00  0.00    +0.000 C 
ATOM     16  C   UNL     1      -0.359  -0.634  24.832  0.00  0.00    +0.000 C 
ATOM     17  C   UNL     1      -0.949  -0.362  23.559  0.00  0.00    +0.000 C 
ENDBRANCH  14  15
BRANCH  12  11
ATOM     11  C   UNL     1      -1.091   2.520  25.239  0.00  0.00    +0.070 C 
BRANCH  11  10
ATOM      5  C   UNL     1      -4.608   2.635  24.794  0.00  0.00    +0.077 A 
ATOM      6  C   UNL     1      -4.015   2.380  25.306  0.00  0.00    +0.027 A 
ATOM      7  C   UNL     1      -3.222   2.510  25.117  0.00  0.00    +0.100 A 
ATOM      8  C   UNL     1      -3.024   2.895  24.415  0.00  0.00    +0.100 A 
ATOM      9  N   UNL     1      -2.202   2.946  24.375  0.00  0.00    -0.229 NA
ATOM     10  C   UNL     1      -1.892   2.592  25.052  0.00  0.00    +0.139 A 
ATOM     31  N   UNL     1      -2.522   2.323  25.510  0.00  0.00    -0.229 NA
ATOM     32  C   UNL     1      -3.618   3.151  23.902  0.00  0.00    +0.021 A 
ATOM     33  C   UNL     1      -4.410   3.020  24.092  0.00  0.00    +0.008 A 
BRANCH   5   3
ATOM      3  C   UNL     1      -5.400   2.505  24.984  0.00  0.00    +0.341 C 
ATOM      4  O   UNL     1      -5.808   3.050  25.450  0.00  0.00    -0.245 OA
BRANCH   3   2
ATOM      1  C   UNL     1      -6.552   1.659  24.960  0.00  0.00    +0.256 C 
ATOM      2  O   UNL     1      -5.786   1.830  24.707  0.00  0.00    -0.441 OA
ENDBRANCH   3   2
ENDBRANCH   5   3
ENDBRANCH  11  10
ENDBRANCH  12  11
BRANCH  18  19
ATOM     19  C   UNL     1       0.828   0.460  23.518  0.00  0.00    +0.093 C 
BRANCH  19  20
ATOM     20  N   UNL     1       1.605   0.671  23.339  0.00  0.00    -0.218 NA
BRANCH  20  21
ATOM     21  C   UNL     1       2.064   0.189  22.852  0.00  0.00    +0.089 C 
BRANCH  21  22
ATOM     22  C   UNL     1       2.887   0.238  22.881  0.00  0.00    +0.017 C 
ATOM     23  C   UNL     1       3.326  -0.376  23.217  0.00  0.00    +0.001 C 
ATOM     24  C   UNL     1       4.149  -0.327  23.246  0.00  0.00    +0.000 C 
ATOM     25  C   UNL     1       4.533   0.336  22.938  0.00  0.00    +0.000 C 
ATOM     26  C   UNL     1       4.095   0.948  22.603  0.00  0.00    +0.000 C 
ATOM     27  C   UNL     1       3.272   0.899  22.574  0.00  0.00    +0.001 C 
ENDBRANCH  21  22
ENDBRANCH  20  21
ENDBRANCH  19  20
ENDBRANCH  18  19
TORSDOF 9
ENDMDL
MODEL 3
REMARK VINA RESULT:     -10.3      3.684      5.078
REMARK  Name = 
REMARK  9 active torsions:
REMARK  status: ('A' for Active; 'I' for Inactive)
REMARK    1  A    between atoms: O_2  and  C_3
REMARK    2  A    between atoms: C_3  and  C_5
REMARK    3  A    between atoms: C_10  and  C_11
REMARK    4  A    between atoms: C_11  and  C_12
REMARK    5  A    between atoms: C_14  and  C_15
REMARK    6  A    between atoms: C_18  and  C_19
REMARK    7  A    between atoms: C_19  and  N_20
REMARK    8  A    between atoms: N_20  and  C_21
REMARK    9  A    between atoms: C_21  and  C_22
REMARK                            x       y       z     vdW  Elec       q    Type
REMARK                         _______ _______ _______ _____ _____    ______ ____
ROOT
ATOM     12  C   UNL     1      -0.957   0.335  24.440  0.00  0.00    +0.026 C 
ATOM     13  C   UNL     1      -0.688   1.103  24.574  0.00  0.00    +0.005 C 
ATOM     14  C   UNL     1      -1.229   1.722  24.647  0.00  0.00    +0.006 C 
ATOM     18  C   UNL     1      -2.037   1.573  24.587  0.00  0.00    +0.039 C 
ATOM     28  C   UNL     1      -2.306   0.804  24.453  0.00  0.00    -0.033 C 
ATOM     29  C   UNL     1      -1.766   0.185  24.379  0.00  0.00    -0.048 C 
ATOM     30  C   UNL     1      -2.035  -0.583  24.245  0.00  0.00    +0.026 C 
ENDROOT
BRANCH  14  15
ATOM     15  C   UNL     1      -0.960   2.490  24.782  0.00  0.00    +0.000 C 
ATOM     16  C   UNL     1      -0.834   3.000  24.146  0.00  0.00    +0.000 C 
ATOM     17  C   UNL     1      -0.817   2.749  25.552  0.00  0.00    +0.000 C 
ENDBRANCH  14  15
BRANCH  12  11
ATOM     11  C   UNL     1      -0.417  -0.285  24.365  0.00  0.00    +0.070 C 
BRANCH  11  10
ATOM      5  C   UNL     1       2.623   0.202  22.603  0.00  0.00    +0.077 A 
ATOM      6  C   UNL     1       2.273   0.262  23.347  0.00  0.00    +0.027 A 
ATOM      7  C   UNL     1       1.480   0.058  23.449  0.00  0.00    +0.100 A 
ATOM      8  C   UNL     1       1.036  -0.205  22.805  0.00  0.00    +0.100 A 
ATOM      9  N   UNL     1       0.272  -0.365  23.070  0.00  0.00    -0.229 NA
ATOM     10  C   UNL     1       0.243  -0.202  23.877  0.00  0.00    +0.139 A 
ATOM     31  N   UNL     1       0.989   0.060  24.111  0.00  0.00    -0.229 NA
ATOM     32  C   UNL     1       1.386  -0.265  22.059  0.00  0.00    +0.021 A 
ATOM     33  C   UNL     1       2.179  -0.061  21.959  0.00  0.00    +0.008 A 
BRANCH   5   3
ATOM      3  C   UNL     1       3.415   0.406  22.502  0.00  0.00    +0.341 C 
ATOM      4  O   UNL     1       3.648   0.838  21.839  0.00  0.00    -0.245 OA
BRANCH   3   2
ATOM      1  C   UNL     1       4.763   0.405  22.977  0.00  0.00    +0.256 C 
ATOM      2  O   UNL     1       3.975   0.178  23.063  0.00  0.00    -0.441 OA
ENDBRANCH   3   2
ENDBRANCH   5   3
ENDBRANCH  11  10
ENDBRANCH  12  11
BRANCH  18  19
ATOM     19  C   UNL     1      -2.578   2.191  24.661  0.00  0.00    +0.093 C 
BRANCH  19  20
ATOM     20  N   UNL     1      -3.382   2.029  24.747  0.00  0.00    -0.218 NA
BRANCH  20  21
ATOM     21  C   UNL     1      -3.934   2.642  24.712  0.00  0.00    +0.089 C 
BRANCH  21  22
ATOM     22  C   UNL     1      -4.691   2.533  25.021  0.00  0.00    +0.017 C 
ATOM     23  C   UNL     1      -4.927   2.952  25.692  0.00  0.00    +0.001 C 
ATOM     24  C   UNL     1      -5.685   2.843  26.001  0.00  0.00    +0.000 C 
ATOM     25  C   UNL     1      -6.205   2.315  25.638  0.00  0.00    +0.000 C 
ATOM     26  C   UNL     1      -5.969   1.897  24.968  0.00  0.00    +0.000 C 
ATOM     27  C   UNL     1      -5.212   2.006  24.659  0.00  0.00    +0.001 C 
ENDBRANCH  21  22
ENDBRANCH  20  21
ENDBRANCH  19  20
ENDBRANCH  18  19
TORSDOF 9
ENDMDL
MODEL 4
REMARK VINA RESULT:     -10.3      2.811      4.712
REMARK  Name = 
REMARK  9 active torsions:
REMARK  status: ('A' for Active; 'I' for Inactive)
REMARK    1  A    between atoms: O_2  and  C_3
REMARK    2  A    between atoms: C_3  and  C_5
REMARK    3  A    between atoms: C_10  and  C_11
REMARK    4  A    between atoms: C_11  and  C_12
REMARK    5  A    between atoms: C_14  and  C_15
REMARK    6  A    between atoms: C_18  and  C_19
REMARK    7  A    between atoms: C_19  and  N_20
REMARK    8  A    between atoms: N_20  and  C_21
REMARK    9  A    between atoms: C_21  and  C_22
REMARK                            x       y       z     vdW  Elec       q    Type
REMARK                         _______ _______ _______ _____ _____    ______ ____
ROOT
ATOM     12  C   UNL     1      -2.027  -0.972  25.122  0.00  0.00    +0.026 C 
ATOM     13  C   UNL     1      -2.494  -1.182  24.476  0.00  0.00    +0.005 C 
ATOM     14  C   UNL     1      -3.285  -0.950  24.447  0.00  0.00    +0.006 C 
ATOM     18  C   UNL     1      -3.609  -0.508  25.063  0.00  0.00    +0.039 C 
ATOM     28  C   UNL     1      -3.142  -0.298  25.709  0.00  0.00    -0.033 C 
ATOM     29  C   UNL     1      -2.351  -0.529  25.739  0.00  0.00    -0.048 C 
ATOM     30  C   UNL     1      -1.883  -0.318  26.386  0.00  0.00    +0.026 C 
ENDROOT
BRANCH  14  15
ATOM     15  C   UNL     1      -3.753  -1.161  23.800  0.00  0.00    +0.000 C 
ATOM     16  C   UNL     1      -4.236  -1.828  23.840  0.00  0.00    +0.000 C 
ATOM     17  C   UNL     1      -3.737  -0.704  23.113  0.00  0.00    +0.000 C 
ENDBRANCH  14  15
BRANCH  12  11
ATOM     11  C   UNL     1      -1.236  -1.203  25.153  0.00  0.00    +0.070 C 
BRANCH  11  10
ATOM      5  C   UNL     1       1.263   0.037  22.962  0.00  0.00    +0.077 A 
ATOM      6  C   UNL     1       0.891  -0.652  23.217  0.00  0.00    +0.027 A 
ATOM      7  C   UNL     1       0.295  -0.614  23.787  0.00  0.00    +0.100 A 
ATOM      8  C   UNL     1       0.072   0.115  24.102  0.00  0.00    +0.100 A 
ATOM      9  N   UNL     1      -0.528  -0.016  24.651  0.00  0.00    -0.229 NA
ATOM     10  C   UNL     1      -0.676  -0.827  24.677  0.00  0.00    +0.139 A 
ATOM     31  N   UNL     1      -0.168  -1.196  24.142  0.00  0.00    -0.229 NA
ATOM     32  C   UNL     1       0.445   0.807  23.847  0.00  0.00    +0.021 A 
ATOM     33  C   UNL     1       1.041   0.767  23.277  0.00  0.00    +0.008 A 
BRANCH   5   3
ATOM      3  C   UNL     1       1.858  -0.001  22.393  0.00  0.00    +0.341 C 
ATOM      4  O   UNL     1       1.680  -0.247  21.626  0.00  0.00    -0.245 OA
BRANCH   3   2
ATOM      1  C   UNL     1       3.226   0.177  22.018  0.00  0.00    +0.256 C 
ATOM      2  O   UNL     1       2.633   0.206  22.590  0.00  0.00    -0.441 OA
ENDBRANCH   3   2
ENDBRANCH   5   3
ENDBRANCH  11  10
ENDBRANCH  12  11
BRANCH  18  19
ATOM     19  C   UNL     1      -4.400  -0.276  25.033  0.00  0.00    +0.093 C 
BRANCH  19  20
ATOM     20  N   UNL     1      -4.636   0.431  25.384  0.00  0.00    -0.218 NA
BRANCH  20  21
ATOM     21  C   UNL     1      -5.283   0.846  25.083  0.00  0.00    +0.089 C 
BRANCH  21  22
ATOM     22  C   UNL     1      -5.378   1.647  25.261  0.00  0.00    +0.017 C 
ATOM     23  C   UNL     1      -5.812   1.874  25.925  0.00  0.00    +0.001 C 
ATOM     24  C   UNL     1      -5.907   2.674  26.103  0.00  0.00    +0.000 C 
ATOM     25  C   UNL     1      -5.567   3.247  25.616  0.00  0.00    +0.000 C 
ATOM     26  C   UNL     1      -5.133   3.020  24.952  0.00  0.00    +0.000 C 
ATOM     27  C   UNL     1      -5.039   2.220  24.775  0.00  0.00    +0.001 C 
ENDBRANCH  21  22
ENDBRANCH  20  21
ENDBRANCH  19  20
ENDBRANCH  18  19
TORSDOF 9
ENDMDL
MODEL 5
REMARK VINA RESULT:     -10.2      3.753      5.103
REMARK  Name = 
REMARK  9 active torsions:
REMARK  status: ('A' for Active; 'I' for Inactive)
REMARK    1  A    between atoms: O_2  and  C_3
REMARK    2  A    between atoms: C_3  and  C_5
REMARK    3  A    between atoms: C_10  and  C_11
REMARK    4  A    between atoms: C_11  and  C_12
REMARK    5  A    between atoms: C_14  and  C_15
REMARK    6  A    between atoms: C_18  and  C_19
REMARK    7  A    between atoms: C_19  and  N_20
REMARK    8  A    between atoms: N_20  and  C_21
REMARK    9  A    between atoms: C_21  and  C_22
REMARK                            x       y       z     vdW  Elec       q    Type
REMARK                         _______ _______ _______ _____ _____    ______ ____
ROOT
ATOM     12  C   UNL     1      -0.982  -0.308  24.669  0.00  0.00    +0.026 C 
ATOM     13  C   UNL     1      -0.854   0.502  24.584  0.00  0.00    +0.005 C 
ATOM     14  C   UNL     1      -0.226   0.773  24.121  0.00  0.00    +0.006 C 
ATOM     18  C   UNL     1       0.272   0.235  23.745  0.00  0.00    +0.039 C 
ATOM     28  C   UNL     1       0.144  -0.575  23.831  0.00  0.00    -0.033 C 
ATOM     29  C   UNL     1      -0.483  -0.848  24.292  0.00  0.00    -0.048 C 
ATOM     30  C   UNL     1      -0.611  -1.658  24.378  0.00  0.00    +0.026 C 
ENDROOT
BRANCH  14  15
ATOM     15  C   UNL     1      -0.098   1.584  24.036  0.00  0.00    +0.000 C 
ATOM     16  C   UNL     1       0.347   1.993  24.597  0.00  0.00    +0.000 C 
ATOM     17  C   UNL     1      -0.415   1.986  23.388  0.00  0.00    +0.000 C 
ENDBRANCH  14  15
BRANCH  12  11
ATOM     11  C   UNL     1      -1.609  -0.581  25.131  0.00  0.00    +0.070 C 
BRANCH  11  10
ATOM      5  C   UNL     1      -4.714   1.134  25.069  0.00  0.00    +0.077 A 
ATOM      6  C   UNL     1      -3.970   1.125  25.424  0.00  0.00    +0.027 A 
ATOM      7  C   UNL     1      -3.416   0.553  25.210  0.00  0.00    +0.100 A 
ATOM      8  C   UNL     1      -3.606  -0.011  24.639  0.00  0.00    +0.100 A 
ATOM      9  N   UNL     1      -2.953  -0.505  24.540  0.00  0.00    -0.229 NA
ATOM     10  C   UNL     1      -2.358  -0.245  25.049  0.00  0.00    +0.139 A 
ATOM     31  N   UNL     1      -2.645   0.408  25.463  0.00  0.00    -0.229 NA
ATOM     32  C   UNL     1      -4.351  -0.003  24.282  0.00  0.00    +0.021 A 
ATOM     33  C   UNL     1      -4.904   0.569  24.498  0.00  0.00    +0.008 A 
BRANCH   5   3
ATOM      3  C   UNL     1      -5.267   1.706  25.283  0.00  0.00    +0.341 C 
ATOM      4  O   UNL     1      -5.927   1.493  25.730  0.00  0.00    -0.245 OA
BRANCH   3   2
ATOM      1  C   UNL     1      -5.578   3.093  25.430  0.00  0.00    +0.256 C 
ATOM      2  O   UNL     1      -5.162   2.490  25.051  0.00  0.00    -0.441 OA
ENDBRANCH   3   2
ENDBRANCH   5   3
ENDBRANCH  11  10
ENDBRANCH  12  11
BRANCH  18  19
ATOM     19  C   UNL     1       0.900   0.506  23.283  0.00  0.00    +0.093 C 
BRANCH  19  20
ATOM     20  N   UNL     1       1.595   0.067  23.231  0.00  0.00    -0.218 NA
BRANCH  20  21
ATOM     21  C   UNL     1       2.128   0.207  22.617  0.00  0.00    +0.089 C 
BRANCH  21  22
ATOM     22  C   UNL     1       2.937   0.240  22.774  0.00  0.00    +0.017 C 
ATOM     23  C   UNL     1       3.327  -0.422  23.076  0.00  0.00    +0.001 C 
ATOM     24  C   UNL     1       4.136  -0.389  23.233  0.00  0.00    +0.000 C 
ATOM     25  C   UNL     1       4.556   0.307  23.088  0.00  0.00    +0.000 C 
ATOM     26  C   UNL     1       4.167   0.968  22.787  0.00  0.00    +0.000 C 
ATOM     27  C   UNL     1       3.358   0.935  22.630  0.00  0.00    +0.001 C 
ENDBRANCH  21  22
ENDBRANCH  20  21
ENDBRANCH  19  20
ENDBRANCH  18  19
TORSDOF 9
ENDMDL
MODEL 6
REMARK VINA RESULT:      -9.4      2.212      5.776
REMARK  Name = 
REMARK  9 active torsions:
REMARK  status: ('A' for Active; 'I' for Inactive)
REMARK    1  A    between atoms: O_2  and  C_3
REMARK    2  A    between atoms: C_3  and  C_5
REMARK    3  A    between atoms: C_10  and  C_11
REMARK    4  A    between atoms: C_11  and  C_12
REMARK    5  A    between atoms: C_14  and  C_15
REMARK    6  A    between atoms: C_18  and  C_19
REMARK    7  A    between atoms: C_19  and  N_20
REMARK    8  A    between atoms: N_20  and  C_21
REMARK    9  A    between atoms: C_21  and  C_22
REMARK                            x       y       z     vdW  Elec       q    Type
REMARK                         _______ _______ _______ _____ _____    ______ ____
ROOT
ATOM     12  C   UNL     1      -4.594   1.997  24.642  0.00  0.00    +0.026 C 
ATOM     13  C   UNL     1      -3.924   1.820  24.194  0.00  0.00    +0.005 C 
ATOM     14  C   UNL     1      -3.788   1.044  23.946  0.00  0.00    +0.006 C 
ATOM     18  C   UNL     1      -4.320   0.447  24.146  0.00  0.00    +0.039 C 
ATOM     28  C   UNL     1      -4.989   0.625  24.594  0.00  0.00    -0.033 C 
ATOM     29  C   UNL     1      -5.127   1.399  24.843  0.00  0.00    -0.048 C 
ATOM     30  C   UNL     1      -5.796   1.577  25.291  0.00  0.00    +0.026 C 
ENDROOT
BRANCH  14  15
ATOM     15  C   UNL     1      -3.118   0.867  23.498  0.00  0.00    +0.000 C 
ATOM     16  C   UNL     1      -3.166   0.848  22.675  0.00  0.00    +0.000 C 
ATOM     17  C   UNL     1      -2.400   0.709  23.873  0.00  0.00    +0.000 C 
ENDBRANCH  14  15
BRANCH  12  11
ATOM     11  C   UNL     1      -4.731   2.772  24.890  0.00  0.00    +0.070 C 
BRANCH  11  10
ATOM      5  C   UNL     1      -1.946   4.926  25.320  0.00  0.00    +0.077 A 
ATOM      6  C   UNL     1      -2.419   4.562  24.751  0.00  0.00    +0.027 A 
ATOM      7  C   UNL     1      -3.045   4.076  24.983  0.00  0.00    +0.100 A 
ATOM      8  C   UNL     1      -3.197   3.955  25.785  0.00  0.00    +0.100 A 
ATOM      9  N   UNL     1      -3.847   3.452  25.848  0.00  0.00    -0.229 NA
ATOM     10  C   UNL     1      -4.097   3.262  25.085  0.00  0.00    +0.139 A 
ATOM     31  N   UNL     1      -3.601   3.648  24.551  0.00  0.00    -0.229 NA
ATOM     32  C   UNL     1      -2.724   4.320  26.355  0.00  0.00    +0.021 A 
ATOM     33  C   UNL     1      -2.098   4.804  26.122  0.00  0.00    +0.008 A 
BRANCH   5   3
ATOM      3  C   UNL     1      -1.321   5.410  25.088  0.00  0.00    +0.341 C 
ATOM      4  O   UNL     1      -1.436   6.223  25.011  0.00  0.00    -0.245 OA
BRANCH   3   2
ATOM      1  C   UNL     1      -0.092   5.418  24.359  0.00  0.00    +0.256 C 
ATOM      2  O   UNL     1      -0.579   5.083  24.933  0.00  0.00    -0.441 OA
ENDBRANCH   3   2
ENDBRANCH   5   3
ENDBRANCH  11  10
ENDBRANCH  12  11
BRANCH  18  19
ATOM     19  C   UNL     1      -4.183  -0.328  23.899  0.00  0.00    +0.093 C 
BRANCH  19  20
ATOM     20  N   UNL     1      -4.343  -0.958  24.406  0.00  0.00    -0.218 NA
BRANCH  20  21
ATOM     21  C   UNL     1      -4.360  -1.729  24.114  0.00  0.00    +0.089 C 
BRANCH  21  22
ATOM     22  C   UNL     1      -3.838  -2.294  24.413  0.00  0.00    +0.017 C 
ATOM     23  C   UNL     1      -3.697  -2.337  25.225  0.00  0.00    +0.001 C 
ATOM     24  C   UNL     1      -3.175  -2.902  25.524  0.00  0.00    +0.000 C 
ATOM     25  C   UNL     1      -2.795  -3.424  25.011  0.00  0.00    +0.000 C 
ATOM     26  C   UNL     1      -2.936  -3.382  24.200  0.00  0.00    +0.000 C 
ATOM     27  C   UNL     1      -3.457  -2.817  23.901  0.00  0.00    +0.001 C 
ENDBRANCH  21  22
ENDBRANCH  20  21
ENDBRANCH  19  20
ENDBRANCH  18  19
TORSDOF 9
ENDMDL
MODEL 7
REMARK VINA RESULT:      -9.2      3.880      6.231
REMARK  Name = 
REMARK  9 active torsions:
REMARK  status: ('A' for Active; 'I' for Inactive)
REMARK    1  A    between atoms: O_2  and  C_3
REMARK    2  A    between atoms: C_3  and  C_5
REMARK    3  A    between atoms: C_10  and  C_11
REMARK    4  A    between atoms: C_11  and  C_12
REMARK    5  A    between atoms: C_14  and  C_15
REMARK    6  A    between atoms: C_18  and  C_19
REMARK    7  A    between atoms: C_19  and  N_20
REMARK    8  A    between atoms: N_20  and  C_21
REMARK    9  A    between atoms: C_21  and  C_22
REMARK                            x       y       z     vdW  Elec       q    Type
REMARK                         _______ _______ _______ _____ _____    ______ ____
ROOT
ATOM     12  C   UNL     1      -0.648   1.112  24.352  0.00  0.00    +0.026 C 
ATOM     13  C   UNL     1      -0.440   0.522  24.889  0.00  0.00    +0.005 C 
ATOM     14  C   UNL     1      -1.021   0.026  25.201  0.00  0.00    +0.006 C 
ATOM     18  C   UNL     1      -1.809   0.120  24.977  0.00  0.00    +0.039 C 
ATOM     28  C   UNL     1      -2.016   0.711  24.440  0.00  0.00    -0.033 C 
ATOM     29  C   UNL     1      -1.437   1.207  24.127  0.00  0.00    -0.048 C 
ATOM     30  C   UNL     1      -1.644   1.798  23.590  0.00  0.00    +0.026 C 
ENDROOT
BRANCH  14  15
ATOM     15  C   UNL     1      -0.813  -0.565  25.738  0.00  0.00    +0.000 C 
ATOM     16  C   UNL     1      -0.511  -1.283  25.466  0.00  0.00    +0.000 C 
ATOM     17  C   UNL     1      -0.908  -0.439  26.549  0.00  0.00    +0.000 C 
ENDBRANCH  14  15
BRANCH  12  11
ATOM     11  C   UNL     1      -0.068   1.609  24.039  0.00  0.00    +0.070 C 
BRANCH  11  10
ATOM      5  C   UNL     1       3.063   0.497  22.798  0.00  0.00    +0.077 A 
ATOM      6  C   UNL     1       2.709   1.035  23.312  0.00  0.00    +0.027 A 
ATOM      7  C   UNL     1       1.888   1.053  23.390  0.00  0.00    +0.100 A 
ATOM      8  C   UNL     1       1.421   0.533  22.953  0.00  0.00    +0.100 A 
ATOM      9  N   UNL     1       0.632   0.677  23.143  0.00  0.00    -0.229 NA
ATOM     10  C   UNL     1       0.610   1.287  23.697  0.00  0.00    +0.139 A 
ATOM     31  N   UNL     1       1.387   1.519  23.850  0.00  0.00    -0.229 NA
ATOM     32  C   UNL     1       1.775  -0.006  22.437  0.00  0.00    +0.021 A 
ATOM     33  C   UNL     1       2.596  -0.024  22.360  0.00  0.00    +0.008 A 
BRANCH   5   3
ATOM      3  C   UNL     1       3.883   0.478  22.720  0.00  0.00    +0.341 C 
ATOM      4  O   UNL     1       4.245   0.851  22.079  0.00  0.00    -0.245 OA
BRANCH   3   2
ATOM      1  C   UNL     1       5.166   0.137  23.251  0.00  0.00    +0.256 C 
ATOM      2  O   UNL     1       4.343   0.088  23.283  0.00  0.00    -0.441 OA
ENDBRANCH   3   2
ENDBRANCH   5   3
ENDBRANCH  11  10
ENDBRANCH  12  11
BRANCH  18  19
ATOM     19  C   UNL     1      -2.390  -0.376  25.289  0.00  0.00    +0.093 C 
BRANCH  19  20
ATOM     20  N   UNL     1      -3.027  -0.611  24.822  0.00  0.00    -0.218 NA
BRANCH  20  21
ATOM     21  C   UNL     1      -3.576  -1.153  25.114  0.00  0.00    +0.089 C 
BRANCH  21  22
ATOM     22  C   UNL     1      -3.834  -1.775  24.637  0.00  0.00    +0.017 C 
ATOM     23  C   UNL     1      -4.312  -1.621  23.981  0.00  0.00    +0.001 C 
ATOM     24  C   UNL     1      -4.570  -2.243  23.504  0.00  0.00    +0.000 C 
ATOM     25  C   UNL     1      -4.351  -3.018  23.683  0.00  0.00    +0.000 C 
ATOM     26  C   UNL     1      -3.874  -3.172  24.338  0.00  0.00    +0.000 C 
ATOM     27  C   UNL     1      -3.616  -2.550  24.815  0.00  0.00    +0.001 C 
ENDBRANCH  21  22
ENDBRANCH  20  21
ENDBRANCH  19  20
ENDBRANCH  18  19
TORSDOF 9
ENDMDL
MODEL 8
REMARK VINA RESULT:      -8.4     14.011     15.801
REMARK  Name = 
REMARK  9 active torsions:
REMARK  status: ('A' for Active; 'I' for Inactive)
REMARK    1  A    between atoms: O_2  and  C_3
REMARK    2  A    between atoms: C_3  and  C_5
REMARK    3  A    between atoms: C_10  and  C_11
REMARK    4  A    between atoms: C_11  and  C_12
REMARK    5  A    between atoms: C_14  and  C_15
REMARK    6  A    between atoms: C_18  and  C_19
REMARK    7  A    between atoms: C_19  and  N_20
REMARK    8  A    between atoms: N_20  and  C_21
REMARK    9  A    between atoms: C_21  and  C_22
REMARK                            x       y       z     vdW  Elec       q    Type
REMARK                         _______ _______ _______ _____ _____    ______ ____
ROOT
ATOM     12  C   UNL     1      -5.299 -10.173  15.697  0.00  0.00    +0.026 C 
ATOM     13  C   UNL     1      -5.862 -10.080  15.101  0.00  0.00    +0.005 C 
ATOM     14  C   UNL     1      -5.658 -10.227  14.315  0.00  0.00    +0.006 C 
ATOM     18  C   UNL     1      -4.893 -10.467  14.125  0.00  0.00    +0.039 C 
ATOM     28  C   UNL     1      -4.330 -10.560  14.721  0.00  0.00    -0.033 C 
ATOM     29  C   UNL     1      -4.532 -10.413  15.507  0.00  0.00    -0.048 C 
ATOM     30  C   UNL     1      -3.969 -10.506  16.102  0.00  0.00    +0.026 C 
ENDROOT
BRANCH  14  15
ATOM     15  C   UNL     1      -6.221 -10.134  13.719  0.00  0.00    +0.000 C 
ATOM     16  C   UNL     1      -6.320  -9.401  13.355  0.00  0.00    +0.000 C 
ATOM     17  C   UNL     1      -6.686 -10.775  13.487  0.00  0.00    +0.000 C 
ENDBRANCH  14  15
BRANCH  12  11
ATOM     11  C   UNL     1      -5.501 -10.026  16.483  0.00  0.00    +0.070 C 
BRANCH  11  10
ATOM      5  C   UNL     1      -8.873  -9.356  17.355  0.00  0.00    +0.077 A 
ATOM      6  C   UNL     1      -8.171  -9.001  17.108  0.00  0.00    +0.027 A 
ATOM      7  C   UNL     1      -7.499  -9.462  16.977  0.00  0.00    +0.100 A 
ATOM      8  C   UNL     1      -7.530 -10.278  17.094  0.00  0.00    +0.100 A 
ATOM      9  N   UNL     1      -6.786 -10.589  16.923  0.00  0.00    -0.229 NA
ATOM     10  C   UNL     1      -6.294  -9.965  16.701  0.00  0.00    +0.139 A 
ATOM     31  N   UNL     1      -6.736  -9.269  16.735  0.00  0.00    -0.229 NA
ATOM     32  C   UNL     1      -8.233 -10.634  17.340  0.00  0.00    +0.021 A 
ATOM     33  C   UNL     1      -8.905 -10.172  17.471  0.00  0.00    +0.008 A 
BRANCH   5   3
ATOM      3  C   UNL     1      -9.545  -8.895  17.485  0.00  0.00    +0.341 C 
ATOM      4  O   UNL     1     -10.114  -9.141  18.029  0.00  0.00    -0.245 OA
BRANCH   3   2
ATOM      1  C   UNL     1     -10.353  -7.768  17.142  0.00  0.00    +0.256 C 
ATOM      2  O   UNL     1      -9.648  -8.189  17.071  0.00  0.00    -0.441 OA
ENDBRANCH   3   2
ENDBRANCH   5   3
ENDBRANCH  11  10
ENDBRANCH  12  11
BRANCH  18  19
ATOM     19  C   UNL     1      -4.689 -10.614  13.339  0.00  0.00    +0.093 C 
BRANCH  19  20
ATOM     20  N   UNL     1      -3.917 -10.483  13.081  0.00  0.00    -0.218 NA
BRANCH  20  21
ATOM     21  C   UNL     1      -3.669 -10.780  12.352  0.00  0.00    +0.089 C 
BRANCH  21  22
ATOM     22  C   UNL     1      -3.059 -10.406  11.941  0.00  0.00    +0.017 C 
ATOM     23  C   UNL     1      -3.217 -10.022  11.227  0.00  0.00    +0.001 C 
ATOM     24  C   UNL     1      -2.607  -9.648  10.816  0.00  0.00    +0.000 C 
ATOM     25  C   UNL     1      -1.839  -9.659  11.119  0.00  0.00    +0.000 C 
ATOM     26  C   UNL     1      -1.681 -10.042  11.831  0.00  0.00    +0.000 C 
ATOM     27  C   UNL     1      -2.291 -10.416  12.242  0.00  0.00    +0.001 C 
ENDBRANCH  21  22
ENDBRANCH  20  21
ENDBRANCH  19  20
ENDBRANCH  18  19
TORSDOF 9
ENDMDL
MODEL 9
REMARK VINA RESULT:      -7.1     14.158     16.590
REMARK  Name = 
REMARK  9 active torsions:
REMARK  status: ('A' for Active; 'I' for Inactive)
REMARK    1  A    between atoms: O_2  and  C_3
REMARK    2  A    between atoms: C_3  and  C_5
REMARK    3  A    between atoms: C_10  and  C_11
REMARK    4  A    between atoms: C_11  and  C_12
REMARK    5  A    between atoms: C_14  and  C_15
REMARK    6  A    between atoms: C_18  and  C_19
REMARK    7  A    between atoms: C_19  and  N_20
REMARK    8  A    between atoms: N_20  and  C_21
REMARK    9  A    between atoms: C_21  and  C_22
REMARK                            x       y       z     vdW  Elec       q    Type
REMARK                         _______ _______ _______ _____ _____    ______ ____
ROOT
ATOM     12  C   UNL     1      -6.837 -10.309  14.007  0.00  0.00    +0.026 C 
ATOM     13  C   UNL     1      -7.430 -10.331  13.434  0.00  0.00    +0.005 C 
ATOM     14  C   UNL     1      -7.286 -10.029  12.680  0.00  0.00    +0.006 C 
ATOM     18  C   UNL     1      -6.550  -9.705  12.498  0.00  0.00    +0.039 C 
ATOM     28  C   UNL     1      -5.957  -9.683  13.071  0.00  0.00    -0.033 C 
ATOM     29  C   UNL     1      -6.100  -9.985  13.825  0.00  0.00    -0.048 C 
ATOM     30  C   UNL     1      -5.506  -9.963  14.398  0.00  0.00    +0.026 C 
ENDROOT
BRANCH  14  15
ATOM     15  C   UNL     1      -7.880 -10.051  12.107  0.00  0.00    +0.000 C 
ATOM     16  C   UNL     1      -7.972 -10.720  11.634  0.00  0.00    +0.000 C 
ATOM     17  C   UNL     1      -8.382  -9.403  12.008  0.00  0.00    +0.000 C 
ENDBRANCH  14  15
BRANCH  12  11
ATOM     11  C   UNL     1      -6.980 -10.611  14.761  0.00  0.00    +0.070 C 
BRANCH  11  10
ATOM      5  C   UNL     1      -9.578  -9.137  16.674  0.00  0.00    +0.077 A 
ATOM      6  C   UNL     1      -8.826  -9.001  16.365  0.00  0.00    +0.027 A 
ATOM      7  C   UNL     1      -8.448  -9.588  15.925  0.00  0.00    +0.100 A 
ATOM      8  C   UNL     1      -8.824 -10.310  15.793  0.00  0.00    +0.100 A 
ATOM      9  N   UNL     1      -8.320 -10.781  15.341  0.00  0.00    -0.229 NA
ATOM     10  C   UNL     1      -7.632 -10.350  15.194  0.00  0.00    +0.139 A 
ATOM     31  N   UNL     1      -7.712  -9.613  15.554  0.00  0.00    -0.229 NA
ATOM     32  C   UNL     1      -9.577 -10.446  16.102  0.00  0.00    +0.021 A 
ATOM     33  C   UNL     1      -9.954  -9.859  16.542  0.00  0.00    +0.008 A 
BRANCH   5   3
ATOM      3  C   UNL     1      -9.955  -8.550  17.114  0.00  0.00    +0.341 C 
ATOM      4  O   UNL     1     -10.144  -8.686  17.905  0.00  0.00    -0.245 OA
BRANCH   3   2
ATOM      1  C   UNL     1     -10.715  -7.340  17.104  0.00  0.00    +0.256 C 
ATOM      2  O   UNL     1     -10.144  -7.828  16.763  0.00  0.00    -0.441 OA
ENDBRANCH   3   2
ENDBRANCH   5   3
ENDBRANCH  11  10
ENDBRANCH  12  11
BRANCH  18  19
ATOM     19  C   UNL     1      -6.406  -9.403  11.744  0.00  0.00    +0.093 C 
BRANCH  19  20
ATOM     20  N   UNL     1      -5.632  -9.300  11.482  0.00  0.00    -0.218 NA
BRANCH  20  21
ATOM     21  C   UNL     1      -5.467  -8.754  10.885  0.00  0.00    +0.089 C 
BRANCH  21  22
ATOM     22  C   UNL     1      -4.853  -8.897  10.354  0.00  0.00    +0.017 C 
ATOM     23  C   UNL     1      -5.021  -9.051   9.560  0.00  0.00    +0.001 C 
ATOM     24  C   UNL     1      -4.406  -9.195   9.028  0.00  0.00    +0.000 C 
ATOM     25  C   UNL     1      -3.624  -9.184   9.290  0.00  0.00    +0.000 C 
ATOM     26  C   UNL     1      -3.456  -9.030  10.083  0.00  0.00    +0.000 C 
ATOM     27  C   UNL     1      -4.070  -8.887  10.614  0.00  0.00    +0.001 C 
ENDBRANCH  21  22
ENDBRANCH  20  21
ENDBRANCH  19  20
ENDBRANCH  18  19
TORSDOF 9
ENDMDL
MODEL 10
REMARK VINA RESULT:      -6.4     17.425     18.943
REMARK  Name = 
REMARK  9 active torsions:
REMARK  status: ('A' for Active; 'I' for Inactive)
REMARK    1  A    between atoms: O_2  and  C_3
REMARK    2  A    between atoms: C_3  and  C_5
REMARK    3  A    between atoms: C_10  and  C_11
REMARK    4  A    between atoms: C_11  and  C_12
REMARK    5  A    between atoms: C_14  and  C_15
REMARK    6  A    between atoms: C_18  and  C_19
REMARK    7  A    between atoms: C_19  and  N_20
REMARK    8  A    between atoms: N_20  and  C_21
REMARK    9  A    between atoms: C_21  and  C_22
REMARK                            x       y       z     vdW  Elec       q    Type
REMARK                         _______ _______ _______ _____ _____    ______ ____
ROOT
ATOM     12  C   UNL     1      -6.492 -10.157  10.163  0.00  0.00    +0.026 C 
ATOM     13  C   UNL     1      -6.109 -10.126   9.433  0.00  0.00    +0.005 C 
ATOM     14  C   UNL     1      -5.296  -9.986   9.401  0.00  0.00    +0.006 C 
ATOM     18  C   UNL     1      -4.867  -9.879  10.097  0.00  0.00    +0.039 C 
ATOM     28  C   UNL     1      -5.251  -9.911  10.827  0.00  0.00    -0.033 C 
ATOM     29  C   UNL     1      -6.063 -10.050  10.860  0.00  0.00    -0.048 C 
ATOM     30  C   UNL     1      -6.447 -10.081  11.590  0.00  0.00    +0.026 C 
ENDROOT
BRANCH  14  15
ATOM     15  C   UNL     1      -4.912  -9.955   8.671  0.00  0.00    +0.000 C 
ATOM     16  C   UNL     1      -4.914  -9.255   8.234  0.00  0.00    +0.000 C 
ATOM     17  C   UNL     1      -4.527 -10.623   8.378  0.00  0.00    +0.000 C 
ENDBRANCH  14  15
BRANCH  12  11
ATOM     11  C   UNL     1      -7.305 -10.296  10.197  0.00  0.00    +0.070 C 
BRANCH  11  10
ATOM      5  C   UNL     1      -9.416  -7.782   8.855  0.00  0.00    +0.077 A 
ATOM      6  C   UNL     1      -8.839  -7.925   9.426  0.00  0.00    +0.027 A 
ATOM      7  C   UNL     1      -8.509  -8.678   9.501  0.00  0.00    +0.100 A 
ATOM      8  C   UNL     1      -8.758  -9.287   9.003  0.00  0.00    +0.100 A 
ATOM      9  N   UNL     1      -8.337  -9.968   9.203  0.00  0.00    -0.229 NA
ATOM     10  C   UNL     1      -7.828  -9.779   9.824  0.00  0.00    +0.139 A 
ATOM     31  N   UNL     1      -7.936  -8.982  10.008  0.00  0.00    -0.229 NA
ATOM     32  C   UNL     1      -9.336  -9.144   8.431  0.00  0.00    +0.021 A 
ATOM     33  C   UNL     1      -9.665  -8.391   8.358  0.00  0.00    +0.008 A 
BRANCH   5   3
ATOM      3  C   UNL     1      -9.746  -7.030   8.781  0.00  0.00    +0.341 C 
ATOM      4  O   UNL     1     -10.252  -6.742   9.366  0.00  0.00    -0.245 OA
BRANCH   3   2
ATOM      1  C   UNL     1      -9.709  -5.752   8.143  0.00  0.00    +0.256 C 
ATOM      2  O   UNL     1      -9.569  -6.564   8.124  0.00  0.00    -0.441 OA
ENDBRANCH   3   2
ENDBRANCH   5   3
ENDBRANCH  11  10
ENDBRANCH  12  11
BRANCH  18  19
ATOM     19  C   UNL     1      -4.055  -9.740  10.064  0.00  0.00    +0.093 C 
BRANCH  19  20
ATOM     20  N   UNL     1      -3.585  -9.881  10.727  0.00  0.00    -0.218 NA
BRANCH  20  21
ATOM     21  C   UNL     1      -2.792  -9.651  10.728  0.00  0.00    +0.089 C 
BRANCH  21  22
ATOM     22  C   UNL     1      -2.300  -9.873  11.352  0.00  0.00    +0.017 C 
ATOM     23  C   UNL     1      -2.623 -10.211  12.032  0.00  0.00    +0.001 C 
ATOM     24  C   UNL     1      -2.131 -10.432  12.656  0.00  0.00    +0.000 C 
ATOM     25  C   UNL     1      -1.316 -10.315  12.600  0.00  0.00    +0.000 C 
ATOM     26  C   UNL     1      -0.993  -9.977  11.921  0.00  0.00    +0.000 C 
ATOM     27  C   UNL     1      -1.485  -9.756  11.297  0.00  0.00    +0.001 C 
ENDBRANCH  21  22
ENDBRANCH  20  21
ENDBRANCH  19  20
ENDBRANCH  18  19
TORSDOF 9
ENDMDL
