MODEL 1
REMARK VINA RESULT:     -15.0      0.000      0.000
REMARK  Name = 
REMARK  3 active torsions:
REMARK  status: ('A' for Active; 'I' for Inactive)
REMARK    1  A    between atoms: O_2  and  C_3
REMARK    2  A    between atoms: C_6  and  C_9
REMARK    3  A    between atoms: C_17  and  C_19
REMARK                            x       y       z     vdW  Elec       q    Type
REMARK                         _______ _______ _______ _____ _____    ______ ____
ROOT
ATOM      9  C   UNL     1      -3.291   2.135  25.014  0.00  0.00    +0.012 A 
ATOM     10  C   UNL     1      -2.809   1.480  24.879  0.00  0.00    +0.041 A 
ATOM     11  C   UNL     1      -1.925   1.254  24.774  0.00  0.00    +0.058 C 
ATOM     12  C   UNL     1      -1.282   1.536  24.763  0.00  0.00    +0.011 C 
ATOM     13  C   UNL     1      -1.617   0.798  24.681  0.00  0.00    +0.043 C 
ATOM     14  C   UNL     1      -1.829  -0.159  24.558  0.00  0.00    +0.096 C 
ATOM     15  N   UNL     1      -2.660  -0.129  24.630  0.00  0.00    -0.276 N 
ATOM     16  C   UNL     1      -2.113   0.326  24.652  0.00  0.00    +0.099 C 
ATOM     17  C   UNL     1      -3.441  -0.396  24.654  0.00  0.00    +0.249 C 
ATOM     18  O   UNL     1      -4.056   0.139  24.782  0.00  0.00    -0.270 OA
ATOM     25  C   UNL     1      -2.544   1.024  24.790  0.00  0.00    +0.110 C 
ATOM     26  N   UNL     1      -3.145   0.731  24.796  0.00  0.00    -0.299 N 
ATOM     27  C   UNL     1      -3.963   0.637  24.848  0.00  0.00    +0.261 A 
ATOM     28  O   UNL     1      -4.514   0.026  24.803  0.00  0.00    -0.267 OA
ATOM     29  C   UNL     1      -4.445   1.293  24.984  0.00  0.00    +0.061 A 
ATOM     30  C   UNL     1      -4.109   2.042  25.067  0.00  0.00    +0.006 A 
ENDROOT
BRANCH   9   6
ATOM      3  C   UNL     1      -2.283   4.383  25.263  0.00  0.00    +0.139 A 
ATOM      4  C   UNL     1      -2.390   3.903  25.926  0.00  0.00    +0.037 A 
ATOM      5  C   UNL     1      -2.726   3.154  25.843  0.00  0.00    +0.003 A 
ATOM      6  C   UNL     1      -2.955   2.884  25.097  0.00  0.00    +0.001 A 
ATOM      7  C   UNL     1      -2.847   3.364  24.435  0.00  0.00    +0.003 A 
ATOM      8  C   UNL     1      -2.511   4.113  24.518  0.00  0.00    +0.037 A 
BRANCH   3   2
ATOM      1  C   UNL     1      -1.201   5.286  25.029  0.00  0.00    +0.252 C 
ATOM      2  O   UNL     1      -1.947   5.131  25.346  0.00  0.00    -0.471 OA
ENDBRANCH   3   2
ENDBRANCH   9   6
BRANCH  17  19
ATOM     19  C   UNL     1      -3.606  -1.197  24.549  0.00  0.00    +0.054 A 
ATOM     20  C   UNL     1      -3.938  -1.462  23.842  0.00  0.00    +0.005 A 
ATOM     21  C   UNL     1      -4.103  -2.264  23.737  0.00  0.00    +0.000 A 
ATOM     22  C   UNL     1      -3.936  -2.801  24.341  0.00  0.00    +0.000 A 
ATOM     23  C   UNL     1      -3.604  -2.537  25.048  0.00  0.00    +0.000 A 
ATOM     24  C   UNL     1      -3.439  -1.735  25.152  0.00  0.00    +0.005 A 
ENDBRANCH  17  19
TORSDOF 3
ENDMDL
MODEL 2
REMARK VINA RESULT:     -14.7      1.351      4.823
REMARK  Name = 
REMARK  3 active torsions:
REMARK  status: ('A' for Active; 'I' for Inactive)
REMARK    1  A    between atoms: O_2  and  C_3
REMARK    2  A    between atoms: C_6  and  C_9
REMARK    3  A    between atoms: C_17  and  C_19
REMARK                            x       y       z     vdW  Elec       q    Type
REMARK                         _______ _______ _______ _____ _____    ______ ____
ROOT
ATOM      9  C   UNL     1      -2.114   0.062  25.220  0.00  0.00    +0.012 A 
ATOM     10  C   UNL     1      -2.458   0.732  24.883  0.00  0.00    +0.041 A 
ATOM     11  C   UNL     1      -3.180   0.983  24.373  0.00  0.00    +0.058 C 
ATOM     12  C   UNL     1      -3.746   0.720  24.053  0.00  0.00    +0.011 C 
ATOM     13  C   UNL     1      -3.395   1.449  24.154  0.00  0.00    +0.043 C 
ATOM     14  C   UNL     1      -3.128   2.400  24.163  0.00  0.00    +0.096 C 
ATOM     15  N   UNL     1      -2.433   2.346  24.622  0.00  0.00    -0.276 N 
ATOM     16  C   UNL     1      -2.935   1.907  24.373  0.00  0.00    +0.099 C 
ATOM     17  C   UNL     1      -1.752   2.590  25.020  0.00  0.00    +0.249 C 
ATOM     18  O   UNL     1      -1.285   2.037  25.417  0.00  0.00    -0.270 OA
ATOM     25  C   UNL     1      -2.638   1.195  24.687  0.00  0.00    +0.110 C 
ATOM     26  N   UNL     1      -2.106   1.471  24.984  0.00  0.00    -0.299 N 
ATOM     27  C   UNL     1      -1.410   1.541  25.421  0.00  0.00    +0.261 A 
ATOM     28  O   UNL     1      -0.890   2.137  25.655  0.00  0.00    -0.267 OA
ATOM     29  C   UNL     1      -1.066   0.871  25.759  0.00  0.00    +0.061 A 
ATOM     30  C   UNL     1      -1.418   0.131  25.658  0.00  0.00    +0.006 A 
ENDROOT
BRANCH   9   6
ATOM      3  C   UNL     1      -3.171  -2.156  24.918  0.00  0.00    +0.139 A 
ATOM      4  C   UNL     1      -3.409  -1.667  25.538  0.00  0.00    +0.037 A 
ATOM      5  C   UNL     1      -3.057  -0.928  25.638  0.00  0.00    +0.003 A 
ATOM      6  C   UNL     1      -2.466  -0.678  25.119  0.00  0.00    +0.001 A 
ATOM      7  C   UNL     1      -2.228  -1.167  24.500  0.00  0.00    +0.003 A 
ATOM      8  C   UNL     1      -2.580  -1.906  24.399  0.00  0.00    +0.037 A 
BRANCH   3   2
ATOM      1  C   UNL     1      -3.983  -3.046  24.149  0.00  0.00    +0.252 C 
ATOM      2  O   UNL     1      -3.523  -2.895  24.818  0.00  0.00    -0.471 OA
ENDBRANCH   3   2
ENDBRANCH   9   6
BRANCH  17  19
ATOM     19  C   UNL     1      -1.539   3.386  25.021  0.00  0.00    +0.054 A 
ATOM     20  C   UNL     1      -0.920   3.649  24.543  0.00  0.00    +0.005 A 
ATOM     21  C   UNL     1      -0.706   4.446  24.545  0.00  0.00    +0.000 A 
ATOM     22  C   UNL     1      -1.113   4.981  25.024  0.00  0.00    +0.000 A 
ATOM     23  C   UNL     1      -1.731   4.719  25.502  0.00  0.00    +0.000 A 
ATOM     24  C   UNL     1      -1.945   3.922  25.501  0.00  0.00    +0.005 A 
ENDBRANCH  17  19
TORSDOF 3
ENDMDL
