MODEL 1
REMARK VINA RESULT:     -10.7      0.000      0.000
REMARK  Name = 
REMARK  3 active torsions:
REMARK  status: ('A' for Active; 'I' for Inactive)
REMARK    1  A    between atoms: O_2  and  C_3
REMARK    2  A    between atoms: C_8  and  C_10
REMARK    3  A    between atoms: N_13  and  C_15
REMARK                            x       y       z     vdW  Elec       q    Type
REMARK                         _______ _______ _______ _____ _____    ______ ____
ROOT
ATOM     10  C   UNL     1      -3.658   1.406  24.910  0.00  0.00    +0.076 C 
ATOM     11  C   UNL     1      -4.474   1.338  24.805  0.00  0.00    +0.026 C 
ATOM     12  C   UNL     1      -4.654   0.539  24.705  0.00  0.00    +0.073 C 
ATOM     13  N   UNL     1      -3.949   0.113  24.747  0.00  0.00    -0.273 NA
ATOM     14  C   UNL     1      -3.334   0.648  24.874  0.00  0.00    +0.080 C 
ENDROOT
BRANCH  10   8
ATOM      3  C   UNL     1      -1.538   4.228  25.259  0.00  0.00    +0.140 A 
ATOM      4  C   UNL     1      -1.562   3.447  24.995  0.00  0.00    +0.058 A 
ATOM      5  C   UNL     1      -2.261   3.013  25.052  0.00  0.00    +0.103 A 
ATOM      6  C   UNL     1      -2.937   3.360  25.373  0.00  0.00    +0.100 A 
ATOM      7  N   UNL     1      -3.542   2.801  25.359  0.00  0.00    -0.229 NA
ATOM      8  C   UNL     1      -3.241   2.107  25.029  0.00  0.00    +0.140 A 
ATOM      9  N   UNL     1      -2.449   2.239  24.840  0.00  0.00    -0.229 NA
ATOM     22  C   UNL     1      -2.913   4.142  25.638  0.00  0.00    +0.024 A 
ATOM     23  C   UNL     1      -2.214   4.575  25.580  0.00  0.00    +0.039 A 
BRANCH   3   2
ATOM      1  C   UNL     1      -0.794   5.307  24.689  0.00  0.00    +0.252 C 
ATOM      2  O   UNL     1      -0.839   4.662  25.202  0.00  0.00    -0.471 OA
ENDBRANCH   3   2
ENDBRANCH  10   8
BRANCH  13  15
ATOM     15  C   UNL     1      -3.872  -0.705  24.676  0.00  0.00    +0.060 C 
ATOM     16  C   UNL     1      -3.530  -1.143  25.287  0.00  0.00    +0.033 C 
ATOM     17  C   UNL     1      -3.453  -1.961  25.215  0.00  0.00    +0.074 C 
ATOM     18  N   UNL     1      -3.717  -2.342  24.534  0.00  0.00    -0.271 NA
ATOM     19  C   UNL     1      -3.640  -3.161  24.463  0.00  0.00    +0.090 C 
ATOM     20  C   UNL     1      -4.059  -1.906  23.923  0.00  0.00    +0.074 C 
ATOM     21  C   UNL     1      -4.136  -1.087  23.994  0.00  0.00    +0.033 C 
ENDBRANCH  13  15
TORSDOF 3
ENDMDL
MODEL 2
REMARK VINA RESULT:     -10.3      1.819      5.327
REMARK  Name = 
REMARK  3 active torsions:
REMARK  status: ('A' for Active; 'I' for Inactive)
REMARK    1  A    between atoms: O_2  and  C_3
REMARK    2  A    between atoms: C_8  and  C_10
REMARK    3  A    between atoms: N_13  and  C_15
REMARK                            x       y       z     vdW  Elec       q    Type
REMARK                         _______ _______ _______ _____ _____    ______ ____
ROOT
ATOM     10  C   UNL     1      -3.527   1.513  24.824  0.00  0.00    +0.076 C 
ATOM     11  C   UNL     1      -4.138   2.056  24.929  0.00  0.00    +0.026 C 
ATOM     12  C   UNL     1      -3.805   2.808  24.992  0.00  0.00    +0.073 C 
ATOM     13  N   UNL     1      -2.986   2.729  24.926  0.00  0.00    -0.273 NA
ATOM     14  C   UNL     1      -2.814   1.929  24.822  0.00  0.00    +0.080 C 
ENDROOT
BRANCH  10   8
ATOM      3  C   UNL     1      -3.706  -2.030  24.815  0.00  0.00    +0.140 A 
ATOM      4  C   UNL     1      -3.446  -1.382  25.254  0.00  0.00    +0.058 A 
ATOM      5  C   UNL     1      -3.558  -0.617  24.967  0.00  0.00    +0.103 A 
ATOM      6  C   UNL     1      -3.930  -0.500  24.239  0.00  0.00    +0.100 A 
ATOM      7  N   UNL     1      -3.963   0.312  24.098  0.00  0.00    -0.229 NA
ATOM      8  C   UNL     1      -3.612   0.697  24.737  0.00  0.00    +0.140 A 
ATOM      9  N   UNL     1      -3.362   0.123  25.273  0.00  0.00    -0.229 NA
ATOM     22  C   UNL     1      -4.190  -1.148  23.800  0.00  0.00    +0.024 A 
ATOM     23  C   UNL     1      -4.078  -1.913  24.088  0.00  0.00    +0.039 A 
BRANCH   3   2
ATOM      1  C   UNL     1      -3.219  -3.361  24.635  0.00  0.00    +0.252 C 
ATOM      2  O   UNL     1      -3.594  -2.794  25.103  0.00  0.00    -0.471 OA
ENDBRANCH   3   2
ENDBRANCH  10   8
BRANCH  13  15
ATOM     15  C   UNL     1      -2.436   3.343  24.958  0.00  0.00    +0.060 C 
ATOM     16  C   UNL     1      -1.684   3.240  24.633  0.00  0.00    +0.033 C 
ATOM     17  C   UNL     1      -1.134   3.854  24.665  0.00  0.00    +0.074 C 
ATOM     18  N   UNL     1      -1.334   4.570  25.022  0.00  0.00    -0.271 NA
ATOM     19  C   UNL     1      -0.782   5.183  25.053  0.00  0.00    +0.090 C 
ATOM     20  C   UNL     1      -2.084   4.673  25.347  0.00  0.00    +0.074 C 
ATOM     21  C   UNL     1      -2.636   4.059  25.315  0.00  0.00    +0.033 C 
ENDBRANCH  13  15
TORSDOF 3
ENDMDL
MODEL 3
REMARK VINA RESULT:      -8.8      2.436      4.356
REMARK  Name = 
REMARK  3 active torsions:
REMARK  status: ('A' for Active; 'I' for Inactive)
REMARK    1  A    between atoms: O_2  and  C_3
REMARK    2  A    between atoms: C_8  and  C_10
REMARK    3  A    between atoms: N_13  and  C_15
REMARK                            x       y       z     vdW  Elec       q    Type
REMARK                         _______ _______ _______ _____ _____    ______ ____
ROOT
ATOM     10  C   UNL     1      -3.381   0.536  24.752  0.00  0.00    +0.076 C 
ATOM     11  C   UNL     1      -4.108   0.160  24.652  0.00  0.00    +0.026 C 
ATOM     12  C   UNL     1      -4.704   0.714  24.791  0.00  0.00    +0.073 C 
ATOM     13  N   UNL     1      -4.344   1.433  24.977  0.00  0.00    -0.273 NA
ATOM     14  C   UNL     1      -3.526   1.322  24.953  0.00  0.00    +0.080 C 
ENDROOT
BRANCH  10   8
ATOM      3  C   UNL     1      -0.090  -0.642  24.147  0.00  0.00    +0.140 A 
ATOM      4  C   UNL     1      -0.612  -0.026  23.983  0.00  0.00    +0.058 A 
ATOM      5  C   UNL     1      -1.376  -0.037  24.296  0.00  0.00    +0.103 A 
ATOM      6  C   UNL     1      -1.617  -0.665  24.773  0.00  0.00    +0.100 A 
ATOM      7  N   UNL     1      -2.396  -0.527  25.002  0.00  0.00    -0.229 NA
ATOM      8  C   UNL     1      -2.638   0.186  24.666  0.00  0.00    +0.140 A 
ATOM      9  N   UNL     1      -2.007   0.489  24.230  0.00  0.00    -0.229 NA
ATOM     22  C   UNL     1      -1.094  -1.283  24.937  0.00  0.00    +0.024 A 
ATOM     23  C   UNL     1      -0.331  -1.271  24.624  0.00  0.00    +0.039 A 
BRANCH   3   2
ATOM      1  C   UNL     1       0.826  -0.223  23.134  0.00  0.00    +0.252 C 
ATOM      2  O   UNL     1       0.673  -0.631  23.834  0.00  0.00    -0.471 OA
ENDBRANCH   3   2
ENDBRANCH  10   8
BRANCH  13  15
ATOM     15  C   UNL     1      -4.732   2.138  25.156  0.00  0.00    +0.060 C 
ATOM     16  C   UNL     1      -5.469   2.121  25.527  0.00  0.00    +0.033 C 
ATOM     17  C   UNL     1      -5.857   2.826  25.706  0.00  0.00    +0.074 C 
ATOM     18  N   UNL     1      -5.510   3.549  25.513  0.00  0.00    -0.271 NA
ATOM     19  C   UNL     1      -5.900   4.254  25.692  0.00  0.00    +0.090 C 
ATOM     20  C   UNL     1      -4.775   3.567  25.141  0.00  0.00    +0.074 C 
ATOM     21  C   UNL     1      -4.385   2.862  24.962  0.00  0.00    +0.033 C 
ENDBRANCH  13  15
TORSDOF 3
ENDMDL
MODEL 4
REMARK VINA RESULT:      -8.6      2.778      3.883
REMARK  Name = 
REMARK  3 active torsions:
REMARK  status: ('A' for Active; 'I' for Inactive)
REMARK    1  A    between atoms: O_2  and  C_3
REMARK    2  A    between atoms: C_8  and  C_10
REMARK    3  A    between atoms: N_13  and  C_15
REMARK                            x       y       z     vdW  Elec       q    Type
REMARK                         _______ _______ _______ _____ _____    ______ ____
ROOT
ATOM     10  C   UNL     1      -2.219   0.498  24.790  0.00  0.00    +0.076 C 
ATOM     11  C   UNL     1      -1.948  -0.115  25.270  0.00  0.00    +0.026 C 
ATOM     12  C   UNL     1      -1.190  -0.321  25.019  0.00  0.00    +0.073 C 
ATOM     13  N   UNL     1      -0.992   0.165  24.383  0.00  0.00    -0.273 NA
ATOM     14  C   UNL     1      -1.628   0.672  24.242  0.00  0.00    +0.080 C 
ENDROOT
BRANCH  10   8
ATOM      3  C   UNL     1      -5.163   2.465  25.014  0.00  0.00    +0.140 A 
ATOM      4  C   UNL     1      -4.343   2.508  24.939  0.00  0.00    +0.058 A 
ATOM      5  C   UNL     1      -3.893   1.816  24.913  0.00  0.00    +0.103 A 
ATOM      6  C   UNL     1      -4.265   1.081  24.962  0.00  0.00    +0.100 A 
ATOM      7  N   UNL     1      -3.683   0.499  24.922  0.00  0.00    -0.229 NA
ATOM      8  C   UNL     1      -2.952   0.873  24.848  0.00  0.00    +0.140 A 
ATOM      9  N   UNL     1      -3.082   1.687  24.843  0.00  0.00    -0.229 NA
ATOM     22  C   UNL     1      -5.086   1.038  25.037  0.00  0.00    +0.024 A 
ATOM     23  C   UNL     1      -5.534   1.730  25.063  0.00  0.00    +0.039 A 
BRANCH   3   2
ATOM      1  C   UNL     1      -5.523   3.683  25.669  0.00  0.00    +0.252 C 
ATOM      2  O   UNL     1      -5.611   3.156  25.040  0.00  0.00    -0.471 OA
ENDBRANCH   3   2
ENDBRANCH  10   8
BRANCH  13  15
ATOM     15  C   UNL     1      -0.283   0.149  23.962  0.00  0.00    +0.060 C 
ATOM     16  C   UNL     1       0.155   0.841  23.863  0.00  0.00    +0.033 C 
ATOM     17  C   UNL     1       0.864   0.825  23.442  0.00  0.00    +0.074 C 
ATOM     18  N   UNL     1       1.136   0.116  23.119  0.00  0.00    -0.271 NA
ATOM     19  C   UNL     1       1.845   0.100  22.698  0.00  0.00    +0.090 C 
ATOM     20  C   UNL     1       0.699  -0.576  23.218  0.00  0.00    +0.074 C 
ATOM     21  C   UNL     1      -0.010  -0.560  23.639  0.00  0.00    +0.033 C 
ENDBRANCH  13  15
TORSDOF 3
ENDMDL
MODEL 5
REMARK VINA RESULT:      -8.6      2.140      2.929
REMARK  Name = 
REMARK  3 active torsions:
REMARK  status: ('A' for Active; 'I' for Inactive)
REMARK    1  A    between atoms: O_2  and  C_3
REMARK    2  A    between atoms: C_8  and  C_10
REMARK    3  A    between atoms: N_13  and  C_15
REMARK                            x       y       z     vdW  Elec       q    Type
REMARK                         _______ _______ _______ _____ _____    ______ ____
ROOT
ATOM     10  C   UNL     1      -3.845   0.116  24.785  0.00  0.00    +0.076 C 
ATOM     11  C   UNL     1      -4.129  -0.536  24.367  0.00  0.00    +0.026 C 
ATOM     12  C   UNL     1      -3.535  -1.107  24.348  0.00  0.00    +0.073 C 
ATOM     13  N   UNL     1      -2.882  -0.808  24.755  0.00  0.00    -0.273 NA
ATOM     14  C   UNL     1      -3.074  -0.052  25.025  0.00  0.00    +0.080 C 
ENDROOT
BRANCH  10   8
ATOM      3  C   UNL     1      -5.293   3.314  25.293  0.00  0.00    +0.140 A 
ATOM      4  C   UNL     1      -4.616   2.930  25.022  0.00  0.00    +0.058 A 
ATOM      5  C   UNL     1      -4.576   2.106  25.030  0.00  0.00    +0.103 A 
ATOM      6  C   UNL     1      -5.215   1.666  25.310  0.00  0.00    +0.100 A 
ATOM      7  N   UNL     1      -5.019   0.867  25.253  0.00  0.00    -0.229 NA
ATOM      8  C   UNL     1      -4.259   0.813  24.937  0.00  0.00    +0.140 A 
ATOM      9  N   UNL     1      -3.986   1.579  24.800  0.00  0.00    -0.229 NA
ATOM     22  C   UNL     1      -5.894   2.050  25.582  0.00  0.00    +0.024 A 
ATOM     23  C   UNL     1      -5.932   2.874  25.573  0.00  0.00    +0.039 A 
BRANCH   3   2
ATOM      1  C   UNL     1      -5.932   4.527  25.696  0.00  0.00    +0.252 C 
ATOM      2  O   UNL     1      -5.333   4.137  25.284  0.00  0.00    -0.471 OA
ENDBRANCH   3   2
ENDBRANCH  10   8
BRANCH  13  15
ATOM     15  C   UNL     1      -2.164  -1.196  24.871  0.00  0.00    +0.060 C 
ATOM     16  C   UNL     1      -2.083  -1.989  24.656  0.00  0.00    +0.033 C 
ATOM     17  C   UNL     1      -1.365  -2.377  24.773  0.00  0.00    +0.074 C 
ATOM     18  N   UNL     1      -0.727  -1.973  25.104  0.00  0.00    -0.271 NA
ATOM     19  C   UNL     1      -0.008  -2.362  25.221  0.00  0.00    +0.090 C 
ATOM     20  C   UNL     1      -0.806  -1.181  25.320  0.00  0.00    +0.074 C 
ATOM     21  C   UNL     1      -1.525  -0.792  25.204  0.00  0.00    +0.033 C 
ENDBRANCH  13  15
TORSDOF 3
ENDMDL
MODEL 6
REMARK VINA RESULT:      -8.1      2.317      5.120
REMARK  Name = 
REMARK  3 active torsions:
REMARK  status: ('A' for Active; 'I' for Inactive)
REMARK    1  A    between atoms: O_2  and  C_3
REMARK    2  A    between atoms: C_8  and  C_10
REMARK    3  A    between atoms: N_13  and  C_15
REMARK                            x       y       z     vdW  Elec       q    Type
REMARK                         _______ _______ _______ _____ _____    ______ ____
ROOT
ATOM     10  C   UNL     1      -3.220   1.075  24.263  0.00  0.00    +0.076 C 
ATOM     11  C   UNL     1      -2.989   1.612  23.682  0.00  0.00    +0.026 C 
ATOM     12  C   UNL     1      -3.393   2.319  23.811  0.00  0.00    +0.073 C 
ATOM     13  N   UNL     1      -3.874   2.219  24.474  0.00  0.00    -0.273 NA
ATOM     14  C   UNL     1      -3.767   1.450  24.753  0.00  0.00    +0.080 C 
ENDROOT
BRANCH  10   8
ATOM      3  C   UNL     1      -2.447  -2.379  24.499  0.00  0.00    +0.140 A 
ATOM      4  C   UNL     1      -3.054  -1.847  24.332  0.00  0.00    +0.058 A 
ATOM      5  C   UNL     1      -2.913  -1.035  24.363  0.00  0.00    +0.103 A 
ATOM      6  C   UNL     1      -2.162  -0.755  24.561  0.00  0.00    +0.100 A 
ATOM      7  N   UNL     1      -2.186   0.069  24.548  0.00  0.00    -0.229 NA
ATOM      8  C   UNL     1      -2.951   0.299  24.342  0.00  0.00    +0.140 A 
ATOM      9  N   UNL     1      -3.400  -0.384  24.228  0.00  0.00    -0.229 NA
ATOM     22  C   UNL     1      -1.554  -1.287  24.728  0.00  0.00    +0.024 A 
ATOM     23  C   UNL     1      -1.696  -2.099  24.697  0.00  0.00    +0.039 A 
BRANCH   3   2
ATOM      1  C   UNL     1      -3.345  -3.484  24.621  0.00  0.00    +0.252 C 
ATOM      2  O   UNL     1      -2.589  -3.190  24.468  0.00  0.00    -0.471 OA
ENDBRANCH   3   2
ENDBRANCH  10   8
BRANCH  13  15
ATOM     15  C   UNL     1      -4.375   2.788  24.800  0.00  0.00    +0.060 C 
ATOM     16  C   UNL     1      -4.127   3.573  24.855  0.00  0.00    +0.033 C 
ATOM     17  C   UNL     1      -4.627   4.142  25.181  0.00  0.00    +0.074 C 
ATOM     18  N   UNL     1      -5.375   3.926  25.453  0.00  0.00    -0.271 NA
ATOM     19  C   UNL     1      -5.876   4.496  25.780  0.00  0.00    +0.090 C 
ATOM     20  C   UNL     1      -5.624   3.142  25.399  0.00  0.00    +0.074 C 
ATOM     21  C   UNL     1      -5.123   2.572  25.073  0.00  0.00    +0.033 C 
ENDBRANCH  13  15
TORSDOF 3
ENDMDL
MODEL 7
REMARK VINA RESULT:      -6.8     14.504     16.190
REMARK  Name = 
REMARK  3 active torsions:
REMARK  status: ('A' for Active; 'I' for Inactive)
REMARK    1  A    between atoms: O_2  and  C_3
REMARK    2  A    between atoms: C_8  and  C_10
REMARK    3  A    between atoms: N_13  and  C_15
REMARK                            x       y       z     vdW  Elec       q    Type
REMARK                         _______ _______ _______ _____ _____    ______ ____
ROOT
ATOM     10  C   UNL     1      -3.023 -10.682  15.049  0.00  0.00    +0.076 C 
ATOM     11  C   UNL     1      -2.471 -10.758  15.657  0.00  0.00    +0.026 C 
ATOM     12  C   UNL     1      -2.881 -10.781  16.373  0.00  0.00    +0.073 C 
ATOM     13  N   UNL     1      -3.686 -10.720  16.208  0.00  0.00    -0.273 NA
ATOM     14  C   UNL     1      -3.774 -10.659  15.389  0.00  0.00    +0.080 C 
ENDROOT
BRANCH  10   8
ATOM      3  C   UNL     1      -2.693 -10.389  11.530  0.00  0.00    +0.140 A 
ATOM      4  C   UNL     1      -3.231 -10.323  12.151  0.00  0.00    +0.058 A 
ATOM      5  C   UNL     1      -2.986 -10.466  12.926  0.00  0.00    +0.103 A 
ATOM      6  C   UNL     1      -2.203 -10.674  13.079  0.00  0.00    +0.100 A 
ATOM      7  N   UNL     1      -2.121 -10.780  13.893  0.00  0.00    -0.229 NA
ATOM      8  C   UNL     1      -2.854 -10.638  14.243  0.00  0.00    +0.140 A 
ATOM      9  N   UNL     1      -3.388 -10.444  13.645  0.00  0.00    -0.229 NA
ATOM     22  C   UNL     1      -1.664 -10.739  12.457  0.00  0.00    +0.024 A 
ATOM     23  C   UNL     1      -1.909 -10.597  11.683  0.00  0.00    +0.039 A 
BRANCH   3   2
ATOM      1  C   UNL     1      -2.934  -9.478  10.456  0.00  0.00    +0.252 C 
ATOM      2  O   UNL     1      -2.938 -10.247  10.756  0.00  0.00    -0.471 OA
ENDBRANCH   3   2
ENDBRANCH  10   8
BRANCH  13  15
ATOM     15  C   UNL     1      -4.297 -10.720  16.762  0.00  0.00    +0.060 C 
ATOM     16  C   UNL     1      -4.124 -10.781  17.566  0.00  0.00    +0.033 C 
ATOM     17  C   UNL     1      -4.735 -10.781  18.121  0.00  0.00    +0.074 C 
ATOM     18  N   UNL     1      -5.518 -10.719  17.872  0.00  0.00    -0.271 NA
ATOM     19  C   UNL     1      -6.129 -10.719  18.427  0.00  0.00    +0.090 C 
ATOM     20  C   UNL     1      -5.692 -10.657  17.068  0.00  0.00    +0.074 C 
ATOM     21  C   UNL     1      -5.081 -10.658  16.513  0.00  0.00    +0.033 C 
ENDBRANCH  13  15
TORSDOF 3
ENDMDL
MODEL 8
REMARK VINA RESULT:      -6.7     15.180     17.554
REMARK  Name = 
REMARK  3 active torsions:
REMARK  status: ('A' for Active; 'I' for Inactive)
REMARK    1  A    between atoms: O_2  and  C_3
REMARK    2  A    between atoms: C_8  and  C_10
REMARK    3  A    between atoms: N_13  and  C_15
REMARK                            x       y       z     vdW  Elec       q    Type
REMARK                         _______ _______ _______ _____ _____    ______ ____
ROOT
ATOM     10  C   UNL     1      -2.663 -10.197  12.023  0.00  0.00    +0.076 C 
ATOM     11  C   UNL     1      -1.967 -10.630  11.928  0.00  0.00    +0.026 C 
ATOM     12  C   UNL     1      -1.654 -10.779  12.677  0.00  0.00    +0.073 C 
ATOM     13  N   UNL     1      -2.157 -10.437  13.235  0.00  0.00    -0.273 NA
ATOM     14  C   UNL     1      -2.780 -10.078  12.830  0.00  0.00    +0.080 C 
ENDROOT
BRANCH  10   8
ATOM      3  C   UNL     1      -5.089  -9.221   9.626  0.00  0.00    +0.140 A 
ATOM      4  C   UNL     1      -4.989  -9.616  10.343  0.00  0.00    +0.058 A 
ATOM      5  C   UNL     1      -4.237  -9.683  10.677  0.00  0.00    +0.103 A 
ATOM      6  C   UNL     1      -3.585  -9.355  10.292  0.00  0.00    +0.100 A 
ATOM      7  N   UNL     1      -2.916  -9.508  10.749  0.00  0.00    -0.229 NA
ATOM      8  C   UNL     1      -3.154  -9.930  11.417  0.00  0.00    +0.140 A 
ATOM      9  N   UNL     1      -3.970 -10.038  11.371  0.00  0.00    -0.229 NA
ATOM     22  C   UNL     1      -3.684  -8.960   9.574  0.00  0.00    +0.024 A 
ATOM     23  C   UNL     1      -4.436  -8.893   9.242  0.00  0.00    +0.039 A 
BRANCH   3   2
ATOM      1  C   UNL     1      -5.984  -9.446   8.536  0.00  0.00    +0.252 C 
ATOM      2  O   UNL     1      -5.840  -9.153   9.294  0.00  0.00    -0.471 OA
ENDBRANCH   3   2
ENDBRANCH  10   8
BRANCH  13  15
ATOM     15  C   UNL     1      -2.055 -10.452  14.053  0.00  0.00    +0.060 C 
ATOM     16  C   UNL     1      -1.362 -10.154  14.388  0.00  0.00    +0.033 C 
ATOM     17  C   UNL     1      -1.260 -10.169  15.207  0.00  0.00    +0.074 C 
ATOM     18  N   UNL     1      -1.850 -10.482  15.690  0.00  0.00    -0.271 NA
ATOM     19  C   UNL     1      -1.747 -10.497  16.509  0.00  0.00    +0.090 C 
ATOM     20  C   UNL     1      -2.542 -10.781  15.357  0.00  0.00    +0.074 C 
ATOM     21  C   UNL     1      -2.645 -10.766  14.538  0.00  0.00    +0.033 C 
ENDBRANCH  13  15
TORSDOF 3
ENDMDL
