MODEL 1
REMARK VINA RESULT:     -12.8      0.000      0.000
REMARK  Name = 
REMARK  7 active torsions:
REMARK  status: ('A' for Active; 'I' for Inactive)
REMARK    1  A    between atoms: C_5  and  C_6
REMARK    2  A    between atoms: C_6  and  C_7
REMARK    3  A    between atoms: C_10  and  C_12
REMARK    4  A    between atoms: C_20  and  C_21
REMARK    5  A    between atoms: C_21  and  N_22
REMARK    6  A    between atoms: N_22  and  C_23
REMARK    7  A    between atoms: C_23  and  C_24
REMARK                            x       y       z     vdW  Elec       q    Type
REMARK                         _______ _______ _______ _____ _____    ______ ____
ROOT
ATOM      1  O   UNL     1      -5.608   3.364  26.380  0.00  0.00    -0.220 OA
ATOM      2  C   UNL     1      -5.306   2.893  25.774  0.00  0.00    +0.180 C 
ATOM      3  C   UNL     1      -5.771   2.295  25.447  0.00  0.00    +0.038 C 
ATOM      4  C   UNL     1      -5.469   1.823  24.840  0.00  0.00    +0.033 C 
ATOM      5  C   UNL     1      -4.703   1.951  24.562  0.00  0.00    +0.121 C 
ATOM     19  O   UNL     1      -4.239   2.549  24.889  0.00  0.00    -0.354 OA
ATOM     20  C   UNL     1      -4.540   3.020  25.495  0.00  0.00    +0.163 C 
ENDROOT
BRANCH   5   6
ATOM      6  C   UNL     1      -4.401   1.479  23.955  0.00  0.00    +0.079 C 
BRANCH   6   7
ATOM      7  C   UNL     1      -3.944   0.817  24.136  0.00  0.00    +0.103 A 
ATOM      8  N   UNL     1      -3.131   0.814  24.281  0.00  0.00    -0.081 NA
ATOM      9  O   UNL     1      -2.904   0.037  24.438  0.00  0.00    -0.354 OA
ATOM     10  C   UNL     1      -3.575  -0.440  24.390  0.00  0.00    +0.177 A 
ATOM     11  C   UNL     1      -4.217   0.042  24.203  0.00  0.00    +0.058 A 
BRANCH  10  12
ATOM     12  C   UNL     1      -3.599  -1.257  24.508  0.00  0.00    +0.037 A 
ATOM     13  C   UNL     1      -3.916  -1.748  23.927  0.00  0.00    +0.005 A 
ATOM     14  C   UNL     1      -3.940  -2.565  24.045  0.00  0.00    +0.030 A 
ATOM     15  C   UNL     1      -3.647  -2.889  24.744  0.00  0.00    +0.140 A 
ATOM     16  F   UNL     1      -3.671  -3.705  24.863  0.00  0.00    -0.204 F 
ATOM     17  C   UNL     1      -3.329  -2.397  25.326  0.00  0.00    +0.030 A 
ATOM     18  C   UNL     1      -3.305  -1.581  25.208  0.00  0.00    +0.005 A 
ENDBRANCH  10  12
ENDBRANCH   6   7
ENDBRANCH   5   6
BRANCH  20  21
ATOM     21  C   UNL     1      -4.076   3.618  25.822  0.00  0.00    +0.121 C 
BRANCH  21  22
ATOM     22  N   UNL     1      -3.360   3.826  25.467  0.00  0.00    -0.209 NA
BRANCH  22  23
ATOM     23  C   UNL     1      -2.772   4.198  25.910  0.00  0.00    +0.134 C 
BRANCH  23  24
ATOM     24  C   UNL     1      -2.039   4.360  25.569  0.00  0.00    +0.077 A 
ATOM     25  N   UNL     1      -1.464   3.770  25.527  0.00  0.00    -0.247 NA
ATOM     26  C   UNL     1      -0.730   3.933  25.186  0.00  0.00    +0.098 A 
ATOM     27  C   UNL     1      -0.573   4.685  24.886  0.00  0.00    +0.021 A 
ATOM     28  C   UNL     1      -1.148   5.275  24.927  0.00  0.00    +0.003 A 
ATOM     29  C   UNL     1      -1.881   5.112  25.268  0.00  0.00    +0.016 A 
ENDBRANCH  23  24
ENDBRANCH  22  23
ENDBRANCH  21  22
ENDBRANCH  20  21
TORSDOF 7
ENDMDL
MODEL 2
REMARK VINA RESULT:     -12.5      1.991      2.905
REMARK  Name = 
REMARK  7 active torsions:
REMARK  status: ('A' for Active; 'I' for Inactive)
REMARK    1  A    between atoms: C_5  and  C_6
REMARK    2  A    between atoms: C_6  and  C_7
REMARK    3  A    between atoms: C_10  and  C_12
REMARK    4  A    between atoms: C_20  and  C_21
REMARK    5  A    between atoms: C_21  and  N_22
REMARK    6  A    between atoms: N_22  and  C_23
REMARK    7  A    between atoms: C_23  and  C_24
REMARK                            x       y       z     vdW  Elec       q    Type
REMARK                         _______ _______ _______ _____ _____    ______ ____
ROOT
ATOM      1  O   UNL     1      -1.784   4.127  25.535  0.00  0.00    -0.220 OA
ATOM      2  C   UNL     1      -2.373   3.643  25.222  0.00  0.00    +0.180 C 
ATOM      3  C   UNL     1      -3.167   3.842  25.324  0.00  0.00    +0.038 C 
ATOM      4  C   UNL     1      -3.758   3.358  25.010  0.00  0.00    +0.033 C 
ATOM      5  C   UNL     1      -3.554   2.676  24.595  0.00  0.00    +0.121 C 
ATOM     19  O   UNL     1      -2.760   2.477  24.493  0.00  0.00    -0.354 OA
ATOM     20  C   UNL     1      -2.170   2.960  24.806  0.00  0.00    +0.163 C 
ENDROOT
BRANCH   5   6
ATOM      6  C   UNL     1      -4.145   2.192  24.281  0.00  0.00    +0.079 C 
BRANCH   6   7
ATOM      7  C   UNL     1      -4.279   1.444  24.603  0.00  0.00    +0.103 A 
ATOM      8  N   UNL     1      -4.736   1.278  25.270  0.00  0.00    -0.081 NA
ATOM      9  O   UNL     1      -4.720   0.462  25.392  0.00  0.00    -0.354 OA
ATOM     10  C   UNL     1      -4.253   0.125  24.802  0.00  0.00    +0.177 A 
ATOM     11  C   UNL     1      -3.981   0.731  24.314  0.00  0.00    +0.058 A 
BRANCH  10  12
ATOM     12  C   UNL     1      -4.088  -0.679  24.715  0.00  0.00    +0.037 A 
ATOM     13  C   UNL     1      -3.738  -1.098  25.333  0.00  0.00    +0.005 A 
ATOM     14  C   UNL     1      -3.573  -1.902  25.246  0.00  0.00    +0.030 A 
ATOM     15  C   UNL     1      -3.758  -2.287  24.540  0.00  0.00    +0.140 A 
ATOM     16  F   UNL     1      -3.593  -3.090  24.453  0.00  0.00    -0.204 F 
ATOM     17  C   UNL     1      -4.108  -1.868  23.921  0.00  0.00    +0.030 A 
ATOM     18  C   UNL     1      -4.273  -1.064  24.008  0.00  0.00    +0.005 A 
ENDBRANCH  10  12
ENDBRANCH   6   7
ENDBRANCH   5   6
BRANCH  20  21
ATOM     21  C   UNL     1      -1.376   2.761  24.704  0.00  0.00    +0.121 C 
BRANCH  21  22
ATOM     22  N   UNL     1      -1.171   2.018  24.406  0.00  0.00    -0.209 NA
BRANCH  22  23
ATOM     23  C   UNL     1      -0.415   1.715  24.537  0.00  0.00    +0.134 C 
BRANCH  23  24
ATOM     24  C   UNL     1      -0.236   0.944  24.309  0.00  0.00    +0.077 A 
ATOM     25  N   UNL     1       0.152   0.805  23.594  0.00  0.00    -0.247 NA
ATOM     26  C   UNL     1       0.333   0.033  23.365  0.00  0.00    +0.098 A 
ATOM     27  C   UNL     1       0.125  -0.600  23.851  0.00  0.00    +0.021 A 
ATOM     28  C   UNL     1      -0.263  -0.461  24.566  0.00  0.00    +0.003 A 
ATOM     29  C   UNL     1      -0.443   0.310  24.794  0.00  0.00    +0.016 A 
ENDBRANCH  23  24
ENDBRANCH  22  23
ENDBRANCH  21  22
ENDBRANCH  20  21
TORSDOF 7
ENDMDL
MODEL 3
REMARK VINA RESULT:     -12.5      1.666      3.329
REMARK  Name = 
REMARK  7 active torsions:
REMARK  status: ('A' for Active; 'I' for Inactive)
REMARK    1  A    between atoms: C_5  and  C_6
REMARK    2  A    between atoms: C_6  and  C_7
REMARK    3  A    between atoms: C_10  and  C_12
REMARK    4  A    between atoms: C_20  and  C_21
REMARK    5  A    between atoms: C_21  and  N_22
REMARK    6  A    between atoms: N_22  and  C_23
REMARK    7  A    between atoms: C_23  and  C_24
REMARK                            x       y       z     vdW  Elec       q    Type
REMARK                         _______ _______ _______ _____ _____    ______ ____
ROOT
ATOM      1  O   UNL     1      -1.076   3.879  25.752  0.00  0.00    -0.220 OA
ATOM      2  C   UNL     1      -0.957   3.097  25.517  0.00  0.00    +0.180 C 
ATOM      3  C   UNL     1      -0.279   2.694  25.756  0.00  0.00    +0.038 C 
ATOM      4  C   UNL     1      -0.159   1.911  25.521  0.00  0.00    +0.033 C 
ATOM      5  C   UNL     1      -0.718   1.534  25.046  0.00  0.00    +0.121 C 
ATOM     19  O   UNL     1      -1.397   1.938  24.807  0.00  0.00    -0.354 OA
ATOM     20  C   UNL     1      -1.516   2.719  25.042  0.00  0.00    +0.163 C 
ENDROOT
BRANCH   5   6
ATOM      6  C   UNL     1      -0.598   0.752  24.811  0.00  0.00    +0.079 C 
BRANCH   6   7
ATOM      7  C   UNL     1      -1.114   0.160  25.067  0.00  0.00    +0.103 A 
ATOM      8  N   UNL     1      -1.198  -0.108  25.843  0.00  0.00    -0.081 NA
ATOM      9  O   UNL     1      -1.771  -0.700  25.847  0.00  0.00    -0.354 OA
ATOM     10  C   UNL     1      -2.042  -0.798  25.074  0.00  0.00    +0.177 A 
ATOM     11  C   UNL     1      -1.636  -0.267  24.592  0.00  0.00    +0.058 A 
BRANCH  10  12
ATOM     12  C   UNL     1      -2.618  -1.335  24.827  0.00  0.00    +0.037 A 
ATOM     13  C   UNL     1      -2.426  -2.130  24.727  0.00  0.00    +0.005 A 
ATOM     14  C   UNL     1      -3.003  -2.667  24.480  0.00  0.00    +0.030 A 
ATOM     15  C   UNL     1      -3.771  -2.407  24.332  0.00  0.00    +0.140 A 
ATOM     16  F   UNL     1      -4.348  -2.942  24.085  0.00  0.00    -0.204 F 
ATOM     17  C   UNL     1      -3.964  -1.610  24.431  0.00  0.00    +0.030 A 
ATOM     18  C   UNL     1      -3.388  -1.074  24.679  0.00  0.00    +0.005 A 
ENDBRANCH  10  12
ENDBRANCH   6   7
ENDBRANCH   5   6
BRANCH  20  21
ATOM     21  C   UNL     1      -2.194   3.123  24.802  0.00  0.00    +0.121 C 
BRANCH  21  22
ATOM     22  N   UNL     1      -2.940   2.838  25.012  0.00  0.00    -0.209 NA
BRANCH  22  23
ATOM     23  C   UNL     1      -3.615   3.139  24.646  0.00  0.00    +0.134 C 
BRANCH  23  24
ATOM     24  C   UNL     1      -4.362   2.883  24.884  0.00  0.00    +0.077 A 
ATOM     25  N   UNL     1      -4.769   3.291  25.474  0.00  0.00    -0.247 NA
ATOM     26  C   UNL     1      -5.517   3.036  25.713  0.00  0.00    +0.098 A 
ATOM     27  C   UNL     1      -5.857   2.372  25.360  0.00  0.00    +0.021 A 
ATOM     28  C   UNL     1      -5.450   1.964  24.770  0.00  0.00    +0.003 A 
ATOM     29  C   UNL     1      -4.703   2.219  24.532  0.00  0.00    +0.016 A 
ENDBRANCH  23  24
ENDBRANCH  22  23
ENDBRANCH  21  22
ENDBRANCH  20  21
TORSDOF 7
ENDMDL
MODEL 4
REMARK VINA RESULT:     -12.3      2.128      4.175
REMARK  Name = 
REMARK  7 active torsions:
REMARK  status: ('A' for Active; 'I' for Inactive)
REMARK    1  A    between atoms: C_5  and  C_6
REMARK    2  A    between atoms: C_6  and  C_7
REMARK    3  A    between atoms: C_10  and  C_12
REMARK    4  A    between atoms: C_20  and  C_21
REMARK    5  A    between atoms: C_21  and  N_22
REMARK    6  A    between atoms: N_22  and  C_23
REMARK    7  A    between atoms: C_23  and  C_24
REMARK                            x       y       z     vdW  Elec       q    Type
REMARK                         _______ _______ _______ _____ _____    ______ ____
ROOT
ATOM      1  O   UNL     1      -0.345  -1.528  24.529  0.00  0.00    -0.220 OA
ATOM      2  C   UNL     1      -1.129  -1.422  24.760  0.00  0.00    +0.180 C 
ATOM      3  C   UNL     1      -1.687  -2.010  24.609  0.00  0.00    +0.038 C 
ATOM      4  C   UNL     1      -2.473  -1.904  24.841  0.00  0.00    +0.033 C 
ATOM      5  C   UNL     1      -2.699  -1.208  25.222  0.00  0.00    +0.121 C 
ATOM     19  O   UNL     1      -2.141  -0.620  25.373  0.00  0.00    -0.354 OA
ATOM     20  C   UNL     1      -1.357  -0.726  25.142  0.00  0.00    +0.163 C 
ENDROOT
BRANCH   5   6
ATOM      6  C   UNL     1      -3.484  -1.102  25.454  0.00  0.00    +0.079 C 
BRANCH   6   7
ATOM      7  C   UNL     1      -3.935  -0.498  25.118  0.00  0.00    +0.103 A 
ATOM      8  N   UNL     1      -4.301  -0.520  24.378  0.00  0.00    -0.081 NA
ATOM      9  O   UNL     1      -4.691   0.198  24.266  0.00  0.00    -0.354 OA
ATOM     10  C   UNL     1      -4.566   0.663  24.935  0.00  0.00    +0.177 A 
ATOM     11  C   UNL     1      -4.099   0.233  25.461  0.00  0.00    +0.058 A 
BRANCH  10  12
ATOM     12  C   UNL     1      -4.858   1.426  25.057  0.00  0.00    +0.037 A 
ATOM     13  C   UNL     1      -5.546   1.539  25.495  0.00  0.00    +0.005 A 
ATOM     14  C   UNL     1      -5.838   2.302  25.617  0.00  0.00    +0.030 A 
ATOM     15  C   UNL     1      -5.440   2.951  25.300  0.00  0.00    +0.140 A 
ATOM     16  F   UNL     1      -5.731   3.713  25.421  0.00  0.00    -0.204 F 
ATOM     17  C   UNL     1      -4.750   2.838  24.861  0.00  0.00    +0.030 A 
ATOM     18  C   UNL     1      -4.459   2.075  24.739  0.00  0.00    +0.005 A 
ENDBRANCH  10  12
ENDBRANCH   6   7
ENDBRANCH   5   6
BRANCH  20  21
ATOM     21  C   UNL     1      -0.799  -0.138  25.292  0.00  0.00    +0.121 C 
BRANCH  21  22
ATOM     22  N   UNL     1      -0.997   0.657  25.183  0.00  0.00    -0.209 NA
BRANCH  22  23
ATOM     23  C   UNL     1      -0.462   1.248  25.396  0.00  0.00    +0.134 C 
BRANCH  23  24
ATOM     24  C   UNL     1      -0.655   2.040  25.274  0.00  0.00    +0.077 A 
ATOM     25  N   UNL     1      -0.597   2.367  24.519  0.00  0.00    -0.247 NA
ATOM     26  C   UNL     1      -0.789   3.161  24.396  0.00  0.00    +0.098 A 
ATOM     27  C   UNL     1      -1.039   3.626  25.030  0.00  0.00    +0.021 A 
ATOM     28  C   UNL     1      -1.097   3.299  25.785  0.00  0.00    +0.003 A 
ATOM     29  C   UNL     1      -0.905   2.507  25.907  0.00  0.00    +0.016 A 
ENDBRANCH  23  24
ENDBRANCH  22  23
ENDBRANCH  21  22
ENDBRANCH  20  21
TORSDOF 7
ENDMDL
MODEL 5
REMARK VINA RESULT:     -12.1      1.966      4.966
REMARK  Name = 
REMARK  7 active torsions:
REMARK  status: ('A' for Active; 'I' for Inactive)
REMARK    1  A    between atoms: C_5  and  C_6
REMARK    2  A    between atoms: C_6  and  C_7
REMARK    3  A    between atoms: C_10  and  C_12
REMARK    4  A    between atoms: C_20  and  C_21
REMARK    5  A    between atoms: C_21  and  N_22
REMARK    6  A    between atoms: N_22  and  C_23
REMARK    7  A    between atoms: C_23  and  C_24
REMARK                            x       y       z     vdW  Elec       q    Type
REMARK                         _______ _______ _______ _____ _____    ______ ____
ROOT
ATOM      1  O   UNL     1       0.539   1.531  24.325  0.00  0.00    -0.220 OA
ATOM      2  C   UNL     1      -0.038   2.011  24.665  0.00  0.00    +0.180 C 
ATOM      3  C   UNL     1      -0.028   2.825  24.532  0.00  0.00    +0.038 C 
ATOM      4  C   UNL     1      -0.607   3.306  24.872  0.00  0.00    +0.033 C 
ATOM      5  C   UNL     1      -1.194   2.972  25.345  0.00  0.00    +0.121 C 
ATOM     19  O   UNL     1      -1.204   2.158  25.477  0.00  0.00    -0.354 OA
ATOM     20  C   UNL     1      -0.627   1.678  25.138  0.00  0.00    +0.163 C 
ENDROOT
BRANCH   5   6
ATOM      6  C   UNL     1      -1.773   3.453  25.685  0.00  0.00    +0.079 C 
BRANCH   6   7
ATOM      7  C   UNL     1      -2.533   3.475  25.364  0.00  0.00    +0.103 A 
ATOM      8  N   UNL     1      -2.804   4.007  24.795  0.00  0.00    -0.081 NA
ATOM      9  O   UNL     1      -3.593   3.829  24.636  0.00  0.00    -0.354 OA
ATOM     10  C   UNL     1      -3.809   3.186  25.107  0.00  0.00    +0.177 A 
ATOM     11  C   UNL     1      -3.154   2.968  25.556  0.00  0.00    +0.058 A 
BRANCH  10  12
ATOM     12  C   UNL     1      -4.552   2.826  25.124  0.00  0.00    +0.037 A 
ATOM     13  C   UNL     1      -4.698   2.160  24.660  0.00  0.00    +0.005 A 
ATOM     14  C   UNL     1      -5.440   1.800  24.677  0.00  0.00    +0.030 A 
ATOM     15  C   UNL     1      -6.036   2.105  25.158  0.00  0.00    +0.140 A 
ATOM     16  F   UNL     1      -6.778   1.745  25.176  0.00  0.00    -0.204 F 
ATOM     17  C   UNL     1      -5.890   2.772  25.623  0.00  0.00    +0.030 A 
ATOM     18  C   UNL     1      -5.148   3.132  25.606  0.00  0.00    +0.005 A 
ENDBRANCH  10  12
ENDBRANCH   6   7
ENDBRANCH   5   6
BRANCH  20  21
ATOM     21  C   UNL     1      -0.637   0.864  25.270  0.00  0.00    +0.121 C 
BRANCH  21  22
ATOM     22  N   UNL     1      -1.342   0.441  25.191  0.00  0.00    -0.209 NA
BRANCH  22  23
ATOM     23  C   UNL     1      -1.386  -0.340  25.452  0.00  0.00    +0.134 C 
BRANCH  23  24
ATOM     24  C   UNL     1      -2.072  -0.779  25.324  0.00  0.00    +0.077 A 
ATOM     25  N   UNL     1      -2.138  -1.254  24.652  0.00  0.00    -0.247 NA
ATOM     26  C   UNL     1      -2.825  -1.694  24.524  0.00  0.00    +0.098 A 
ATOM     27  C   UNL     1      -3.445  -1.658  25.067  0.00  0.00    +0.021 A 
ATOM     28  C   UNL     1      -3.378  -1.183  25.739  0.00  0.00    +0.003 A 
ATOM     29  C   UNL     1      -2.692  -0.744  25.867  0.00  0.00    +0.016 A 
ENDBRANCH  23  24
ENDBRANCH  22  23
ENDBRANCH  21  22
ENDBRANCH  20  21
TORSDOF 7
ENDMDL
MODEL 6
REMARK VINA RESULT:      -9.1     16.621     19.011
REMARK  Name = 
REMARK  7 active torsions:
REMARK  status: ('A' for Active; 'I' for Inactive)
REMARK    1  A    between atoms: C_5  and  C_6
REMARK    2  A    between atoms: C_6  and  C_7
REMARK    3  A    between atoms: C_10  and  C_12
REMARK    4  A    between atoms: C_20  and  C_21
REMARK    5  A    between atoms: C_21  and  N_22
REMARK    6  A    between atoms: N_22  and  C_23
REMARK    7  A    between atoms: C_23  and  C_24
REMARK                            x       y       z     vdW  Elec       q    Type
REMARK                         _______ _______ _______ _____ _____    ______ ____
ROOT
ATOM      1  O   UNL     1      10.409   8.603  17.133  0.00  0.00    -0.220 OA
ATOM      2  C   UNL     1      11.222   8.675  17.247  0.00  0.00    +0.180 C 
ATOM      3  C   UNL     1      11.728   8.712  16.597  0.00  0.00    +0.038 C 
ATOM      4  C   UNL     1      12.543   8.784  16.711  0.00  0.00    +0.033 C 
ATOM      5  C   UNL     1      12.850   8.819  17.475  0.00  0.00    +0.121 C 
ATOM     19  O   UNL     1      12.344   8.781  18.126  0.00  0.00    -0.354 OA
ATOM     20  C   UNL     1      11.531   8.709  18.012  0.00  0.00    +0.163 C 
ENDROOT
BRANCH   5   6
ATOM      6  C   UNL     1      13.665   8.891  17.589  0.00  0.00    +0.079 C 
BRANCH   6   7
ATOM      7  C   UNL     1      14.101   8.249  17.869  0.00  0.00    +0.103 A 
ATOM      8  N   UNL     1      14.337   7.592  17.427  0.00  0.00    -0.081 NA
ATOM      9  O   UNL     1      14.759   7.089  17.925  0.00  0.00    -0.354 OA
ATOM     10  C   UNL     1      14.784   7.433  18.675  0.00  0.00    +0.177 A 
ATOM     11  C   UNL     1      14.377   8.149  18.640  0.00  0.00    +0.058 A 
BRANCH  10  12
ATOM     12  C   UNL     1      15.151   7.115  19.342  0.00  0.00    +0.037 A 
ATOM     13  C   UNL     1      14.696   6.809  19.957  0.00  0.00    +0.005 A 
ATOM     14  C   UNL     1      15.064   6.491  20.624  0.00  0.00    +0.030 A 
ATOM     15  C   UNL     1      15.887   6.481  20.676  0.00  0.00    +0.140 A 
ATOM     16  F   UNL     1      16.255   6.163  21.342  0.00  0.00    -0.204 F 
ATOM     17  C   UNL     1      16.343   6.787  20.060  0.00  0.00    +0.030 A 
ATOM     18  C   UNL     1      15.975   7.105  19.393  0.00  0.00    +0.005 A 
ENDBRANCH  10  12
ENDBRANCH   6   7
ENDBRANCH   5   6
BRANCH  20  21
ATOM     21  C   UNL     1      11.025   8.672  18.662  0.00  0.00    +0.121 C 
BRANCH  21  22
ATOM     22  N   UNL     1      11.252   8.257  19.339  0.00  0.00    -0.209 NA
BRANCH  22  23
ATOM     23  C   UNL     1      10.849   8.372  20.049  0.00  0.00    +0.134 C 
BRANCH  23  24
ATOM     24  C   UNL     1      11.104   7.993  20.735  0.00  0.00    +0.077 A 
ATOM     25  N   UNL     1      10.960   7.188  20.839  0.00  0.00    -0.247 NA
ATOM     26  C   UNL     1      11.216   6.808  21.526  0.00  0.00    +0.098 A 
ATOM     27  C   UNL     1      11.616   7.234  22.108  0.00  0.00    +0.021 A 
ATOM     28  C   UNL     1      11.761   8.039  22.003  0.00  0.00    +0.003 A 
ATOM     29  C   UNL     1      11.505   8.419  21.318  0.00  0.00    +0.016 A 
ENDBRANCH  23  24
ENDBRANCH  22  23
ENDBRANCH  21  22
ENDBRANCH  20  21
TORSDOF 7
ENDMDL
