MODEL 1
REMARK VINA RESULT:     -12.8      0.000      0.000
REMARK  Name = 
REMARK  6 active torsions:
REMARK  status: ('A' for Active; 'I' for Inactive)
REMARK    1  A    between atoms: C_5  and  S_8
REMARK    2  A    between atoms: S_8  and  N_11
REMARK    3  A    between atoms: N_11  and  C_12
REMARK    4  A    between atoms: C_16  and  O_20
REMARK    5  A    between atoms: O_20  and  C_21
REMARK    6  A    between atoms: N_23  and  C_24
REMARK                            x       y       z     vdW  Elec       q    Type
REMARK                         _______ _______ _______ _____ _____    ______ ____
ROOT
ATOM     12  C   UNL     1      -0.246   1.706  24.958  0.00  0.00    +0.157 C 
ATOM     13  C   UNL     1      -0.571   1.634  25.712  0.00  0.00    +0.164 C 
ATOM     14  O   UNL     1      -0.731   0.835  25.846  0.00  0.00    -0.348 OA
ATOM     15  C   UNL     1      -0.506   0.415  25.173  0.00  0.00    +0.186 C 
ATOM     16  C   UNL     1      -0.466  -0.339  24.839  0.00  0.00    +0.229 C 
ATOM     17  C   UNL     1      -0.140  -0.267  24.084  0.00  0.00    +0.188 C 
ATOM     18  O   UNL     1       0.020   0.532  23.952  0.00  0.00    -0.348 OA
ATOM     19  C   UNL     1      -0.206   0.953  24.625  0.00  0.00    +0.166 C 
ENDROOT
BRANCH  12  11
ATOM     11  N   UNL     1      -0.004   2.409  24.600  0.00  0.00    -0.074 NA
BRANCH  11   8
ATOM      8  S   UNL     1      -0.422   3.106  24.735  0.00  0.00    +0.077 S 
ATOM      9  O   UNL     1      -0.012   3.218  25.441  0.00  0.00    -0.152 OA
ATOM     10  O   UNL     1      -0.833   2.995  24.028  0.00  0.00    -0.152 OA
BRANCH   8   5
ATOM      1 CL   UNL     1      -2.095   5.899  25.273  0.00  0.00    -0.082 Cl
ATOM      2  C   UNL     1      -1.677   5.202  25.139  0.00  0.00    +0.058 A 
ATOM      3  C   UNL     1      -0.885   5.232  24.909  0.00  0.00    +0.013 A 
ATOM      4  C   UNL     1      -0.467   4.535  24.775  0.00  0.00    +0.021 A 
ATOM      5  C   UNL     1      -0.841   3.804  24.869  0.00  0.00    +0.124 A 
ATOM      6  C   UNL     1      -1.632   3.773  25.099  0.00  0.00    +0.021 A 
ATOM      7  C   UNL     1      -2.051   4.471  25.234  0.00  0.00    +0.013 A 
ENDBRANCH   8   5
ENDBRANCH  11   8
ENDBRANCH  12  11
BRANCH  16  20
ATOM     20  O   UNL     1      -0.708  -1.042  25.198  0.00  0.00    -0.432 OA
BRANCH  20  21
ATOM     21  C   UNL     1      -1.292  -1.504  24.846  0.00  0.00    +0.425 C 
ATOM     22  O   UNL     1      -1.096  -2.018  24.229  0.00  0.00    -0.224 OA
ATOM     23  N   UNL     1      -2.072  -1.455  25.108  0.00  0.00    -0.142 NA
BRANCH  23  24
ATOM     24  C   UNL     1      -2.657  -1.918  24.755  0.00  0.00    +0.077 A 
ATOM     25  C   UNL     1      -2.518  -2.718  24.611  0.00  0.00    +0.017 A 
ATOM     26  C   UNL     1      -3.103  -3.182  24.258  0.00  0.00    +0.001 A 
ATOM     27  C   UNL     1      -3.826  -2.844  24.049  0.00  0.00    +0.000 A 
ATOM     28  C   UNL     1      -3.965  -2.044  24.192  0.00  0.00    +0.001 A 
ATOM     29  C   UNL     1      -4.688  -1.706  23.983  0.00  0.00    +0.000 A 
ATOM     30  C   UNL     1      -4.827  -0.907  24.127  0.00  0.00    +0.000 A 
ATOM     31  C   UNL     1      -4.241  -0.443  24.480  0.00  0.00    +0.000 A 
ATOM     32  C   UNL     1      -3.519  -0.780  24.689  0.00  0.00    +0.001 A 
ATOM     33  C   UNL     1      -3.379  -1.581  24.546  0.00  0.00    +0.015 A 
ENDBRANCH  23  24
ENDBRANCH  20  21
ENDBRANCH  16  20
TORSDOF 6
ENDMDL
MODEL 2
REMARK VINA RESULT:     -12.2      1.990      5.570
REMARK  Name = 
REMARK  6 active torsions:
REMARK  status: ('A' for Active; 'I' for Inactive)
REMARK    1  A    between atoms: C_5  and  S_8
REMARK    2  A    between atoms: S_8  and  N_11
REMARK    3  A    between atoms: N_11  and  C_12
REMARK    4  A    between atoms: C_16  and  O_20
REMARK    5  A    between atoms: O_20  and  C_21
REMARK    6  A    between atoms: N_23  and  C_24
REMARK                            x       y       z     vdW  Elec       q    Type
REMARK                         _______ _______ _______ _____ _____    ______ ____
ROOT
ATOM     12  C   UNL     1      -0.996  -0.673  24.989  0.00  0.00    +0.157 C 
ATOM     13  C   UNL     1      -1.263  -0.527  25.755  0.00  0.00    +0.164 C 
ATOM     14  O   UNL     1      -0.997   0.221  25.980  0.00  0.00    -0.348 OA
ATOM     15  C   UNL     1      -0.566   0.536  25.352  0.00  0.00    +0.186 C 
ATOM     16  C   UNL     1      -0.135   1.194  25.102  0.00  0.00    +0.229 C 
ATOM     17  C   UNL     1       0.133   1.048  24.335  0.00  0.00    +0.188 C 
ATOM     18  O   UNL     1      -0.133   0.300  24.111  0.00  0.00    -0.348 OA
ATOM     19  C   UNL     1      -0.565  -0.016  24.740  0.00  0.00    +0.166 C 
ENDROOT
BRANCH  12  11
ATOM     11  N   UNL     1      -1.136  -1.357  24.549  0.00  0.00    -0.074 NA
BRANCH  11   8
ATOM      8  S   UNL     1      -1.909  -1.613  24.417  0.00  0.00    +0.077 S 
ATOM      9  O   UNL     1      -1.921  -1.207  23.699  0.00  0.00    -0.152 OA
ATOM     10  O   UNL     1      -1.897  -2.019  25.135  0.00  0.00    -0.152 OA
BRANCH   8   5
ATOM      1 CL   UNL     1      -5.002  -2.632  23.888  0.00  0.00    -0.082 Cl
ATOM      2  C   UNL     1      -4.230  -2.378  24.020  0.00  0.00    +0.058 A 
ATOM      3  C   UNL     1      -4.017  -1.598  23.852  0.00  0.00    +0.013 A 
ATOM      4  C   UNL     1      -3.244  -1.343  23.985  0.00  0.00    +0.021 A 
ATOM      5  C   UNL     1      -2.682  -1.868  24.285  0.00  0.00    +0.124 A 
ATOM      6  C   UNL     1      -2.894  -2.647  24.452  0.00  0.00    +0.021 A 
ATOM      7  C   UNL     1      -3.667  -2.903  24.320  0.00  0.00    +0.013 A 
ENDBRANCH   8   5
ENDBRANCH  11   8
ENDBRANCH  12  11
BRANCH  16  20
ATOM     20  O   UNL     1       0.005   1.879  25.543  0.00  0.00    -0.432 OA
BRANCH  20  21
ATOM     21  C   UNL     1      -0.263   2.608  25.268  0.00  0.00    +0.425 C 
ATOM     22  O   UNL     1      -0.039   2.873  24.518  0.00  0.00    -0.224 OA
ATOM     23  N   UNL     1      -0.754   3.073  25.740  0.00  0.00    -0.142 NA
BRANCH  23  24
ATOM     24  C   UNL     1      -1.021   3.803  25.464  0.00  0.00    +0.077 A 
ATOM     25  C   UNL     1      -0.519   4.286  25.024  0.00  0.00    +0.017 A 
ATOM     26  C   UNL     1      -0.787   5.017  24.748  0.00  0.00    +0.001 A 
ATOM     27  C   UNL     1      -1.557   5.263  24.913  0.00  0.00    +0.000 A 
ATOM     28  C   UNL     1      -2.059   4.779  25.352  0.00  0.00    +0.001 A 
ATOM     29  C   UNL     1      -2.829   5.024  25.517  0.00  0.00    +0.000 A 
ATOM     30  C   UNL     1      -3.332   4.541  25.956  0.00  0.00    +0.000 A 
ATOM     31  C   UNL     1      -3.064   3.810  26.232  0.00  0.00    +0.000 A 
ATOM     32  C   UNL     1      -2.294   3.564  26.068  0.00  0.00    +0.001 A 
ATOM     33  C   UNL     1      -1.791   4.048  25.628  0.00  0.00    +0.015 A 
ENDBRANCH  23  24
ENDBRANCH  20  21
ENDBRANCH  16  20
TORSDOF 6
ENDMDL
MODEL 3
REMARK VINA RESULT:     -11.9      2.016      2.955
REMARK  Name = 
REMARK  6 active torsions:
REMARK  status: ('A' for Active; 'I' for Inactive)
REMARK    1  A    between atoms: C_5  and  S_8
REMARK    2  A    between atoms: S_8  and  N_11
REMARK    3  A    between atoms: N_11  and  C_12
REMARK    4  A    between atoms: C_16  and  O_20
REMARK    5  A    between atoms: O_20  and  C_21
REMARK    6  A    between atoms: N_23  and  C_24
REMARK                            x       y       z     vdW  Elec       q    Type
REMARK                         _______ _______ _______ _____ _____    ______ ____
ROOT
ATOM     12  C   UNL     1      -3.820   2.743  24.723  0.00  0.00    +0.157 C 
ATOM     13  C   UNL     1      -3.608   2.674  23.929  0.00  0.00    +0.164 C 
ATOM     14  O   UNL     1      -3.826   1.921  23.672  0.00  0.00    -0.348 OA
ATOM     15  C   UNL     1      -4.173   1.526  24.307  0.00  0.00    +0.186 C 
ATOM     16  C   UNL     1      -4.523   0.816  24.541  0.00  0.00    +0.229 C 
ATOM     17  C   UNL     1      -4.735   0.886  25.336  0.00  0.00    +0.188 C 
ATOM     18  O   UNL     1      -4.516   1.638  25.592  0.00  0.00    -0.348 OA
ATOM     19  C   UNL     1      -4.169   2.034  24.956  0.00  0.00    +0.166 C 
ENDROOT
BRANCH  12  11
ATOM     11  N   UNL     1      -3.702   3.407  25.199  0.00  0.00    -0.074 NA
BRANCH  11   8
ATOM      8  S   UNL     1      -3.000   3.835  25.145  0.00  0.00    +0.077 S 
ATOM      9  O   UNL     1      -2.705   3.436  25.804  0.00  0.00    -0.152 OA
ATOM     10  O   UNL     1      -3.294   4.234  24.486  0.00  0.00    -0.152 OA
BRANCH   8   5
ATOM      1 CL   UNL     1      -0.188   5.550  24.930  0.00  0.00    -0.082 Cl
ATOM      2  C   UNL     1      -0.891   5.122  24.983  0.00  0.00    +0.058 A 
ATOM      3  C   UNL     1      -1.611   5.517  25.059  0.00  0.00    +0.013 A 
ATOM      4  C   UNL     1      -2.313   5.089  25.113  0.00  0.00    +0.021 A 
ATOM      5  C   UNL     1      -2.296   4.263  25.091  0.00  0.00    +0.124 A 
ATOM      6  C   UNL     1      -1.577   3.868  25.016  0.00  0.00    +0.021 A 
ATOM      7  C   UNL     1      -0.874   4.296  24.962  0.00  0.00    +0.013 A 
ENDBRANCH   8   5
ENDBRANCH  11   8
ENDBRANCH  12  11
BRANCH  16  20
ATOM     20  O   UNL     1      -4.640   0.152  24.064  0.00  0.00    -0.432 OA
BRANCH  20  21
ATOM     21  C   UNL     1      -4.353  -0.582  24.302  0.00  0.00    +0.425 C 
ATOM     22  O   UNL     1      -4.761  -1.021  24.870  0.00  0.00    -0.224 OA
ATOM     23  N   UNL     1      -3.658  -0.881  23.973  0.00  0.00    -0.142 NA
BRANCH  23  24
ATOM     24  C   UNL     1      -3.371  -1.616  24.211  0.00  0.00    +0.077 A 
ATOM     25  C   UNL     1      -3.881  -2.262  24.259  0.00  0.00    +0.017 A 
ATOM     26  C   UNL     1      -3.593  -2.999  24.498  0.00  0.00    +0.001 A 
ATOM     27  C   UNL     1      -2.796  -3.088  24.688  0.00  0.00    +0.000 A 
ATOM     28  C   UNL     1      -2.286  -2.442  24.641  0.00  0.00    +0.001 A 
ATOM     29  C   UNL     1      -1.488  -2.530  24.832  0.00  0.00    +0.000 A 
ATOM     30  C   UNL     1      -0.978  -1.885  24.785  0.00  0.00    +0.000 A 
ATOM     31  C   UNL     1      -1.266  -1.148  24.546  0.00  0.00    +0.000 A 
ATOM     32  C   UNL     1      -2.063  -1.059  24.355  0.00  0.00    +0.001 A 
ATOM     33  C   UNL     1      -2.574  -1.705  24.402  0.00  0.00    +0.015 A 
ENDBRANCH  23  24
ENDBRANCH  20  21
ENDBRANCH  16  20
TORSDOF 6
ENDMDL
MODEL 4
REMARK VINA RESULT:     -11.4      2.736      6.176
REMARK  Name = 
REMARK  6 active torsions:
REMARK  status: ('A' for Active; 'I' for Inactive)
REMARK    1  A    between atoms: C_5  and  S_8
REMARK    2  A    between atoms: S_8  and  N_11
REMARK    3  A    between atoms: N_11  and  C_12
REMARK    4  A    between atoms: C_16  and  O_20
REMARK    5  A    between atoms: O_20  and  C_21
REMARK    6  A    between atoms: N_23  and  C_24
REMARK                            x       y       z     vdW  Elec       q    Type
REMARK                         _______ _______ _______ _____ _____    ______ ____
ROOT
ATOM     12  C   UNL     1      -4.584   0.580  24.712  0.00  0.00    +0.157 C 
ATOM     13  C   UNL     1      -4.495   0.628  25.530  0.00  0.00    +0.164 C 
ATOM     14  O   UNL     1      -4.367   1.419  25.727  0.00  0.00    -0.348 OA
ATOM     15  C   UNL     1      -4.377   1.859  25.030  0.00  0.00    +0.186 C 
ATOM     16  C   UNL     1      -4.304   2.620  24.720  0.00  0.00    +0.229 C 
ATOM     17  C   UNL     1      -4.394   2.573  23.901  0.00  0.00    +0.188 C 
ATOM     18  O   UNL     1      -4.522   1.782  23.705  0.00  0.00    -0.348 OA
ATOM     19  C   UNL     1      -4.512   1.340  24.403  0.00  0.00    +0.166 C 
ENDROOT
BRANCH  12  11
ATOM     11  N   UNL     1      -4.722  -0.109  24.279  0.00  0.00    -0.074 NA
BRANCH  11   8
ATOM      8  S   UNL     1      -4.189  -0.736  24.320  0.00  0.00    +0.077 S 
ATOM      9  O   UNL     1      -3.949  -0.584  23.546  0.00  0.00    -0.152 OA
ATOM     10  O   UNL     1      -4.428  -0.889  25.094  0.00  0.00    -0.152 OA
BRANCH   8   5
ATOM      1 CL   UNL     1      -2.056  -3.249  24.482  0.00  0.00    -0.082 Cl
ATOM      2  C   UNL     1      -2.589  -2.622  24.442  0.00  0.00    +0.058 A 
ATOM      3  C   UNL     1      -3.392  -2.769  24.323  0.00  0.00    +0.013 A 
ATOM      4  C   UNL     1      -3.925  -2.141  24.282  0.00  0.00    +0.021 A 
ATOM      5  C   UNL     1      -3.655  -1.364  24.361  0.00  0.00    +0.124 A 
ATOM      6  C   UNL     1      -2.853  -1.217  24.480  0.00  0.00    +0.021 A 
ATOM      7  C   UNL     1      -2.319  -1.845  24.520  0.00  0.00    +0.013 A 
ENDBRANCH   8   5
ENDBRANCH  11   8
ENDBRANCH  12  11
BRANCH  16  20
ATOM     20  O   UNL     1      -4.166   3.309  25.154  0.00  0.00    -0.432 OA
BRANCH  20  21
ATOM     21  C   UNL     1      -3.487   3.755  25.014  0.00  0.00    +0.425 C 
ATOM     22  O   UNL     1      -3.463   4.284  24.381  0.00  0.00    -0.224 OA
ATOM     23  N   UNL     1      -2.830   3.672  25.507  0.00  0.00    -0.142 NA
BRANCH  23  24
ATOM     24  C   UNL     1      -2.150   4.118  25.368  0.00  0.00    +0.077 A 
ATOM     25  C   UNL     1      -2.214   4.918  25.176  0.00  0.00    +0.017 A 
ATOM     26  C   UNL     1      -1.533   5.364  25.037  0.00  0.00    +0.001 A 
ATOM     27  C   UNL     1      -0.791   5.010  25.088  0.00  0.00    +0.000 A 
ATOM     28  C   UNL     1      -0.727   4.211  25.280  0.00  0.00    +0.001 A 
ATOM     29  C   UNL     1       0.016   3.856  25.331  0.00  0.00    +0.000 A 
ATOM     30  C   UNL     1       0.080   3.057  25.522  0.00  0.00    +0.000 A 
ATOM     31  C   UNL     1      -0.601   2.610  25.662  0.00  0.00    +0.000 A 
ATOM     32  C   UNL     1      -1.344   2.964  25.610  0.00  0.00    +0.001 A 
ATOM     33  C   UNL     1      -1.408   3.764  25.419  0.00  0.00    +0.015 A 
ENDBRANCH  23  24
ENDBRANCH  20  21
ENDBRANCH  16  20
TORSDOF 6
ENDMDL
MODEL 5
REMARK VINA RESULT:     -11.2      1.530      2.037
REMARK  Name = 
REMARK  6 active torsions:
REMARK  status: ('A' for Active; 'I' for Inactive)
REMARK    1  A    between atoms: C_5  and  S_8
REMARK    2  A    between atoms: S_8  and  N_11
REMARK    3  A    between atoms: N_11  and  C_12
REMARK    4  A    between atoms: C_16  and  O_20
REMARK    5  A    between atoms: O_20  and  C_21
REMARK    6  A    between atoms: N_23  and  C_24
REMARK                            x       y       z     vdW  Elec       q    Type
REMARK                         _______ _______ _______ _____ _____    ______ ____
ROOT
ATOM     12  C   UNL     1      -1.203   2.731  25.225  0.00  0.00    +0.157 C 
ATOM     13  C   UNL     1      -1.060   2.454  25.988  0.00  0.00    +0.164 C 
ATOM     14  O   UNL     1      -0.726   1.702  25.928  0.00  0.00    -0.348 OA
ATOM     15  C   UNL     1      -0.663   1.515  25.127  0.00  0.00    +0.186 C 
ATOM     16  C   UNL     1      -0.418   0.934  24.594  0.00  0.00    +0.229 C 
ATOM     17  C   UNL     1      -0.561   1.211  23.830  0.00  0.00    +0.188 C 
ATOM     18  O   UNL     1      -0.895   1.963  23.891  0.00  0.00    -0.348 OA
ATOM     19  C   UNL     1      -0.958   2.151  24.693  0.00  0.00    +0.166 C 
ENDROOT
BRANCH  12  11
ATOM     11  N   UNL     1      -1.534   3.461  25.028  0.00  0.00    -0.074 NA
BRANCH  11   8
ATOM      8  S   UNL     1      -2.341   3.591  25.134  0.00  0.00    +0.077 S 
ATOM      9  O   UNL     1      -2.459   3.527  24.321  0.00  0.00    -0.152 OA
ATOM     10  O   UNL     1      -2.224   3.655  25.948  0.00  0.00    -0.152 OA
BRANCH   8   5
ATOM      1 CL   UNL     1      -5.573   4.109  25.554  0.00  0.00    -0.082 Cl
ATOM      2  C   UNL     1      -4.766   3.979  25.449  0.00  0.00    +0.058 A 
ATOM      3  C   UNL     1      -4.480   3.719  24.720  0.00  0.00    +0.013 A 
ATOM      4  C   UNL     1      -3.673   3.589  24.615  0.00  0.00    +0.021 A 
ATOM      5  C   UNL     1      -3.149   3.720  25.240  0.00  0.00    +0.124 A 
ATOM      6  C   UNL     1      -3.434   3.980  25.969  0.00  0.00    +0.021 A 
ATOM      7  C   UNL     1      -4.242   4.110  26.074  0.00  0.00    +0.013 A 
ENDBRANCH   8   5
ENDBRANCH  11   8
ENDBRANCH  12  11
BRANCH  16  20
ATOM     20  O   UNL     1      -0.087   0.203  24.791  0.00  0.00    -0.432 OA
BRANCH  20  21
ATOM     21  C   UNL     1      -0.459  -0.494  24.558  0.00  0.00    +0.425 C 
ATOM     22  O   UNL     1      -0.264  -0.845  23.837  0.00  0.00    -0.224 OA
ATOM     23  N   UNL     1      -1.027  -0.842  25.045  0.00  0.00    -0.142 NA
BRANCH  23  24
ATOM     24  C   UNL     1      -1.400  -1.540  24.812  0.00  0.00    +0.077 A 
ATOM     25  C   UNL     1      -0.982  -2.106  24.382  0.00  0.00    +0.017 A 
ATOM     26  C   UNL     1      -1.355  -2.805  24.148  0.00  0.00    +0.001 A 
ATOM     27  C   UNL     1      -2.145  -2.936  24.345  0.00  0.00    +0.000 A 
ATOM     28  C   UNL     1      -2.562  -2.370  24.775  0.00  0.00    +0.001 A 
ATOM     29  C   UNL     1      -3.352  -2.502  24.973  0.00  0.00    +0.000 A 
ATOM     30  C   UNL     1      -3.770  -1.936  25.403  0.00  0.00    +0.000 A 
ATOM     31  C   UNL     1      -3.397  -1.237  25.637  0.00  0.00    +0.000 A 
ATOM     32  C   UNL     1      -2.607  -1.105  25.440  0.00  0.00    +0.001 A 
ATOM     33  C   UNL     1      -2.189  -1.671  25.009  0.00  0.00    +0.015 A 
ENDBRANCH  23  24
ENDBRANCH  20  21
ENDBRANCH  16  20
TORSDOF 6
ENDMDL
MODEL 6
REMARK VINA RESULT:     -11.0      2.958      4.187
REMARK  Name = 
REMARK  6 active torsions:
REMARK  status: ('A' for Active; 'I' for Inactive)
REMARK    1  A    between atoms: C_5  and  S_8
REMARK    2  A    between atoms: S_8  and  N_11
REMARK    3  A    between atoms: N_11  and  C_12
REMARK    4  A    between atoms: C_16  and  O_20
REMARK    5  A    between atoms: O_20  and  C_21
REMARK    6  A    between atoms: N_23  and  C_24
REMARK                            x       y       z     vdW  Elec       q    Type
REMARK                         _______ _______ _______ _____ _____    ______ ____
ROOT
ATOM     12  C   UNL     1       1.167   0.208  23.204  0.00  0.00    +0.157 C 
ATOM     13  C   UNL     1       1.118  -0.565  23.485  0.00  0.00    +0.164 C 
ATOM     14  O   UNL     1       0.482  -0.607  24.009  0.00  0.00    -0.348 OA
ATOM     15  C   UNL     1       0.138   0.141  24.051  0.00  0.00    +0.186 C 
ATOM     16  C   UNL     1      -0.468   0.579  24.401  0.00  0.00    +0.229 C 
ATOM     17  C   UNL     1      -0.419   1.354  24.120  0.00  0.00    +0.188 C 
ATOM     18  O   UNL     1       0.217   1.394  23.596  0.00  0.00    -0.348 OA
ATOM     19  C   UNL     1       0.562   0.645  23.553  0.00  0.00    +0.166 C 
ENDROOT
BRANCH  12  11
ATOM     11  N   UNL     1       1.724   0.494  22.667  0.00  0.00    -0.074 NA
BRANCH  11   8
ATOM      8  S   UNL     1       2.529   0.393  22.814  0.00  0.00    +0.077 S 
ATOM      9  O   UNL     1       2.546   1.110  23.221  0.00  0.00    -0.152 OA
ATOM     10  O   UNL     1       2.513  -0.324  22.407  0.00  0.00    -0.152 OA
BRANCH   8   5
ATOM      1 CL   UNL     1       5.751  -0.008  23.402  0.00  0.00    -0.082 Cl
ATOM      2  C   UNL     1       4.947   0.092  23.255  0.00  0.00    +0.058 A 
ATOM      3  C   UNL     1       4.661   0.822  22.998  0.00  0.00    +0.013 A 
ATOM      4  C   UNL     1       3.856   0.923  22.851  0.00  0.00    +0.021 A 
ATOM      5  C   UNL     1       3.335   0.292  22.961  0.00  0.00    +0.124 A 
ATOM      6  C   UNL     1       3.619  -0.438  23.218  0.00  0.00    +0.021 A 
ATOM      7  C   UNL     1       4.425  -0.539  23.365  0.00  0.00    +0.013 A 
ENDBRANCH   8   5
ENDBRANCH  11   8
ENDBRANCH  12  11
BRANCH  16  20
ATOM     20  O   UNL     1      -1.025   0.293  24.939  0.00  0.00    -0.432 OA
BRANCH  20  21
ATOM     21  C   UNL     1      -1.814   0.216  24.713  0.00  0.00    +0.425 C 
ATOM     22  O   UNL     1      -2.190   0.831  24.311  0.00  0.00    -0.224 OA
ATOM     23  N   UNL     1      -2.228  -0.475  24.888  0.00  0.00    -0.142 NA
BRANCH  23  24
ATOM     24  C   UNL     1      -3.018  -0.552  24.662  0.00  0.00    +0.077 A 
ATOM     25  C   UNL     1      -3.503   0.114  24.627  0.00  0.00    +0.017 A 
ATOM     26  C   UNL     1      -4.294   0.037  24.400  0.00  0.00    +0.001 A 
ATOM     27  C   UNL     1      -4.597  -0.705  24.211  0.00  0.00    +0.000 A 
ATOM     28  C   UNL     1      -4.113  -1.371  24.246  0.00  0.00    +0.001 A 
ATOM     29  C   UNL     1      -4.417  -2.114  24.056  0.00  0.00    +0.000 A 
ATOM     30  C   UNL     1      -3.932  -2.780  24.092  0.00  0.00    +0.000 A 
ATOM     31  C   UNL     1      -3.141  -2.703  24.319  0.00  0.00    +0.000 A 
ATOM     32  C   UNL     1      -2.837  -1.961  24.508  0.00  0.00    +0.001 A 
ATOM     33  C   UNL     1      -3.322  -1.294  24.473  0.00  0.00    +0.015 A 
ENDBRANCH  23  24
ENDBRANCH  20  21
ENDBRANCH  16  20
TORSDOF 6
ENDMDL
MODEL 7
REMARK VINA RESULT:     -10.9      3.163      4.393
REMARK  Name = 
REMARK  6 active torsions:
REMARK  status: ('A' for Active; 'I' for Inactive)
REMARK    1  A    between atoms: C_5  and  S_8
REMARK    2  A    between atoms: S_8  and  N_11
REMARK    3  A    between atoms: N_11  and  C_12
REMARK    4  A    between atoms: C_16  and  O_20
REMARK    5  A    between atoms: O_20  and  C_21
REMARK    6  A    between atoms: N_23  and  C_24
REMARK                            x       y       z     vdW  Elec       q    Type
REMARK                         _______ _______ _______ _____ _____    ______ ____
ROOT
ATOM     12  C   UNL     1       1.218   0.372  23.208  0.00  0.00    +0.157 C 
ATOM     13  C   UNL     1       1.247   1.134  23.524  0.00  0.00    +0.164 C 
ATOM     14  O   UNL     1       0.611   1.221  24.041  0.00  0.00    -0.348 OA
ATOM     15  C   UNL     1       0.188   0.513  24.046  0.00  0.00    +0.186 C 
ATOM     16  C   UNL     1      -0.467   0.128  24.368  0.00  0.00    +0.229 C 
ATOM     17  C   UNL     1      -0.497  -0.634  24.053  0.00  0.00    +0.188 C 
ATOM     18  O   UNL     1       0.140  -0.720  23.535  0.00  0.00    -0.348 OA
ATOM     19  C   UNL     1       0.563  -0.011  23.531  0.00  0.00    +0.166 C 
ENDROOT
BRANCH  12  11
ATOM     11  N   UNL     1       1.750   0.052  22.666  0.00  0.00    -0.074 NA
BRANCH  11   8
ATOM      8  S   UNL     1       2.560   0.083  22.814  0.00  0.00    +0.077 S 
ATOM      9  O   UNL     1       2.539  -0.690  23.099  0.00  0.00    -0.152 OA
ATOM     10  O   UNL     1       2.582   0.857  22.529  0.00  0.00    -0.152 OA
BRANCH   8   5
ATOM      1 CL   UNL     1       5.804   0.206  23.409  0.00  0.00    -0.082 Cl
ATOM      2  C   UNL     1       4.994   0.175  23.260  0.00  0.00    +0.058 A 
ATOM      3  C   UNL     1       4.561  -0.497  23.466  0.00  0.00    +0.013 A 
ATOM      4  C   UNL     1       3.751  -0.528  23.317  0.00  0.00    +0.021 A 
ATOM      5  C   UNL     1       3.371   0.115  22.962  0.00  0.00    +0.124 A 
ATOM      6  C   UNL     1       3.803   0.786  22.757  0.00  0.00    +0.021 A 
ATOM      7  C   UNL     1       4.615   0.817  22.906  0.00  0.00    +0.013 A 
ENDBRANCH   8   5
ENDBRANCH  11   8
ENDBRANCH  12  11
BRANCH  16  20
ATOM     20  O   UNL     1      -0.999   0.450  24.911  0.00  0.00    -0.432 OA
BRANCH  20  21
ATOM     21  C   UNL     1      -1.796   0.240  24.882  0.00  0.00    +0.425 C 
ATOM     22  O   UNL     1      -2.012  -0.555  24.836  0.00  0.00    -0.224 OA
ATOM     23  N   UNL     1      -2.377   0.825  24.898  0.00  0.00    -0.142 NA
BRANCH  23  24
ATOM     24  C   UNL     1      -3.175   0.615  24.868  0.00  0.00    +0.077 A 
ATOM     25  C   UNL     1      -3.394  -0.179  24.911  0.00  0.00    +0.017 A 
ATOM     26  C   UNL     1      -4.192  -0.389  24.881  0.00  0.00    +0.001 A 
ATOM     27  C   UNL     1      -4.769   0.195  24.808  0.00  0.00    +0.000 A 
ATOM     28  C   UNL     1      -4.550   0.989  24.765  0.00  0.00    +0.001 A 
ATOM     29  C   UNL     1      -5.128   1.574  24.693  0.00  0.00    +0.000 A 
ATOM     30  C   UNL     1      -4.909   2.367  24.650  0.00  0.00    +0.000 A 
ATOM     31  C   UNL     1      -4.111   2.577  24.680  0.00  0.00    +0.000 A 
ATOM     32  C   UNL     1      -3.533   1.993  24.752  0.00  0.00    +0.001 A 
ATOM     33  C   UNL     1      -3.752   1.199  24.795  0.00  0.00    +0.015 A 
ENDBRANCH  23  24
ENDBRANCH  20  21
ENDBRANCH  16  20
TORSDOF 6
ENDMDL
