MODEL 1
REMARK VINA RESULT:     -10.9      0.000      0.000
REMARK  Name = 
REMARK  6 active torsions:
REMARK  status: ('A' for Active; 'I' for Inactive)
REMARK    1  A    between atoms: C_3  and  C_4
REMARK    2  A    between atoms: C_4  and  N_5
REMARK    3  A    between atoms: N_5  and  S_6
REMARK    4  A    between atoms: S_6  and  C_9
REMARK    5  A    between atoms: C_17  and  N_18
REMARK    6  A    between atoms: N_18  and  C_19
REMARK                            x       y       z     vdW  Elec       q    Type
REMARK                         _______ _______ _______ _____ _____    ______ ____
ROOT
ATOM      1  O   UNL     1      -4.208   1.175  24.990  0.00  0.00    -0.219 OA
ATOM      2  C   UNL     1      -3.494   0.762  24.983  0.00  0.00    +0.199 C 
ATOM      3  C   UNL     1      -2.742   1.095  24.930  0.00  0.00    +0.166 C 
ATOM     15  O   UNL     1      -2.189   0.482  24.942  0.00  0.00    -0.350 OA
ATOM     16  C   UNL     1      -2.601  -0.230  25.004  0.00  0.00    +0.162 C 
ATOM     17  C   UNL     1      -3.407  -0.057  25.029  0.00  0.00    +0.135 C 
ENDROOT
BRANCH   3   4
ATOM      4  C   UNL     1      -2.571   1.901  24.873  0.00  0.00    +0.148 C 
BRANCH   4   5
ATOM      5  N   UNL     1      -1.812   2.175  25.044  0.00  0.00    -0.075 NA
BRANCH   5   6
ATOM      6  S   UNL     1      -1.655   2.984  25.040  0.00  0.00    +0.077 S 
ATOM      7  O   UNL     1      -1.648   2.987  25.864  0.00  0.00    -0.152 OA
ATOM      8  O   UNL     1      -1.663   2.981  24.215  0.00  0.00    -0.152 OA
BRANCH   6   9
ATOM      9  C   UNL     1      -1.498   3.794  25.035  0.00  0.00    +0.124 A 
ATOM     10  C   UNL     1      -2.067   4.327  25.308  0.00  0.00    +0.020 A 
ATOM     11  C   UNL     1      -1.910   5.136  25.304  0.00  0.00    +0.001 A 
ATOM     12  C   UNL     1      -1.185   5.414  25.026  0.00  0.00    +0.000 A 
ATOM     13  C   UNL     1      -0.616   4.883  24.753  0.00  0.00    +0.001 A 
ATOM     14  C   UNL     1      -0.773   4.073  24.757  0.00  0.00    +0.020 A 
ENDBRANCH   6   9
ENDBRANCH   5   6
ENDBRANCH   4   5
ENDBRANCH   3   4
BRANCH  17  18
ATOM     18  N   UNL     1      -4.019  -0.607  25.090  0.00  0.00    -0.216 NA
BRANCH  18  19
ATOM     19  C   UNL     1      -3.922  -1.368  24.786  0.00  0.00    +0.073 C 
ATOM     20  C   UNL     1      -3.543  -1.946  25.235  0.00  0.00    +0.017 C 
ATOM     21  C   UNL     1      -3.447  -2.708  24.932  0.00  0.00    +0.001 C 
ATOM     22  C   UNL     1      -3.730  -2.890  24.178  0.00  0.00    +0.000 C 
ATOM     23  C   UNL     1      -4.109  -2.311  23.729  0.00  0.00    +0.001 C 
ATOM     24  C   UNL     1      -4.205  -1.550  24.033  0.00  0.00    +0.017 C 
ENDBRANCH  18  19
ENDBRANCH  17  18
TORSDOF 6
ENDMDL
MODEL 2
REMARK VINA RESULT:     -10.6      1.183      5.620
REMARK  Name = 
REMARK  6 active torsions:
REMARK  status: ('A' for Active; 'I' for Inactive)
REMARK    1  A    between atoms: C_3  and  C_4
REMARK    2  A    between atoms: C_4  and  N_5
REMARK    3  A    between atoms: N_5  and  S_6
REMARK    4  A    between atoms: S_6  and  C_9
REMARK    5  A    between atoms: C_17  and  N_18
REMARK    6  A    between atoms: N_18  and  C_19
REMARK                            x       y       z     vdW  Elec       q    Type
REMARK                         _______ _______ _______ _____ _____    ______ ____
ROOT
ATOM      1  O   UNL     1      -1.133   1.266  25.696  0.00  0.00    -0.219 OA
ATOM      2  C   UNL     1      -1.753   1.692  25.356  0.00  0.00    +0.199 C 
ATOM      3  C   UNL     1      -2.401   1.371  24.959  0.00  0.00    +0.166 C 
ATOM     15  O   UNL     1      -2.881   1.995  24.711  0.00  0.00    -0.350 OA
ATOM     16  C   UNL     1      -2.530   2.700  24.954  0.00  0.00    +0.162 C 
ATOM     17  C   UNL     1      -1.832   2.513  25.353  0.00  0.00    +0.135 C 
ENDROOT
BRANCH   3   4
ATOM      4  C   UNL     1      -2.544   0.568  24.833  0.00  0.00    +0.148 C 
BRANCH   4   5
ATOM      5  N   UNL     1      -3.311   0.304  24.687  0.00  0.00    -0.075 NA
BRANCH   5   6
ATOM      6  S   UNL     1      -3.457  -0.501  24.585  0.00  0.00    +0.077 S 
ATOM      7  O   UNL     1      -3.838  -0.524  25.316  0.00  0.00    -0.152 OA
ATOM      8  O   UNL     1      -3.076  -0.478  23.854  0.00  0.00    -0.152 OA
BRANCH   6   9
ATOM      9  C   UNL     1      -3.604  -1.307  24.484  0.00  0.00    +0.124 A 
ATOM     10  C   UNL     1      -3.217  -1.860  24.959  0.00  0.00    +0.020 A 
ATOM     11  C   UNL     1      -3.363  -2.665  24.857  0.00  0.00    +0.001 A 
ATOM     12  C   UNL     1      -3.896  -2.918  24.280  0.00  0.00    +0.000 A 
ATOM     13  C   UNL     1      -4.282  -2.366  23.805  0.00  0.00    +0.001 A 
ATOM     14  C   UNL     1      -4.136  -1.560  23.906  0.00  0.00    +0.020 A 
ENDBRANCH   6   9
ENDBRANCH   5   6
ENDBRANCH   4   5
ENDBRANCH   3   4
BRANCH  17  18
ATOM     18  N   UNL     1      -1.307   3.052  25.690  0.00  0.00    -0.216 NA
BRANCH  18  19
ATOM     19  C   UNL     1      -1.273   3.827  25.409  0.00  0.00    +0.073 C 
ATOM     20  C   UNL     1      -1.848   4.373  25.633  0.00  0.00    +0.017 C 
ATOM     21  C   UNL     1      -1.815   5.148  25.351  0.00  0.00    +0.001 C 
ATOM     22  C   UNL     1      -1.204   5.376  24.845  0.00  0.00    +0.000 C 
ATOM     23  C   UNL     1      -0.628   4.830  24.621  0.00  0.00    +0.001 C 
ATOM     24  C   UNL     1      -0.663   4.055  24.903  0.00  0.00    +0.017 C 
ENDBRANCH  18  19
ENDBRANCH  17  18
TORSDOF 6
ENDMDL
