MODEL 1
REMARK VINA RESULT:     -11.5      0.000      0.000
REMARK  Name = 
REMARK  7 active torsions:
REMARK  status: ('A' for Active; 'I' for Inactive)
REMARK    1  A    between atoms: C_8  and  C_10
REMARK    2  A    between atoms: C_10  and  C_11
REMARK    3  A    between atoms: C_16  and  C_17
REMARK    4  A    between atoms: C_17  and  C_18
REMARK    5  A    between atoms: C_21  and  C_22
REMARK    6  A    between atoms: C_22  and  O_23
REMARK    7  A    between atoms: O_23  and  C_24
REMARK                            x       y       z     vdW  Elec       q    Type
REMARK                         _______ _______ _______ _____ _____    ______ ____
ROOT
ATOM     11  C   UNL     1      -2.801   3.373  25.144  0.00  0.00    +0.012 C 
ATOM     12  C   UNL     1      -2.548   3.842  25.774  0.00  0.00    +0.019 C 
ATOM     13  C   UNL     1      -3.098   4.158  26.300  0.00  0.00    +0.089 C 
ATOM     14  N   UNL     1      -3.903   4.004  26.197  0.00  0.00    -0.218 NA
ATOM     15  C   UNL     1      -4.156   3.535  25.568  0.00  0.00    +0.089 C 
ATOM     16  C   UNL     1      -3.606   3.219  25.041  0.00  0.00    +0.024 C 
ENDROOT
BRANCH  11  10
ATOM     10  C   UNL     1      -2.250   3.057  24.617  0.00  0.00    +0.085 C 
BRANCH  10   8
ATOM      1  C   UNL     1       0.905   1.104  23.894  0.00  0.00    +0.090 C 
ATOM      2  N   UNL     1       0.314   1.647  24.089  0.00  0.00    -0.269 NA
ATOM      3  C   UNL     1      -0.479   1.430  24.035  0.00  0.00    +0.094 C 
ATOM      4  C   UNL     1      -1.070   1.972  24.229  0.00  0.00    +0.111 C 
ATOM      5  N   UNL     1      -0.866   2.732  24.477  0.00  0.00    -0.277 N 
ATOM      6  C   UNL     1      -0.073   2.949  24.531  0.00  0.00    +0.111 C 
ATOM      7  C   UNL     1       0.518   2.406  24.337  0.00  0.00    +0.094 C 
ATOM      8  C   UNL     1      -1.456   3.274  24.671  0.00  0.00    +0.226 C 
ATOM      9  O   UNL     1      -1.252   4.034  24.919  0.00  0.00    -0.275 OA
ENDBRANCH  10   8
ENDBRANCH  11  10
BRANCH  16  17
ATOM     17  C   UNL     1      -3.858   2.750  24.412  0.00  0.00    +0.051 C 
BRANCH  17  18
ATOM     18  C   UNL     1      -4.290   2.062  24.558  0.00  0.00    +0.100 A 
ATOM     19  N   UNL     1      -5.078   2.026  24.798  0.00  0.00    -0.082 NA
ATOM     20  O   UNL     1      -5.284   1.231  24.878  0.00  0.00    -0.354 OA
ATOM     21  C   UNL     1      -4.623   0.776  24.687  0.00  0.00    +0.198 A 
ATOM     30  C   UNL     1      -4.008   1.289  24.489  0.00  0.00    +0.057 A 
BRANCH  21  22
ATOM     22  C   UNL     1      -4.583  -0.048  24.693  0.00  0.00    +0.272 C 
BRANCH  22  23
ATOM     23  O   UNL     1      -3.884  -0.430  24.477  0.00  0.00    -0.467 OA
BRANCH  23  24
ATOM     24  C   UNL     1      -3.844  -1.254  24.486  0.00  0.00    +0.139 A 
ATOM     25  C   UNL     1      -4.191  -1.690  23.878  0.00  0.00    +0.037 A 
ATOM     26  C   UNL     1      -4.152  -2.514  23.887  0.00  0.00    +0.003 A 
ATOM     27  C   UNL     1      -3.765  -2.902  24.505  0.00  0.00    +0.000 A 
ATOM     28  C   UNL     1      -3.418  -2.465  25.113  0.00  0.00    +0.003 A 
ATOM     29  C   UNL     1      -3.458  -1.641  25.103  0.00  0.00    +0.037 A 
ENDBRANCH  23  24
ENDBRANCH  22  23
ENDBRANCH  21  22
ENDBRANCH  17  18
ENDBRANCH  16  17
TORSDOF 7
ENDMDL
MODEL 2
REMARK VINA RESULT:     -11.4      1.300      3.370
REMARK  Name = 
REMARK  7 active torsions:
REMARK  status: ('A' for Active; 'I' for Inactive)
REMARK    1  A    between atoms: C_8  and  C_10
REMARK    2  A    between atoms: C_10  and  C_11
REMARK    3  A    between atoms: C_16  and  C_17
REMARK    4  A    between atoms: C_17  and  C_18
REMARK    5  A    between atoms: C_21  and  C_22
REMARK    6  A    between atoms: C_22  and  O_23
REMARK    7  A    between atoms: O_23  and  C_24
REMARK                            x       y       z     vdW  Elec       q    Type
REMARK                         _______ _______ _______ _____ _____    ______ ____
ROOT
ATOM     11  C   UNL     1      -1.101   2.648  25.353  0.00  0.00    +0.012 C 
ATOM     12  C   UNL     1      -0.830   3.034  26.030  0.00  0.00    +0.019 C 
ATOM     13  C   UNL     1      -0.074   2.878  26.319  0.00  0.00    +0.089 C 
ATOM     14  N   UNL     1       0.412   2.335  25.931  0.00  0.00    -0.218 NA
ATOM     15  C   UNL     1       0.142   1.949  25.255  0.00  0.00    +0.089 C 
ATOM     16  C   UNL     1      -0.615   2.105  24.965  0.00  0.00    +0.024 C 
ENDROOT
BRANCH  11  10
ATOM     10  C   UNL     1      -1.857   2.804  25.063  0.00  0.00    +0.085 C 
BRANCH  10   8
ATOM      1  C   UNL     1      -5.583   3.254  25.519  0.00  0.00    +0.090 C 
ATOM      2  N   UNL     1      -4.760   3.300  25.480  0.00  0.00    -0.269 NA
ATOM      3  C   UNL     1      -4.326   2.667  25.179  0.00  0.00    +0.094 C 
ATOM      4  C   UNL     1      -3.503   2.712  25.141  0.00  0.00    +0.111 C 
ATOM      5  N   UNL     1      -3.115   3.392  25.403  0.00  0.00    -0.277 N 
ATOM      6  C   UNL     1      -3.549   4.024  25.704  0.00  0.00    +0.111 C 
ATOM      7  C   UNL     1      -4.372   3.979  25.743  0.00  0.00    +0.094 C 
ATOM      8  C   UNL     1      -2.292   3.437  25.364  0.00  0.00    +0.226 C 
ATOM      9  O   UNL     1      -1.904   4.116  25.627  0.00  0.00    -0.275 OA
ENDBRANCH  10   8
ENDBRANCH  11  10
BRANCH  16  17
ATOM     17  C   UNL     1      -0.885   1.719  24.288  0.00  0.00    +0.051 C 
BRANCH  17  18
ATOM     18  C   UNL     1      -0.853   0.896  24.242  0.00  0.00    +0.100 A 
ATOM     19  N   UNL     1      -0.182   0.445  24.079  0.00  0.00    -0.082 NA
ATOM     20  O   UNL     1      -0.401  -0.350  24.088  0.00  0.00    -0.354 OA
ATOM     21  C   UNL     1      -1.207  -0.391  24.257  0.00  0.00    +0.198 A 
ATOM     30  C   UNL     1      -1.487   0.379  24.352  0.00  0.00    +0.057 A 
BRANCH  21  22
ATOM     22  C   UNL     1      -1.656  -1.081  24.319  0.00  0.00    +0.272 C 
BRANCH  22  23
ATOM     23  O   UNL     1      -2.407  -1.056  24.660  0.00  0.00    -0.467 OA
BRANCH  23  24
ATOM     24  C   UNL     1      -2.948  -1.660  24.509  0.00  0.00    +0.139 A 
ATOM     25  C   UNL     1      -3.642  -1.496  24.093  0.00  0.00    +0.037 A 
ATOM     26  C   UNL     1      -4.184  -2.099  23.942  0.00  0.00    +0.003 A 
ATOM     27  C   UNL     1      -4.032  -2.866  24.206  0.00  0.00    +0.000 A 
ATOM     28  C   UNL     1      -3.338  -3.029  24.621  0.00  0.00    +0.003 A 
ATOM     29  C   UNL     1      -2.796  -2.426  24.773  0.00  0.00    +0.037 A 
ENDBRANCH  23  24
ENDBRANCH  22  23
ENDBRANCH  21  22
ENDBRANCH  17  18
ENDBRANCH  16  17
TORSDOF 7
ENDMDL
MODEL 3
REMARK VINA RESULT:     -10.6      1.995      5.228
REMARK  Name = 
REMARK  7 active torsions:
REMARK  status: ('A' for Active; 'I' for Inactive)
REMARK    1  A    between atoms: C_8  and  C_10
REMARK    2  A    between atoms: C_10  and  C_11
REMARK    3  A    between atoms: C_16  and  C_17
REMARK    4  A    between atoms: C_17  and  C_18
REMARK    5  A    between atoms: C_21  and  C_22
REMARK    6  A    between atoms: C_22  and  O_23
REMARK    7  A    between atoms: O_23  and  C_24
REMARK                            x       y       z     vdW  Elec       q    Type
REMARK                         _______ _______ _______ _____ _____    ______ ____
ROOT
ATOM     11  C   UNL     1      -3.691  -0.411  24.545  0.00  0.00    +0.012 C 
ATOM     12  C   UNL     1      -4.316  -0.820  24.193  0.00  0.00    +0.019 C 
ATOM     13  C   UNL     1      -4.237  -1.622  24.016  0.00  0.00    +0.089 C 
ATOM     14  N   UNL     1      -3.532  -2.016  24.190  0.00  0.00    -0.218 NA
ATOM     15  C   UNL     1      -2.908  -1.608  24.541  0.00  0.00    +0.089 C 
ATOM     16  C   UNL     1      -2.986  -0.806  24.719  0.00  0.00    +0.024 C 
ENDROOT
BRANCH  11  10
ATOM     10  C   UNL     1      -3.769   0.390  24.722  0.00  0.00    +0.085 C 
BRANCH  10   8
ATOM      1  C   UNL     1      -4.966   3.937  25.254  0.00  0.00    +0.090 C 
ATOM      2  N   UNL     1      -4.846   3.122  25.192  0.00  0.00    -0.269 NA
ATOM      3  C   UNL     1      -4.129   2.831  24.907  0.00  0.00    +0.094 C 
ATOM      4  C   UNL     1      -4.009   2.018  24.845  0.00  0.00    +0.111 C 
ATOM      5  N   UNL     1      -4.607   1.494  25.069  0.00  0.00    -0.277 N 
ATOM      6  C   UNL     1      -5.324   1.785  25.354  0.00  0.00    +0.111 C 
ATOM      7  C   UNL     1      -5.444   2.600  25.416  0.00  0.00    +0.094 C 
ATOM      8  C   UNL     1      -4.487   0.681  25.007  0.00  0.00    +0.226 C 
ATOM      9  O   UNL     1      -5.085   0.158  25.230  0.00  0.00    -0.275 OA
ENDBRANCH  10   8
ENDBRANCH  11  10
BRANCH  16  17
ATOM     17  C   UNL     1      -2.362  -0.398  25.070  0.00  0.00    +0.051 C 
BRANCH  17  18
ATOM     18  C   UNL     1      -1.585  -0.646  24.945  0.00  0.00    +0.100 A 
ATOM     19  N   UNL     1      -1.157  -1.161  25.426  0.00  0.00    -0.082 NA
ATOM     20  O   UNL     1      -0.408  -1.256  25.096  0.00  0.00    -0.354 OA
ATOM     21  C   UNL     1      -0.372  -0.799  24.409  0.00  0.00    +0.198 A 
ATOM     30  C   UNL     1      -1.099  -0.422  24.316  0.00  0.00    +0.057 A 
BRANCH  21  22
ATOM     22  C   UNL     1       0.278  -0.732  23.905  0.00  0.00    +0.272 C 
BRANCH  22  23
ATOM     23  O   UNL     1       0.450  -0.008  23.548  0.00  0.00    -0.467 OA
BRANCH  23  24
ATOM     24  C   UNL     1       1.159   0.091  23.139  0.00  0.00    +0.139 A 
ATOM     25  C   UNL     1       1.739   0.598  23.435  0.00  0.00    +0.037 A 
ATOM     26  C   UNL     1       2.448   0.697  23.026  0.00  0.00    +0.003 A 
ATOM     27  C   UNL     1       2.578   0.290  22.320  0.00  0.00    +0.000 A 
ATOM     28  C   UNL     1       1.998  -0.217  22.024  0.00  0.00    +0.003 A 
ATOM     29  C   UNL     1       1.289  -0.316  22.433  0.00  0.00    +0.037 A 
ENDBRANCH  23  24
ENDBRANCH  22  23
ENDBRANCH  21  22
ENDBRANCH  17  18
ENDBRANCH  16  17
TORSDOF 7
ENDMDL
MODEL 4
REMARK VINA RESULT:     -10.5      1.605      2.445
REMARK  Name = 
REMARK  7 active torsions:
REMARK  status: ('A' for Active; 'I' for Inactive)
REMARK    1  A    between atoms: C_8  and  C_10
REMARK    2  A    between atoms: C_10  and  C_11
REMARK    3  A    between atoms: C_16  and  C_17
REMARK    4  A    between atoms: C_17  and  C_18
REMARK    5  A    between atoms: C_21  and  C_22
REMARK    6  A    between atoms: C_22  and  O_23
REMARK    7  A    between atoms: O_23  and  C_24
REMARK                            x       y       z     vdW  Elec       q    Type
REMARK                         _______ _______ _______ _____ _____    ______ ____
ROOT
ATOM     11  C   UNL     1      -4.564   2.678  25.213  0.00  0.00    +0.012 C 
ATOM     12  C   UNL     1      -4.984   3.071  25.805  0.00  0.00    +0.019 C 
ATOM     13  C   UNL     1      -5.707   2.773  26.067  0.00  0.00    +0.089 C 
ATOM     14  N   UNL     1      -6.011   2.080  25.737  0.00  0.00    -0.218 NA
ATOM     15  C   UNL     1      -5.592   1.686  25.146  0.00  0.00    +0.089 C 
ATOM     16  C   UNL     1      -4.869   1.984  24.883  0.00  0.00    +0.024 C 
ENDROOT
BRANCH  11  10
ATOM     10  C   UNL     1      -3.842   2.976  24.951  0.00  0.00    +0.085 C 
BRANCH  10   8
ATOM      1  C   UNL     1      -0.399   4.536  24.881  0.00  0.00    +0.090 C 
ATOM      2  N   UNL     1      -1.193   4.329  24.967  0.00  0.00    -0.269 NA
ATOM      3  C   UNL     1      -1.460   3.598  24.695  0.00  0.00    +0.094 C 
ATOM      4  C   UNL     1      -2.254   3.390  24.780  0.00  0.00    +0.111 C 
ATOM      5  N   UNL     1      -2.781   3.915  25.138  0.00  0.00    -0.277 N 
ATOM      6  C   UNL     1      -2.514   4.646  25.410  0.00  0.00    +0.111 C 
ATOM      7  C   UNL     1      -1.720   4.853  25.325  0.00  0.00    +0.094 C 
ATOM      8  C   UNL     1      -3.575   3.708  25.224  0.00  0.00    +0.226 C 
ATOM      9  O   UNL     1      -4.101   4.232  25.582  0.00  0.00    -0.275 OA
ENDBRANCH  10   8
ENDBRANCH  11  10
BRANCH  16  17
ATOM     17  C   UNL     1      -4.450   1.591  24.292  0.00  0.00    +0.051 C 
BRANCH  17  18
ATOM     18  C   UNL     1      -4.320   0.778  24.350  0.00  0.00    +0.100 A 
ATOM     19  N   UNL     1      -4.902   0.197  24.413  0.00  0.00    -0.082 NA
ATOM     20  O   UNL     1      -4.527  -0.536  24.457  0.00  0.00    -0.354 OA
ATOM     21  C   UNL     1      -3.713  -0.408  24.422  0.00  0.00    +0.198 A 
ATOM     30  C   UNL     1      -3.585   0.403  24.356  0.00  0.00    +0.057 A 
BRANCH  21  22
ATOM     22  C   UNL     1      -3.129  -0.991  24.448  0.00  0.00    +0.272 C 
BRANCH  22  23
ATOM     23  O   UNL     1      -2.670  -1.085  25.127  0.00  0.00    -0.467 OA
BRANCH  23  24
ATOM     24  C   UNL     1      -1.940  -1.466  25.081  0.00  0.00    +0.139 A 
ATOM     25  C   UNL     1      -1.883  -2.207  24.722  0.00  0.00    +0.037 A 
ATOM     26  C   UNL     1      -1.153  -2.588  24.676  0.00  0.00    +0.003 A 
ATOM     27  C   UNL     1      -0.479  -2.228  24.988  0.00  0.00    +0.000 A 
ATOM     28  C   UNL     1      -0.536  -1.487  25.346  0.00  0.00    +0.003 A 
ATOM     29  C   UNL     1      -1.266  -1.106  25.392  0.00  0.00    +0.037 A 
ENDBRANCH  23  24
ENDBRANCH  22  23
ENDBRANCH  21  22
ENDBRANCH  17  18
ENDBRANCH  16  17
TORSDOF 7
ENDMDL
MODEL 5
REMARK VINA RESULT:     -10.5      1.759      4.645
REMARK  Name = 
REMARK  7 active torsions:
REMARK  status: ('A' for Active; 'I' for Inactive)
REMARK    1  A    between atoms: C_8  and  C_10
REMARK    2  A    between atoms: C_10  and  C_11
REMARK    3  A    between atoms: C_16  and  C_17
REMARK    4  A    between atoms: C_17  and  C_18
REMARK    5  A    between atoms: C_21  and  C_22
REMARK    6  A    between atoms: C_22  and  O_23
REMARK    7  A    between atoms: O_23  and  C_24
REMARK                            x       y       z     vdW  Elec       q    Type
REMARK                         _______ _______ _______ _____ _____    ______ ____
ROOT
ATOM     11  C   UNL     1      -0.405   0.562  24.516  0.00  0.00    +0.012 C 
ATOM     12  C   UNL     1       0.008   0.349  23.834  0.00  0.00    +0.019 C 
ATOM     13  C   UNL     1       0.544   0.876  23.495  0.00  0.00    +0.089 C 
ATOM     14  N   UNL     1       0.667   1.618  23.837  0.00  0.00    -0.218 NA
ATOM     15  C   UNL     1       0.254   1.830  24.519  0.00  0.00    +0.089 C 
ATOM     16  C   UNL     1      -0.282   1.303  24.859  0.00  0.00    +0.024 C 
ENDROOT
BRANCH  11  10
ATOM     10  C   UNL     1      -0.941   0.035  24.855  0.00  0.00    +0.085 C 
BRANCH  10   8
ATOM      1  C   UNL     1      -3.541  -2.700  24.626  0.00  0.00    +0.090 C 
ATOM      2  N   UNL     1      -2.870  -2.219  24.651  0.00  0.00    -0.269 NA
ATOM      3  C   UNL     1      -2.949  -1.409  24.782  0.00  0.00    +0.094 C 
ATOM      4  C   UNL     1      -2.280  -0.927  24.807  0.00  0.00    +0.111 C 
ATOM      5  N   UNL     1      -1.531  -1.257  24.699  0.00  0.00    -0.277 N 
ATOM      6  C   UNL     1      -1.452  -2.067  24.567  0.00  0.00    +0.111 C 
ATOM      7  C   UNL     1      -2.122  -2.548  24.543  0.00  0.00    +0.094 C 
ATOM      8  C   UNL     1      -0.862  -0.775  24.724  0.00  0.00    +0.226 C 
ATOM      9  O   UNL     1      -0.114  -1.105  24.616  0.00  0.00    -0.275 OA
ENDBRANCH  10   8
ENDBRANCH  11  10
BRANCH  16  17
ATOM     17  C   UNL     1      -0.695   1.516  25.540  0.00  0.00    +0.051 C 
BRANCH  17  18
ATOM     18  C   UNL     1      -1.126   2.220  25.558  0.00  0.00    +0.100 A 
ATOM     19  N   UNL     1      -0.812   2.978  25.637  0.00  0.00    -0.082 NA
ATOM     20  O   UNL     1      -1.438   3.515  25.628  0.00  0.00    -0.354 OA
ATOM     21  C   UNL     1      -2.139   3.088  25.544  0.00  0.00    +0.198 A 
ATOM     30  C   UNL     1      -1.946   2.288  25.500  0.00  0.00    +0.057 A 
BRANCH  21  22
ATOM     22  C   UNL     1      -2.900   3.407  25.509  0.00  0.00    +0.272 C 
BRANCH  22  23
ATOM     23  O   UNL     1      -3.436   3.133  24.944  0.00  0.00    -0.467 OA
BRANCH  23  24
ATOM     24  C   UNL     1      -4.243   3.124  25.114  0.00  0.00    +0.139 A 
ATOM     25  C   UNL     1      -4.691   2.450  24.948  0.00  0.00    +0.037 A 
ATOM     26  C   UNL     1      -5.498   2.441  25.118  0.00  0.00    +0.003 A 
ATOM     27  C   UNL     1      -5.858   3.104  25.453  0.00  0.00    +0.000 A 
ATOM     28  C   UNL     1      -5.410   3.776  25.618  0.00  0.00    +0.003 A 
ATOM     29  C   UNL     1      -4.603   3.786  25.449  0.00  0.00    +0.037 A 
ENDBRANCH  23  24
ENDBRANCH  22  23
ENDBRANCH  21  22
ENDBRANCH  17  18
ENDBRANCH  16  17
TORSDOF 7
ENDMDL
