MODEL 1
REMARK VINA RESULT:     -10.9      0.000      0.000
REMARK  Name = 
REMARK  6 active torsions:
REMARK  status: ('A' for Active; 'I' for Inactive)
REMARK    1  A    between atoms: C_2  and  C_3
REMARK    2  A    between atoms: C_5  and  C_6
REMARK    3  A    between atoms: C_6  and  N_7
REMARK    4  A    between atoms: C_11  and  C_12
REMARK    5  A    between atoms: C_14  and  C_17
REMARK    6  A    between atoms: C_20  and  N_23
REMARK                            x       y       z     vdW  Elec       q    Type
REMARK                         _______ _______ _______ _____ _____    ______ ____
ROOT
ATOM     12  C   UNL     1      -4.162   2.783  25.138  0.00  0.00    +0.251 A 
ATOM     13  N   UNL     1      -3.897   2.011  25.259  0.00  0.00    -0.190 NA
ATOM     14  C   UNL     1      -4.276   1.523  24.712  0.00  0.00    +0.205 A 
ATOM     15  N   UNL     1      -4.775   1.993  24.254  0.00  0.00    -0.056 NA
ATOM     16  O   UNL     1      -4.704   2.771  24.517  0.00  0.00    -0.336 OA
ENDROOT
BRANCH  14  17
ATOM     17  C   UNL     1      -4.174   0.707  24.637  0.00  0.00    +0.058 A 
ATOM     18  C   UNL     1      -3.753   0.402  23.997  0.00  0.00    +0.008 A 
ATOM     19  C   UNL     1      -3.651  -0.413  23.922  0.00  0.00    +0.034 A 
ATOM     20  C   UNL     1      -3.970  -0.923  24.487  0.00  0.00    +0.132 A 
ATOM     21  N   UNL     1      -4.391  -0.617  25.127  0.00  0.00    -0.229 NA
ATOM     22  C   UNL     1      -4.493   0.198  25.202  0.00  0.00    +0.103 A 
BRANCH  20  23
ATOM     23  N   UNL     1      -3.868  -1.738  24.412  0.00  0.00    -0.288 N 
ATOM     24  C   UNL     1      -3.355  -2.138  24.920  0.00  0.00    +0.124 C 
ATOM     25  C   UNL     1      -3.253  -2.953  24.845  0.00  0.00    +0.164 C 
ATOM     26  O   UNL     1      -3.663  -3.369  24.262  0.00  0.00    -0.350 OA
ATOM     27  C   UNL     1      -4.176  -2.969  23.754  0.00  0.00    +0.164 C 
ATOM     28  C   UNL     1      -4.278  -2.154  23.829  0.00  0.00    +0.124 C 
ENDBRANCH  20  23
ENDBRANCH  14  17
BRANCH  12  11
ATOM      7  N   UNL     1      -3.252   3.901  25.421  0.00  0.00    -0.263 NA
ATOM      8  C   UNL     1      -3.231   4.511  25.976  0.00  0.00    +0.073 C 
ATOM      9  C   UNL     1      -3.893   4.435  26.463  0.00  0.00    +0.019 C 
ATOM     10  C   UNL     1      -4.323   3.778  26.208  0.00  0.00    +0.027 C 
ATOM     11  C   UNL     1      -3.926   3.448  25.564  0.00  0.00    +0.138 C 
BRANCH   7   6
ATOM      6  C   UNL     1      -2.696   3.768  24.827  0.00  0.00    +0.099 C 
BRANCH   6   5
ATOM      3  C   UNL     1      -0.588   3.578  25.364  0.00  0.00    +0.068 A 
ATOM      4  C   UNL     1      -1.380   3.386  25.238  0.00  0.00    +0.007 A 
ATOM      5  C   UNL     1      -1.903   3.959  24.953  0.00  0.00    -0.005 A 
ATOM     29  C   UNL     1      -1.632   4.722  24.795  0.00  0.00    -0.003 A 
ATOM     30  C   UNL     1      -0.839   4.913  24.921  0.00  0.00    +0.000 A 
ATOM     31  C   UNL     1      -0.317   4.341  25.206  0.00  0.00    +0.010 A 
BRANCH   3   2
ATOM      1  N   UNL     1       0.454   2.433  25.934  0.00  0.00    -0.191 NA
ATOM      2  C   UNL     1      -0.067   3.006  25.649  0.00  0.00    +0.100 C 
ENDBRANCH   3   2
ENDBRANCH   6   5
ENDBRANCH   7   6
ENDBRANCH  12  11
TORSDOF 6
ENDMDL
MODEL 2
REMARK VINA RESULT:      -9.7      1.592      2.911
REMARK  Name = 
REMARK  6 active torsions:
REMARK  status: ('A' for Active; 'I' for Inactive)
REMARK    1  A    between atoms: C_2  and  C_3
REMARK    2  A    between atoms: C_5  and  C_6
REMARK    3  A    between atoms: C_6  and  N_7
REMARK    4  A    between atoms: C_11  and  C_12
REMARK    5  A    between atoms: C_14  and  C_17
REMARK    6  A    between atoms: C_20  and  N_23
REMARK                            x       y       z     vdW  Elec       q    Type
REMARK                         _______ _______ _______ _____ _____    ______ ____
ROOT
ATOM     12  C   UNL     1      -0.321   1.479  25.255  0.00  0.00    +0.251 A 
ATOM     13  N   UNL     1      -0.969   0.980  25.364  0.00  0.00    -0.190 NA
ATOM     14  C   UNL     1      -0.972   0.427  24.752  0.00  0.00    +0.205 A 
ATOM     15  N   UNL     1      -0.326   0.584  24.265  0.00  0.00    -0.056 NA
ATOM     16  O   UNL     1       0.076   1.233  24.575  0.00  0.00    -0.336 OA
ENDROOT
BRANCH  14  17
ATOM     17  C   UNL     1      -1.525  -0.177  24.647  0.00  0.00    +0.058 A 
ATOM     18  C   UNL     1      -2.331  -0.002  24.648  0.00  0.00    +0.008 A 
ATOM     19  C   UNL     1      -2.883  -0.606  24.542  0.00  0.00    +0.034 A 
ATOM     20  C   UNL     1      -2.629  -1.384  24.436  0.00  0.00    +0.132 A 
ATOM     21  N   UNL     1      -1.823  -1.558  24.435  0.00  0.00    -0.229 NA
ATOM     22  C   UNL     1      -1.271  -0.954  24.540  0.00  0.00    +0.103 A 
BRANCH  20  23
ATOM     23  N   UNL     1      -3.182  -1.988  24.330  0.00  0.00    -0.288 N 
ATOM     24  C   UNL     1      -3.855  -1.855  23.871  0.00  0.00    +0.124 C 
ATOM     25  C   UNL     1      -4.407  -2.459  23.766  0.00  0.00    +0.164 C 
ATOM     26  O   UNL     1      -4.287  -3.195  24.119  0.00  0.00    -0.350 OA
ATOM     27  C   UNL     1      -3.614  -3.327  24.578  0.00  0.00    +0.164 C 
ATOM     28  C   UNL     1      -3.061  -2.723  24.683  0.00  0.00    +0.124 C 
ENDBRANCH  20  23
ENDBRANCH  14  17
BRANCH  12  11
ATOM      7  N   UNL     1      -0.302   2.902  25.617  0.00  0.00    -0.263 NA
ATOM      8  C   UNL     1       0.022   3.344  26.233  0.00  0.00    +0.073 C 
ATOM      9  C   UNL     1       0.417   2.824  26.738  0.00  0.00    +0.019 C 
ATOM     10  C   UNL     1       0.337   2.062  26.433  0.00  0.00    +0.027 C 
ATOM     11  C   UNL     1      -0.108   2.111  25.739  0.00  0.00    +0.138 C 
BRANCH   7   6
ATOM      6  C   UNL     1      -0.743   3.201  24.987  0.00  0.00    +0.099 C 
BRANCH   6   5
ATOM      3  C   UNL     1      -2.572   4.305  25.437  0.00  0.00    +0.068 A 
ATOM      4  C   UNL     1      -2.051   3.678  25.315  0.00  0.00    +0.007 A 
ATOM      5  C   UNL     1      -1.266   3.829  25.110  0.00  0.00    -0.005 A 
ATOM     29  C   UNL     1      -1.003   4.606  25.027  0.00  0.00    -0.003 A 
ATOM     30  C   UNL     1      -1.526   5.233  25.150  0.00  0.00    +0.000 A 
ATOM     31  C   UNL     1      -2.310   5.083  25.355  0.00  0.00    +0.010 A 
BRANCH   3   2
ATOM      1  N   UNL     1      -4.142   4.001  25.846  0.00  0.00    -0.191 NA
ATOM      2  C   UNL     1      -3.357   4.153  25.642  0.00  0.00    +0.100 C 
ENDBRANCH   3   2
ENDBRANCH   6   5
ENDBRANCH   7   6
ENDBRANCH  12  11
TORSDOF 6
ENDMDL
MODEL 3
REMARK VINA RESULT:      -9.6      3.215      4.944
REMARK  Name = 
REMARK  6 active torsions:
REMARK  status: ('A' for Active; 'I' for Inactive)
REMARK    1  A    between atoms: C_2  and  C_3
REMARK    2  A    between atoms: C_5  and  C_6
REMARK    3  A    between atoms: C_6  and  N_7
REMARK    4  A    between atoms: C_11  and  C_12
REMARK    5  A    between atoms: C_14  and  C_17
REMARK    6  A    between atoms: C_20  and  N_23
REMARK                            x       y       z     vdW  Elec       q    Type
REMARK                         _______ _______ _______ _____ _____    ______ ____
ROOT
ATOM     12  C   UNL     1      -2.304  -0.015  24.842  0.00  0.00    +0.251 A 
ATOM     13  N   UNL     1      -1.762   0.075  24.225  0.00  0.00    -0.190 NA
ATOM     14  C   UNL     1      -1.004  -0.005  24.538  0.00  0.00    +0.205 A 
ATOM     15  N   UNL     1      -1.076  -0.144  25.348  0.00  0.00    -0.056 NA
ATOM     16  O   UNL     1      -1.878  -0.150  25.535  0.00  0.00    -0.336 OA
ENDROOT
BRANCH  14  17
ATOM     17  C   UNL     1      -0.297   0.045  24.116  0.00  0.00    +0.058 A 
ATOM     18  C   UNL     1       0.014   0.783  23.918  0.00  0.00    +0.008 A 
ATOM     19  C   UNL     1       0.721   0.833  23.495  0.00  0.00    +0.034 A 
ATOM     20  C   UNL     1       1.117   0.145  23.270  0.00  0.00    +0.132 A 
ATOM     21  N   UNL     1       0.806  -0.593  23.468  0.00  0.00    -0.229 NA
ATOM     22  C   UNL     1       0.099  -0.643  23.891  0.00  0.00    +0.103 A 
BRANCH  20  23
ATOM     23  N   UNL     1       1.824   0.196  22.848  0.00  0.00    -0.288 N 
ATOM     24  C   UNL     1       2.472   0.587  23.174  0.00  0.00    +0.124 C 
ATOM     25  C   UNL     1       3.179   0.637  22.752  0.00  0.00    +0.164 C 
ATOM     26  O   UNL     1       3.237   0.296  22.003  0.00  0.00    -0.350 OA
ATOM     27  C   UNL     1       2.589  -0.096  21.676  0.00  0.00    +0.164 C 
ATOM     28  C   UNL     1       1.882  -0.146  22.099  0.00  0.00    +0.124 C 
ENDBRANCH  20  23
ENDBRANCH  14  17
BRANCH  12  11
ATOM      7  N   UNL     1      -3.584   0.706  24.838  0.00  0.00    -0.263 NA
ATOM      8  C   UNL     1      -4.374   0.492  24.736  0.00  0.00    +0.073 C 
ATOM      9  C   UNL     1      -4.403  -0.323  24.611  0.00  0.00    +0.019 C 
ATOM     10  C   UNL     1      -3.631  -0.612  24.635  0.00  0.00    +0.027 C 
ATOM     11  C   UNL     1      -3.125   0.024  24.776  0.00  0.00    +0.138 C 
BRANCH   7   6
ATOM      6  C   UNL     1      -3.303   1.468  24.978  0.00  0.00    +0.099 C 
BRANCH   6   5
ATOM      3  C   UNL     1      -4.686   3.157  24.935  0.00  0.00    +0.068 A 
ATOM      4  C   UNL     1      -4.261   2.505  25.207  0.00  0.00    +0.007 A 
ATOM      5  C   UNL     1      -3.728   2.122  24.706  0.00  0.00    -0.005 A 
ATOM     29  C   UNL     1      -3.620   2.392  23.935  0.00  0.00    -0.003 A 
ATOM     30  C   UNL     1      -4.046   3.045  23.664  0.00  0.00    +0.000 A 
ATOM     31  C   UNL     1      -4.578   3.428  24.164  0.00  0.00    +0.010 A 
BRANCH   3   2
ATOM      1  N   UNL     1      -5.752   3.920  25.938  0.00  0.00    -0.191 NA
ATOM      2  C   UNL     1      -5.218   3.539  25.436  0.00  0.00    +0.100 C 
ENDBRANCH   3   2
ENDBRANCH   6   5
ENDBRANCH   7   6
ENDBRANCH  12  11
TORSDOF 6
ENDMDL
MODEL 4
REMARK VINA RESULT:      -9.4      2.119      6.197
REMARK  Name = 
REMARK  6 active torsions:
REMARK  status: ('A' for Active; 'I' for Inactive)
REMARK    1  A    between atoms: C_2  and  C_3
REMARK    2  A    between atoms: C_5  and  C_6
REMARK    3  A    between atoms: C_6  and  N_7
REMARK    4  A    between atoms: C_11  and  C_12
REMARK    5  A    between atoms: C_14  and  C_17
REMARK    6  A    between atoms: C_20  and  N_23
REMARK                            x       y       z     vdW  Elec       q    Type
REMARK                         _______ _______ _______ _____ _____    ______ ____
ROOT
ATOM     12  C   UNL     1      -0.536  -0.468  24.569  0.00  0.00    +0.251 A 
ATOM     13  N   UNL     1      -0.848   0.237  24.863  0.00  0.00    -0.190 NA
ATOM     14  C   UNL     1      -0.496   0.861  24.453  0.00  0.00    +0.205 A 
ATOM     15  N   UNL     1       0.032   0.541  23.907  0.00  0.00    -0.056 NA
ATOM     16  O   UNL     1       0.008  -0.279  23.979  0.00  0.00    -0.336 OA
ENDROOT
BRANCH  14  17
ATOM     17  C   UNL     1      -0.647   1.664  24.570  0.00  0.00    +0.058 A 
ATOM     18  C   UNL     1      -0.369   2.041  25.249  0.00  0.00    +0.008 A 
ATOM     19  C   UNL     1      -0.520   2.844  25.366  0.00  0.00    +0.034 A 
ATOM     20  C   UNL     1      -0.948   3.269  24.804  0.00  0.00    +0.132 A 
ATOM     21  N   UNL     1      -1.226   2.892  24.125  0.00  0.00    -0.229 NA
ATOM     22  C   UNL     1      -1.075   2.089  24.008  0.00  0.00    +0.103 A 
BRANCH  20  23
ATOM     23  N   UNL     1      -1.099   4.072  24.921  0.00  0.00    -0.288 N 
ATOM     24  C   UNL     1      -0.548   4.635  24.674  0.00  0.00    +0.124 C 
ATOM     25  C   UNL     1      -0.699   5.438  24.791  0.00  0.00    +0.164 C 
ATOM     26  O   UNL     1      -1.400   5.677  25.154  0.00  0.00    -0.350 OA
ATOM     27  C   UNL     1      -1.951   5.115  25.401  0.00  0.00    +0.164 C 
ATOM     28  C   UNL     1      -1.800   4.312  25.284  0.00  0.00    +0.124 C 
ENDBRANCH  20  23
ENDBRANCH  14  17
BRANCH  12  11
ATOM      7  N   UNL     1      -1.377  -1.673  24.561  0.00  0.00    -0.263 NA
ATOM      8  C   UNL     1      -1.365  -2.396  24.957  0.00  0.00    +0.073 C 
ATOM      9  C   UNL     1      -0.714  -2.398  25.464  0.00  0.00    +0.019 C 
ATOM     10  C   UNL     1      -0.324  -1.676  25.380  0.00  0.00    +0.027 C 
ATOM     11  C   UNL     1      -0.734  -1.228  24.822  0.00  0.00    +0.138 C 
BRANCH   7   6
ATOM      6  C   UNL     1      -1.935  -1.437  24.002  0.00  0.00    +0.099 C 
BRANCH   6   5
ATOM      3  C   UNL     1      -4.032  -1.047  24.471  0.00  0.00    +0.068 A 
ATOM      4  C   UNL     1      -3.229  -0.923  24.330  0.00  0.00    +0.007 A 
ATOM      5  C   UNL     1      -2.739  -1.561  24.142  0.00  0.00    -0.005 A 
ATOM     29  C   UNL     1      -3.054  -2.322  24.095  0.00  0.00    -0.003 A 
ATOM     30  C   UNL     1      -3.858  -2.445  24.236  0.00  0.00    +0.000 A 
ATOM     31  C   UNL     1      -4.346  -1.808  24.424  0.00  0.00    +0.010 A 
BRANCH   3   2
ATOM      1  N   UNL     1      -5.009   0.228  24.848  0.00  0.00    -0.191 NA
ATOM      2  C   UNL     1      -4.520  -0.410  24.659  0.00  0.00    +0.100 C 
ENDBRANCH   3   2
ENDBRANCH   6   5
ENDBRANCH   7   6
ENDBRANCH  12  11
TORSDOF 6
ENDMDL
MODEL 5
REMARK VINA RESULT:      -8.9      1.751      5.434
REMARK  Name = 
REMARK  6 active torsions:
REMARK  status: ('A' for Active; 'I' for Inactive)
REMARK    1  A    between atoms: C_2  and  C_3
REMARK    2  A    between atoms: C_5  and  C_6
REMARK    3  A    between atoms: C_6  and  N_7
REMARK    4  A    between atoms: C_11  and  C_12
REMARK    5  A    between atoms: C_14  and  C_17
REMARK    6  A    between atoms: C_20  and  N_23
REMARK                            x       y       z     vdW  Elec       q    Type
REMARK                         _______ _______ _______ _____ _____    ______ ____
ROOT
ATOM     12  C   UNL     1      -4.076   0.166  24.667  0.00  0.00    +0.251 A 
ATOM     13  N   UNL     1      -3.469   0.711  24.545  0.00  0.00    -0.190 NA
ATOM     14  C   UNL     1      -3.683   1.419  24.911  0.00  0.00    +0.205 A 
ATOM     15  N   UNL     1      -4.422   1.311  25.260  0.00  0.00    -0.056 NA
ATOM     16  O   UNL     1      -4.665   0.538  25.109  0.00  0.00    -0.336 OA
ENDROOT
BRANCH  14  17
ATOM     17  C   UNL     1      -3.235   2.112  24.926  0.00  0.00    +0.058 A 
ATOM     18  C   UNL     1      -2.566   2.160  25.407  0.00  0.00    +0.008 A 
ATOM     19  C   UNL     1      -2.119   2.854  25.422  0.00  0.00    +0.034 A 
ATOM     20  C   UNL     1      -2.341   3.498  24.957  0.00  0.00    +0.132 A 
ATOM     21  N   UNL     1      -3.010   3.449  24.476  0.00  0.00    -0.229 NA
ATOM     22  C   UNL     1      -3.457   2.756  24.461  0.00  0.00    +0.103 A 
BRANCH  20  23
ATOM     23  N   UNL     1      -1.893   4.191  24.972  0.00  0.00    -0.288 N 
ATOM     24  C   UNL     1      -1.100   4.174  24.746  0.00  0.00    +0.124 C 
ATOM     25  C   UNL     1      -0.652   4.868  24.761  0.00  0.00    +0.164 C 
ATOM     26  O   UNL     1      -0.998   5.577  25.002  0.00  0.00    -0.350 OA
ATOM     27  C   UNL     1      -1.792   5.594  25.227  0.00  0.00    +0.164 C 
ATOM     28  C   UNL     1      -2.239   4.900  25.212  0.00  0.00    +0.124 C 
ENDBRANCH  20  23
ENDBRANCH  14  17
BRANCH  12  11
ATOM      7  N   UNL     1      -3.573  -1.213  24.617  0.00  0.00    -0.263 NA
ATOM      8  C   UNL     1      -3.788  -1.899  24.213  0.00  0.00    +0.073 C 
ATOM      9  C   UNL     1      -4.441  -1.721  23.740  0.00  0.00    +0.019 C 
ATOM     10  C   UNL     1      -4.629  -0.926  23.853  0.00  0.00    +0.027 C 
ATOM     11  C   UNL     1      -4.092  -0.612  24.395  0.00  0.00    +0.138 C 
BRANCH   7   6
ATOM      6  C   UNL     1      -2.948  -1.141  25.151  0.00  0.00    +0.099 C 
BRANCH   6   5
ATOM      3  C   UNL     1      -0.881  -1.458  24.525  0.00  0.00    +0.068 A 
ATOM      4  C   UNL     1      -1.599  -1.084  24.679  0.00  0.00    +0.007 A 
ATOM      5  C   UNL     1      -2.228  -1.515  24.996  0.00  0.00    -0.005 A 
ATOM     29  C   UNL     1      -2.138  -2.319  25.158  0.00  0.00    -0.003 A 
ATOM     30  C   UNL     1      -1.418  -2.691  25.003  0.00  0.00    +0.000 A 
ATOM     31  C   UNL     1      -0.790  -2.262  24.687  0.00  0.00    +0.010 A 
BRANCH   3   2
ATOM      1  N   UNL     1       0.375  -0.595  23.891  0.00  0.00    -0.191 NA
ATOM      2  C   UNL     1      -0.253  -1.027  24.208  0.00  0.00    +0.100 C 
ENDBRANCH   3   2
ENDBRANCH   6   5
ENDBRANCH   7   6
ENDBRANCH  12  11
TORSDOF 6
ENDMDL
MODEL 6
REMARK VINA RESULT:      -8.9      1.573      2.868
REMARK  Name = 
REMARK  6 active torsions:
REMARK  status: ('A' for Active; 'I' for Inactive)
REMARK    1  A    between atoms: C_2  and  C_3
REMARK    2  A    between atoms: C_5  and  C_6
REMARK    3  A    between atoms: C_6  and  N_7
REMARK    4  A    between atoms: C_11  and  C_12
REMARK    5  A    between atoms: C_14  and  C_17
REMARK    6  A    between atoms: C_20  and  N_23
REMARK                            x       y       z     vdW  Elec       q    Type
REMARK                         _______ _______ _______ _____ _____    ______ ____
ROOT
ATOM     12  C   UNL     1      -0.825   1.908  25.100  0.00  0.00    +0.251 A 
ATOM     13  N   UNL     1      -1.413   1.419  24.791  0.00  0.00    -0.190 NA
ATOM     14  C   UNL     1      -1.309   0.664  25.108  0.00  0.00    +0.205 A 
ATOM     15  N   UNL     1      -0.658   0.688  25.612  0.00  0.00    -0.056 NA
ATOM     16  O   UNL     1      -0.359   1.455  25.607  0.00  0.00    -0.336 OA
ENDROOT
BRANCH  14  17
ATOM     17  C   UNL     1      -1.776   0.003  24.948  0.00  0.00    +0.058 A 
ATOM     18  C   UNL     1      -2.532  -0.056  25.273  0.00  0.00    +0.008 A 
ATOM     19  C   UNL     1      -2.999  -0.718  25.114  0.00  0.00    +0.034 A 
ATOM     20  C   UNL     1      -2.709  -1.320  24.629  0.00  0.00    +0.132 A 
ATOM     21  N   UNL     1      -1.954  -1.261  24.304  0.00  0.00    -0.229 NA
ATOM     22  C   UNL     1      -1.487  -0.599  24.464  0.00  0.00    +0.103 A 
BRANCH  20  23
ATOM     23  N   UNL     1      -3.176  -1.982  24.470  0.00  0.00    -0.288 N 
ATOM     24  C   UNL     1      -2.992  -2.708  24.814  0.00  0.00    +0.124 C 
ATOM     25  C   UNL     1      -3.459  -3.370  24.654  0.00  0.00    +0.164 C 
ATOM     26  O   UNL     1      -4.109  -3.304  24.151  0.00  0.00    -0.350 OA
ATOM     27  C   UNL     1      -4.293  -2.578  23.807  0.00  0.00    +0.164 C 
ATOM     28  C   UNL     1      -3.826  -1.916  23.966  0.00  0.00    +0.124 C 
ENDBRANCH  20  23
ENDBRANCH  14  17
BRANCH  12  11
ATOM      7  N   UNL     1      -1.119   3.335  25.290  0.00  0.00    -0.263 NA
ATOM      8  C   UNL     1      -0.847   4.038  24.954  0.00  0.00    +0.073 C 
ATOM      9  C   UNL     1      -0.282   3.845  24.385  0.00  0.00    +0.019 C 
ATOM     10  C   UNL     1      -0.204   3.024  24.370  0.00  0.00    +0.027 C 
ATOM     11  C   UNL     1      -0.722   2.709  24.930  0.00  0.00    +0.138 C 
BRANCH   7   6
ATOM      6  C   UNL     1      -1.689   3.271  25.883  0.00  0.00    +0.099 C 
BRANCH   6   5
ATOM      3  C   UNL     1      -3.779   3.854  25.645  0.00  0.00    +0.068 A 
ATOM      4  C   UNL     1      -3.098   3.390  25.674  0.00  0.00    +0.007 A 
ATOM      5  C   UNL     1      -2.371   3.736  25.854  0.00  0.00    -0.005 A 
ATOM     29  C   UNL     1      -2.324   4.546  26.002  0.00  0.00    -0.003 A 
ATOM     30  C   UNL     1      -3.006   5.010  25.972  0.00  0.00    +0.000 A 
ATOM     31  C   UNL     1      -3.733   4.665  25.794  0.00  0.00    +0.010 A 
BRANCH   3   2
ATOM      1  N   UNL     1      -5.233   3.161  25.287  0.00  0.00    -0.191 NA
ATOM      2  C   UNL     1      -4.506   3.508  25.466  0.00  0.00    +0.100 C 
ENDBRANCH   3   2
ENDBRANCH   6   5
ENDBRANCH   7   6
ENDBRANCH  12  11
TORSDOF 6
ENDMDL
MODEL 7
REMARK VINA RESULT:      -8.7      2.275      5.416
REMARK  Name = 
REMARK  6 active torsions:
REMARK  status: ('A' for Active; 'I' for Inactive)
REMARK    1  A    between atoms: C_2  and  C_3
REMARK    2  A    between atoms: C_5  and  C_6
REMARK    3  A    between atoms: C_6  and  N_7
REMARK    4  A    between atoms: C_11  and  C_12
REMARK    5  A    between atoms: C_14  and  C_17
REMARK    6  A    between atoms: C_20  and  N_23
REMARK                            x       y       z     vdW  Elec       q    Type
REMARK                         _______ _______ _______ _____ _____    ______ ____
ROOT
ATOM     12  C   UNL     1      -0.623   1.296  24.247  0.00  0.00    +0.251 A 
ATOM     13  N   UNL     1      -1.442   1.364  24.325  0.00  0.00    -0.190 NA
ATOM     14  C   UNL     1      -1.606   2.101  24.657  0.00  0.00    +0.205 A 
ATOM     15  N   UNL     1      -0.889   2.488  24.784  0.00  0.00    -0.056 NA
ATOM     16  O   UNL     1      -0.283   1.991  24.531  0.00  0.00    -0.336 OA
ENDROOT
BRANCH  14  17
ATOM     17  C   UNL     1      -2.356   2.398  24.831  0.00  0.00    +0.058 A 
ATOM     18  C   UNL     1      -2.981   2.270  24.309  0.00  0.00    +0.008 A 
ATOM     19  C   UNL     1      -3.731   2.567  24.483  0.00  0.00    +0.034 A 
ATOM     20  C   UNL     1      -3.855   2.992  25.179  0.00  0.00    +0.132 A 
ATOM     21  N   UNL     1      -3.230   3.120  25.702  0.00  0.00    -0.229 NA
ATOM     22  C   UNL     1      -2.480   2.823  25.527  0.00  0.00    +0.103 A 
BRANCH  20  23
ATOM     23  N   UNL     1      -4.605   3.290  25.354  0.00  0.00    -0.288 N 
ATOM     24  C   UNL     1      -5.197   2.782  25.622  0.00  0.00    +0.124 C 
ATOM     25  C   UNL     1      -5.947   3.079  25.797  0.00  0.00    +0.164 C 
ATOM     26  O   UNL     1      -6.104   3.884  25.702  0.00  0.00    -0.350 OA
ATOM     27  C   UNL     1      -5.512   4.391  25.433  0.00  0.00    +0.164 C 
ATOM     28  C   UNL     1      -4.762   4.094  25.259  0.00  0.00    +0.124 C 
ENDBRANCH  20  23
ENDBRANCH  14  17
BRANCH  12  11
ATOM      7  N   UNL     1      -0.259  -0.127  24.219  0.00  0.00    -0.263 NA
ATOM      8  C   UNL     1       0.233  -0.595  23.751  0.00  0.00    +0.073 C 
ATOM      9  C   UNL     1       0.579  -0.109  23.181  0.00  0.00    +0.019 C 
ATOM     10  C   UNL     1       0.301   0.658  23.297  0.00  0.00    +0.027 C 
ATOM     11  C   UNL     1      -0.218   0.647  23.940  0.00  0.00    +0.138 C 
BRANCH   7   6
ATOM      6  C   UNL     1      -0.713  -0.389  24.857  0.00  0.00    +0.099 C 
BRANCH   6   5
ATOM      3  C   UNL     1      -2.070  -2.089  24.674  0.00  0.00    +0.068 A 
ATOM      4  C   UNL     1      -1.784  -1.316  24.661  0.00  0.00    +0.007 A 
ATOM      5  C   UNL     1      -1.000  -1.163  24.869  0.00  0.00    -0.005 A 
ATOM     29  C   UNL     1      -0.503  -1.783  25.090  0.00  0.00    -0.003 A 
ATOM     30  C   UNL     1      -0.790  -2.557  25.103  0.00  0.00    +0.000 A 
ATOM     31  C   UNL     1      -1.573  -2.710  24.895  0.00  0.00    +0.010 A 
BRANCH   3   2
ATOM      1  N   UNL     1      -3.637  -2.393  24.257  0.00  0.00    -0.191 NA
ATOM      2  C   UNL     1      -2.853  -2.242  24.465  0.00  0.00    +0.100 C 
ENDBRANCH   3   2
ENDBRANCH   6   5
ENDBRANCH   7   6
ENDBRANCH  12  11
TORSDOF 6
ENDMDL
