MODEL 1
REMARK VINA RESULT:     -13.6      0.000      0.000
REMARK  Name = 
REMARK  4 active torsions:
REMARK  status: ('A' for Active; 'I' for Inactive)
REMARK    1  A    between atoms: C_10  and  C_12
REMARK    2  A    between atoms: C_12  and  C_13
REMARK    3  A    between atoms: C_18  and  C_20
REMARK    4  A    between atoms: C_31  and  C_33
REMARK                            x       y       z     vdW  Elec       q    Type
REMARK                         _______ _______ _______ _____ _____    ______ ____
ROOT
ATOM     13  C   UNL     1      -3.790   1.437  24.786  0.00  0.00    +0.050 C 
ATOM     14  C   UNL     1      -3.007   1.693  24.730  0.00  0.00    +0.063 A 
ATOM     15  C   UNL     1      -2.817   2.478  24.902  0.00  0.00    +0.023 A 
ATOM     16  C   UNL     1      -3.409   3.005  25.128  0.00  0.00    +0.034 C 
ATOM     17  C   UNL     1      -4.191   2.750  25.184  0.00  0.00    +0.010 C 
ATOM     18  C   UNL     1      -4.783   3.277  25.410  0.00  0.00    +0.059 C 
ATOM     19  C   UNL     1      -4.127   3.777  25.437  0.00  0.00    +0.005 C 
ATOM     22  C   UNL     1      -5.565   3.022  25.466  0.00  0.00    +0.154 C 
ATOM     23  O   UNL     1      -6.158   3.549  25.693  0.00  0.00    -0.223 OA
ATOM     24  C   UNL     1      -5.756   2.237  25.295  0.00  0.00    +0.033 C 
ATOM     25  C   UNL     1      -5.163   1.709  25.068  0.00  0.00    +0.003 C 
ATOM     26  C   UNL     1      -4.381   1.965  25.013  0.00  0.00    +0.006 C 
ATOM     27  C   UNL     1      -4.572   1.181  24.842  0.00  0.00    +0.000 C 
ATOM     28  S   UNL     1      -2.003   2.570  24.799  0.00  0.00    -0.054 S 
ATOM     29  C   UNL     1      -1.692   1.844  24.565  0.00  0.00    +0.185 A 
ATOM     30  N   UNL     1      -0.898   1.687  24.402  0.00  0.00    -0.150 NA
ATOM     31  C   UNL     1      -0.336   2.287  24.469  0.00  0.00    +0.277 C 
ATOM     32  O   UNL     1       0.457   2.130  24.306  0.00  0.00    -0.267 OA
ATOM     38  N   UNL     1      -2.311   1.301  24.522  0.00  0.00    -0.227 NA
ENDROOT
BRANCH  31  33
ATOM     33  C   UNL     1      -0.569   3.045  24.699  0.00  0.00    +0.085 A 
ATOM     34  C   UNL     1      -0.652   3.311  25.476  0.00  0.00    +0.012 A 
ATOM     35  C   UNL     1      -0.893   4.099  25.450  0.00  0.00    +0.008 A 
ATOM     36  C   UNL     1      -0.959   4.321  24.658  0.00  0.00    +0.036 A 
ATOM     37  S   UNL     1      -0.758   3.669  24.194  0.00  0.00    -0.082 S 
ENDBRANCH  31  33
BRANCH  18  20
ATOM     20  C   UNL     1      -5.147   3.979  25.646  0.00  0.00    +0.184 C 
ATOM     21  O   UNL     1      -4.703   4.669  25.727  0.00  0.00    -0.220 OA
ENDBRANCH  18  20
BRANCH  13  12
ATOM     12  C   UNL     1      -3.980   0.653  24.615  0.00  0.00    +0.091 C 
BRANCH  12  10
ATOM      1  C   UNL     1      -3.542  -3.691  24.604  0.00  0.00    +0.095 C 
ATOM      2  C   UNL     1      -3.784  -3.087  24.097  0.00  0.00    +0.226 C 
ATOM      3  O   UNL     1      -4.037  -3.268  23.333  0.00  0.00    -0.275 OA
ATOM      4  N   UNL     1      -3.772  -2.303  24.353  0.00  0.00    -0.276 N 
ATOM      5  C   UNL     1      -4.014  -1.699  23.846  0.00  0.00    +0.115 C 
ATOM      6  C   UNL     1      -4.003  -0.915  24.102  0.00  0.00    +0.115 C 
ATOM      7  N   UNL     1      -3.750  -0.734  24.866  0.00  0.00    -0.276 N 
ATOM      8  C   UNL     1      -3.508  -1.337  25.373  0.00  0.00    +0.115 C 
ATOM      9  C   UNL     1      -3.519  -2.121  25.117  0.00  0.00    +0.115 C 
ATOM     10  C   UNL     1      -3.739   0.050  25.122  0.00  0.00    +0.226 C 
ATOM     11  O   UNL     1      -3.486   0.231  25.886  0.00  0.00    -0.275 OA
ENDBRANCH  12  10
ENDBRANCH  13  12
TORSDOF 4
ENDMDL
MODEL 2
REMARK VINA RESULT:     -11.4      1.786      3.592
REMARK  Name = 
REMARK  4 active torsions:
REMARK  status: ('A' for Active; 'I' for Inactive)
REMARK    1  A    between atoms: C_10  and  C_12
REMARK    2  A    between atoms: C_12  and  C_13
REMARK    3  A    between atoms: C_18  and  C_20
REMARK    4  A    between atoms: C_31  and  C_33
REMARK                            x       y       z     vdW  Elec       q    Type
REMARK                         _______ _______ _______ _____ _____    ______ ____
ROOT
ATOM     13  C   UNL     1      -1.865   2.156  24.756  0.00  0.00    +0.050 C 
ATOM     14  C   UNL     1      -2.684   2.139  24.865  0.00  0.00    +0.063 A 
ATOM     15  C   UNL     1      -3.095   2.839  25.013  0.00  0.00    +0.023 A 
ATOM     16  C   UNL     1      -2.687   3.556  25.053  0.00  0.00    +0.034 C 
ATOM     17  C   UNL     1      -1.870   3.573  24.944  0.00  0.00    +0.010 C 
ATOM     18  C   UNL     1      -1.464   4.289  24.983  0.00  0.00    +0.059 C 
ATOM     19  C   UNL     1      -2.233   4.553  25.123  0.00  0.00    +0.005 C 
ATOM     22  C   UNL     1      -0.646   4.306  24.874  0.00  0.00    +0.154 C 
ATOM     23  O   UNL     1      -0.239   5.023  24.913  0.00  0.00    -0.223 OA
ATOM     24  C   UNL     1      -0.235   3.607  24.726  0.00  0.00    +0.033 C 
ATOM     25  C   UNL     1      -0.642   2.889  24.686  0.00  0.00    +0.003 C 
ATOM     26  C   UNL     1      -1.459   2.873  24.795  0.00  0.00    +0.006 C 
ATOM     27  C   UNL     1      -1.048   2.173  24.647  0.00  0.00    +0.000 C 
ATOM     28  S   UNL     1      -3.894   2.652  25.098  0.00  0.00    -0.054 S 
ATOM     29  C   UNL     1      -3.977   1.838  25.001  0.00  0.00    +0.185 A 
ATOM     30  N   UNL     1      -4.683   1.414  25.041  0.00  0.00    -0.150 NA
ATOM     31  C   UNL     1      -5.393   1.808  25.190  0.00  0.00    +0.277 C 
ATOM     32  O   UNL     1      -6.100   1.384  25.230  0.00  0.00    -0.267 OA
ATOM     38  N   UNL     1      -3.229   1.520  24.857  0.00  0.00    -0.227 NA
ENDROOT
BRANCH  31  33
ATOM     33  C   UNL     1      -5.395   2.626  25.298  0.00  0.00    +0.085 A 
ATOM     34  C   UNL     1      -5.423   3.193  24.700  0.00  0.00    +0.012 A 
ATOM     35  C   UNL     1      -5.415   3.938  25.055  0.00  0.00    +0.008 A 
ATOM     36  C   UNL     1      -5.380   3.831  25.872  0.00  0.00    +0.036 A 
ATOM     37  S   UNL     1      -5.368   3.020  26.022  0.00  0.00    -0.082 S 
ENDBRANCH  31  33
BRANCH  18  20
ATOM     20  C   UNL     1      -1.324   5.097  25.071  0.00  0.00    +0.184 C 
ATOM     21  O   UNL     1      -1.917   5.590  25.364  0.00  0.00    -0.220 OA
ENDBRANCH  18  20
BRANCH  13  12
ATOM     12  C   UNL     1      -1.455   1.457  24.607  0.00  0.00    +0.091 C 
BRANCH  12  10
ATOM      1  C   UNL     1      -1.028  -2.848  25.197  0.00  0.00    +0.095 C 
ATOM      2  C   UNL     1      -1.167  -2.313  24.585  0.00  0.00    +0.226 C 
ATOM      3  O   UNL     1      -1.269  -2.588  23.814  0.00  0.00    -0.275 OA
ATOM      4  N   UNL     1      -1.204  -1.504  24.744  0.00  0.00    -0.276 N 
ATOM      5  C   UNL     1      -1.344  -0.969  24.131  0.00  0.00    +0.115 C 
ATOM      6  C   UNL     1      -1.381  -0.160  24.290  0.00  0.00    +0.115 C 
ATOM      7  N   UNL     1      -1.278   0.113  25.061  0.00  0.00    -0.276 N 
ATOM      8  C   UNL     1      -1.139  -0.421  25.673  0.00  0.00    +0.115 C 
ATOM      9  C   UNL     1      -1.102  -1.230  25.515  0.00  0.00    +0.115 C 
ATOM     10  C   UNL     1      -1.316   0.922  25.220  0.00  0.00    +0.226 C 
ATOM     11  O   UNL     1      -1.214   1.197  25.991  0.00  0.00    -0.275 OA
ENDBRANCH  12  10
ENDBRANCH  13  12
TORSDOF 4
ENDMDL
MODEL 3
REMARK VINA RESULT:     -10.9      2.059      4.666
REMARK  Name = 
REMARK  4 active torsions:
REMARK  status: ('A' for Active; 'I' for Inactive)
REMARK    1  A    between atoms: C_10  and  C_12
REMARK    2  A    between atoms: C_12  and  C_13
REMARK    3  A    between atoms: C_18  and  C_20
REMARK    4  A    between atoms: C_31  and  C_33
REMARK                            x       y       z     vdW  Elec       q    Type
REMARK                         _______ _______ _______ _____ _____    ______ ____
ROOT
ATOM     13  C   UNL     1      -1.705   0.076  24.144  0.00  0.00    +0.050 C 
ATOM     14  C   UNL     1      -2.125   0.786  24.159  0.00  0.00    +0.063 A 
ATOM     15  C   UNL     1      -2.860   0.824  24.533  0.00  0.00    +0.023 A 
ATOM     16  C   UNL     1      -3.174   0.150  24.892  0.00  0.00    +0.034 C 
ATOM     17  C   UNL     1      -2.755  -0.559  24.877  0.00  0.00    +0.010 C 
ATOM     18  C   UNL     1      -3.070  -1.232  25.236  0.00  0.00    +0.059 C 
ATOM     19  C   UNL     1      -3.671  -0.690  25.394  0.00  0.00    +0.005 C 
ATOM     22  C   UNL     1      -2.651  -1.942  25.221  0.00  0.00    +0.154 C 
ATOM     23  O   UNL     1      -2.965  -2.616  25.580  0.00  0.00    -0.223 OA
ATOM     24  C   UNL     1      -1.916  -1.980  24.847  0.00  0.00    +0.033 C 
ATOM     25  C   UNL     1      -1.601  -1.306  24.488  0.00  0.00    +0.003 C 
ATOM     26  C   UNL     1      -2.021  -0.597  24.503  0.00  0.00    +0.006 C 
ATOM     27  C   UNL     1      -1.286  -0.634  24.129  0.00  0.00    +0.000 C 
ATOM     28  S   UNL     1      -3.144   1.595  24.460  0.00  0.00    -0.054 S 
ATOM     29  C   UNL     1      -2.586   2.033  24.041  0.00  0.00    +0.185 A 
ATOM     30  N   UNL     1      -2.647   2.832  23.843  0.00  0.00    -0.150 NA
ATOM     31  C   UNL     1      -3.312   3.264  24.067  0.00  0.00    +0.277 C 
ATOM     32  O   UNL     1      -3.373   4.062  23.868  0.00  0.00    -0.267 OA
ATOM     38  N   UNL     1      -1.956   1.535  23.855  0.00  0.00    -0.227 NA
ENDROOT
BRANCH  31  33
ATOM     33  C   UNL     1      -3.918   2.896  24.490  0.00  0.00    +0.085 A 
ATOM     34  C   UNL     1      -4.549   2.475  24.165  0.00  0.00    +0.012 A 
ATOM     35  C   UNL     1      -5.020   2.203  24.785  0.00  0.00    +0.008 A 
ATOM     36  C   UNL     1      -4.681   2.457  25.494  0.00  0.00    +0.036 A 
ATOM     37  S   UNL     1      -4.000   2.885  25.310  0.00  0.00    -0.082 S 
ENDBRANCH  31  33
BRANCH  18  20
ATOM     20  C   UNL     1      -3.593  -1.717  25.650  0.00  0.00    +0.184 C 
ATOM     21  O   UNL     1      -4.046  -1.406  26.264  0.00  0.00    -0.220 OA
ENDBRANCH  18  20
BRANCH  13  12
ATOM     12  C   UNL     1      -0.972   0.038  23.771  0.00  0.00    +0.091 C 
BRANCH  12  10
ATOM      1  C   UNL     1       3.219   0.825  22.832  0.00  0.00    +0.095 C 
ATOM      2  C   UNL     1       2.570   0.434  22.507  0.00  0.00    +0.226 C 
ATOM      3  O   UNL     1       2.644   0.043  21.784  0.00  0.00    -0.275 OA
ATOM      4  N   UNL     1       1.847   0.433  22.904  0.00  0.00    -0.276 N 
ATOM      5  C   UNL     1       1.197   0.041  22.579  0.00  0.00    +0.115 C 
ATOM      6  C   UNL     1       0.474   0.040  22.976  0.00  0.00    +0.115 C 
ATOM      7  N   UNL     1       0.400   0.431  23.699  0.00  0.00    -0.276 N 
ATOM      8  C   UNL     1       1.049   0.822  24.024  0.00  0.00    +0.115 C 
ATOM      9  C   UNL     1       1.772   0.823  23.627  0.00  0.00    +0.115 C 
ATOM     10  C   UNL     1      -0.323   0.430  24.096  0.00  0.00    +0.226 C 
ATOM     11  O   UNL     1      -0.397   0.821  24.818  0.00  0.00    -0.275 OA
ENDBRANCH  12  10
ENDBRANCH  13  12
TORSDOF 4
ENDMDL
MODEL 4
REMARK VINA RESULT:     -10.4      2.025      3.683
REMARK  Name = 
REMARK  4 active torsions:
REMARK  status: ('A' for Active; 'I' for Inactive)
REMARK    1  A    between atoms: C_10  and  C_12
REMARK    2  A    between atoms: C_12  and  C_13
REMARK    3  A    between atoms: C_18  and  C_20
REMARK    4  A    between atoms: C_31  and  C_33
REMARK                            x       y       z     vdW  Elec       q    Type
REMARK                         _______ _______ _______ _____ _____    ______ ____
ROOT
ATOM     13  C   UNL     1      -1.952   0.903  24.093  0.00  0.00    +0.050 C 
ATOM     14  C   UNL     1      -1.869   1.686  24.343  0.00  0.00    +0.063 A 
ATOM     15  C   UNL     1      -2.488   2.060  24.741  0.00  0.00    +0.023 A 
ATOM     16  C   UNL     1      -3.190   1.651  24.888  0.00  0.00    +0.034 C 
ATOM     17  C   UNL     1      -3.273   0.870  24.639  0.00  0.00    +0.010 C 
ATOM     18  C   UNL     1      -3.974   0.462  24.787  0.00  0.00    +0.059 C 
ATOM     19  C   UNL     1      -4.157   1.189  25.129  0.00  0.00    +0.005 C 
ATOM     22  C   UNL     1      -4.057  -0.320  24.537  0.00  0.00    +0.154 C 
ATOM     23  O   UNL     1      -4.759  -0.729  24.685  0.00  0.00    -0.223 OA
ATOM     24  C   UNL     1      -3.439  -0.694  24.140  0.00  0.00    +0.033 C 
ATOM     25  C   UNL     1      -2.736  -0.286  23.991  0.00  0.00    +0.003 C 
ATOM     26  C   UNL     1      -2.654   0.496  24.241  0.00  0.00    +0.006 C 
ATOM     27  C   UNL     1      -2.035   0.122  23.844  0.00  0.00    +0.000 C 
ATOM     28  S   UNL     1      -2.248   2.829  24.919  0.00  0.00    -0.054 S 
ATOM     29  C   UNL     1      -1.482   2.930  24.632  0.00  0.00    +0.185 A 
ATOM     30  N   UNL     1      -1.030   3.617  24.691  0.00  0.00    -0.150 NA
ATOM     31  C   UNL     1      -1.338   4.284  25.065  0.00  0.00    +0.277 C 
ATOM     32  O   UNL     1      -0.885   4.971  25.123  0.00  0.00    -0.267 OA
ATOM     38  N   UNL     1      -1.247   2.224  24.276  0.00  0.00    -0.227 NA
ENDROOT
BRANCH  31  33
ATOM     33  C   UNL     1      -2.100   4.264  25.379  0.00  0.00    +0.085 A 
ATOM     34  C   UNL     1      -2.302   4.028  26.144  0.00  0.00    +0.012 A 
ATOM     35  C   UNL     1      -3.121   4.094  26.223  0.00  0.00    +0.008 A 
ATOM     36  C   UNL     1      -3.425   4.370  25.507  0.00  0.00    +0.036 A 
ATOM     37  S   UNL     1      -2.794   4.475  24.986  0.00  0.00    -0.082 S 
ENDBRANCH  31  33
BRANCH  18  20
ATOM     20  C   UNL     1      -4.739   0.306  25.053  0.00  0.00    +0.184 C 
ATOM     21  O   UNL     1      -5.174   0.898  25.428  0.00  0.00    -0.220 OA
ENDBRANCH  18  20
BRANCH  13  12
ATOM     12  C   UNL     1      -1.334   0.530  23.696  0.00  0.00    +0.091 C 
BRANCH  12  10
ATOM      1  C   UNL     1       2.855  -0.337  22.822  0.00  0.00    +0.095 C 
ATOM      2  C   UNL     1       2.160  -0.148  22.420  0.00  0.00    +0.226 C 
ATOM      3  O   UNL     1       2.165  -0.082  21.597  0.00  0.00    -0.275 OA
ATOM      4  N   UNL     1       1.460  -0.026  22.839  0.00  0.00    -0.276 N 
ATOM      5  C   UNL     1       0.765   0.163  22.437  0.00  0.00    +0.115 C 
ATOM      6  C   UNL     1       0.065   0.285  22.857  0.00  0.00    +0.115 C 
ATOM      7  N   UNL     1       0.060   0.219  23.678  0.00  0.00    -0.276 N 
ATOM      8  C   UNL     1       0.755   0.030  24.081  0.00  0.00    +0.115 C 
ATOM      9  C   UNL     1       1.454  -0.092  23.661  0.00  0.00    +0.115 C 
ATOM     10  C   UNL     1      -0.639   0.341  24.098  0.00  0.00    +0.226 C 
ATOM     11  O   UNL     1      -0.645   0.274  24.920  0.00  0.00    -0.275 OA
ENDBRANCH  12  10
ENDBRANCH  13  12
TORSDOF 4
ENDMDL
MODEL 5
REMARK VINA RESULT:     -10.4      1.625      4.532
REMARK  Name = 
REMARK  4 active torsions:
REMARK  status: ('A' for Active; 'I' for Inactive)
REMARK    1  A    between atoms: C_10  and  C_12
REMARK    2  A    between atoms: C_12  and  C_13
REMARK    3  A    between atoms: C_18  and  C_20
REMARK    4  A    between atoms: C_31  and  C_33
REMARK                            x       y       z     vdW  Elec       q    Type
REMARK                         _______ _______ _______ _____ _____    ______ ____
ROOT
ATOM     13  C   UNL     1      -3.072   0.070  24.813  0.00  0.00    +0.050 C 
ATOM     14  C   UNL     1      -2.327   0.369  24.622  0.00  0.00    +0.063 A 
ATOM     15  C   UNL     1      -1.727  -0.143  24.379  0.00  0.00    +0.023 A 
ATOM     16  C   UNL     1      -1.873  -0.954  24.328  0.00  0.00    +0.034 C 
ATOM     17  C   UNL     1      -2.617  -1.252  24.519  0.00  0.00    +0.010 C 
ATOM     18  C   UNL     1      -2.762  -2.062  24.468  0.00  0.00    +0.059 C 
ATOM     19  C   UNL     1      -1.973  -2.043  24.230  0.00  0.00    +0.005 C 
ATOM     22  C   UNL     1      -3.507  -2.361  24.659  0.00  0.00    +0.154 C 
ATOM     23  O   UNL     1      -3.653  -3.172  24.608  0.00  0.00    -0.223 OA
ATOM     24  C   UNL     1      -4.107  -1.850  24.902  0.00  0.00    +0.033 C 
ATOM     25  C   UNL     1      -3.961  -1.038  24.953  0.00  0.00    +0.003 C 
ATOM     26  C   UNL     1      -3.217  -0.740  24.762  0.00  0.00    +0.006 C 
ATOM     27  C   UNL     1      -3.816  -0.228  25.005  0.00  0.00    +0.000 C 
ATOM     28  S   UNL     1      -1.053   0.308  24.227  0.00  0.00    -0.054 S 
ATOM     29  C   UNL     1      -1.236   1.097  24.375  0.00  0.00    +0.185 A 
ATOM     30  N   UNL     1      -0.722   1.738  24.295  0.00  0.00    -0.150 NA
ATOM     31  C   UNL     1       0.054   1.615  24.044  0.00  0.00    +0.277 C 
ATOM     32  O   UNL     1       0.568   2.256  23.963  0.00  0.00    -0.267 OA
ATOM     38  N   UNL     1      -2.023   1.136  24.620  0.00  0.00    -0.227 NA
ENDROOT
BRANCH  31  33
ATOM     33  C   UNL     1       0.316   0.852  23.874  0.00  0.00    +0.085 A 
ATOM     34  C   UNL     1       0.589   0.300  24.424  0.00  0.00    +0.012 A 
ATOM     35  C   UNL     1       0.793  -0.387  24.016  0.00  0.00    +0.008 A 
ATOM     36  C   UNL     1       0.646  -0.261  23.214  0.00  0.00    +0.036 A 
ATOM     37  S   UNL     1       0.351   0.505  23.127  0.00  0.00    -0.082 S 
ENDBRANCH  31  33
BRANCH  18  20
ATOM     20  C   UNL     1      -2.633  -2.866  24.334  0.00  0.00    +0.184 C 
ATOM     21  O   UNL     1      -1.902  -3.127  24.057  0.00  0.00    -0.220 OA
ENDBRANCH  18  20
BRANCH  13  12
ATOM     12  C   UNL     1      -3.671   0.581  25.056  0.00  0.00    +0.091 C 
BRANCH  12  10
ATOM      1  C   UNL     1      -5.837   4.373  25.074  0.00  0.00    +0.095 C 
ATOM      2  C   UNL     1      -5.505   3.841  25.611  0.00  0.00    +0.226 C 
ATOM      3  O   UNL     1      -5.550   3.992  26.421  0.00  0.00    -0.275 OA
ATOM      4  N   UNL     1      -5.129   3.159  25.338  0.00  0.00    -0.276 N 
ATOM      5  C   UNL     1      -4.798   2.627  25.874  0.00  0.00    +0.115 C 
ATOM      6  C   UNL     1      -4.422   1.945  25.602  0.00  0.00    +0.115 C 
ATOM      7  N   UNL     1      -4.378   1.795  24.792  0.00  0.00    -0.276 N 
ATOM      8  C   UNL     1      -4.709   2.326  24.255  0.00  0.00    +0.115 C 
ATOM      9  C   UNL     1      -5.085   3.008  24.528  0.00  0.00    +0.115 C 
ATOM     10  C   UNL     1      -4.003   1.113  24.519  0.00  0.00    +0.226 C 
ATOM     11  O   UNL     1      -3.958   0.962  23.710  0.00  0.00    -0.275 OA
ENDBRANCH  12  10
ENDBRANCH  13  12
TORSDOF 4
ENDMDL
MODEL 6
REMARK VINA RESULT:      -9.8      1.732      5.261
REMARK  Name = 
REMARK  4 active torsions:
REMARK  status: ('A' for Active; 'I' for Inactive)
REMARK    1  A    between atoms: C_10  and  C_12
REMARK    2  A    between atoms: C_12  and  C_13
REMARK    3  A    between atoms: C_18  and  C_20
REMARK    4  A    between atoms: C_31  and  C_33
REMARK                            x       y       z     vdW  Elec       q    Type
REMARK                         _______ _______ _______ _____ _____    ______ ____
ROOT
ATOM     13  C   UNL     1      -1.828   1.449  24.812  0.00  0.00    +0.050 C 
ATOM     14  C   UNL     1      -2.124   0.681  24.870  0.00  0.00    +0.063 A 
ATOM     15  C   UNL     1      -1.643   0.038  24.680  0.00  0.00    +0.023 A 
ATOM     16  C   UNL     1      -0.866   0.164  24.432  0.00  0.00    +0.034 C 
ATOM     17  C   UNL     1      -0.570   0.931  24.374  0.00  0.00    +0.010 C 
ATOM     18  C   UNL     1       0.206   1.056  24.126  0.00  0.00    +0.059 C 
ATOM     19  C   UNL     1       0.176   0.232  24.094  0.00  0.00    +0.005 C 
ATOM     22  C   UNL     1       0.503   1.823  24.068  0.00  0.00    +0.154 C 
ATOM     23  O   UNL     1       1.280   1.949  23.820  0.00  0.00    -0.223 OA
ATOM     24  C   UNL     1       0.022   2.466  24.258  0.00  0.00    +0.033 C 
ATOM     25  C   UNL     1      -0.756   2.342  24.507  0.00  0.00    +0.003 C 
ATOM     26  C   UNL     1      -1.051   1.574  24.564  0.00  0.00    +0.006 C 
ATOM     27  C   UNL     1      -1.532   2.217  24.754  0.00  0.00    +0.000 C 
ATOM     28  S   UNL     1      -2.084  -0.651  24.789  0.00  0.00    -0.054 S 
ATOM     29  C   UNL     1      -2.836  -0.434  25.046  0.00  0.00    +0.185 A 
ATOM     30  N   UNL     1      -3.456  -0.949  25.223  0.00  0.00    -0.150 NA
ATOM     31  C   UNL     1      -3.350  -1.764  25.147  0.00  0.00    +0.277 C 
ATOM     32  O   UNL     1      -3.970  -2.279  25.323  0.00  0.00    -0.267 OA
ATOM     38  N   UNL     1      -2.862   0.389  25.097  0.00  0.00    -0.227 NA
ENDROOT
BRANCH  31  33
ATOM     33  C   UNL     1      -2.624  -2.062  24.894  0.00  0.00    +0.085 A 
ATOM     34  C   UNL     1      -1.972  -2.221  25.374  0.00  0.00    +0.012 A 
ATOM     35  C   UNL     1      -1.367  -2.511  24.894  0.00  0.00    +0.008 A 
ATOM     36  C   UNL     1      -1.644  -2.532  24.117  0.00  0.00    +0.036 A 
ATOM     37  S   UNL     1      -2.421  -2.254  24.118  0.00  0.00    -0.082 S 
ENDBRANCH  31  33
BRANCH  18  20
ATOM     20  C   UNL     1       0.973   0.895  23.867  0.00  0.00    +0.184 C 
ATOM     21  O   UNL     1       1.133   0.197  23.459  0.00  0.00    -0.220 OA
ENDBRANCH  18  20
BRANCH  13  12
ATOM     12  C   UNL     1      -2.308   2.092  25.002  0.00  0.00    +0.091 C 
BRANCH  12  10
ATOM      1  C   UNL     1      -6.099   4.247  25.215  0.00  0.00    +0.095 C 
ATOM      2  C   UNL     1      -5.470   4.042  25.707  0.00  0.00    +0.226 C 
ATOM      3  O   UNL     1      -5.474   4.275  26.498  0.00  0.00    -0.275 OA
ATOM      4  N   UNL     1      -4.837   3.606  25.408  0.00  0.00    -0.276 N 
ATOM      5  C   UNL     1      -4.207   3.401  25.899  0.00  0.00    +0.115 C 
ATOM      6  C   UNL     1      -3.574   2.965  25.600  0.00  0.00    +0.115 C 
ATOM      7  N   UNL     1      -3.571   2.733  24.809  0.00  0.00    -0.276 N 
ATOM      8  C   UNL     1      -4.200   2.937  24.317  0.00  0.00    +0.115 C 
ATOM      9  C   UNL     1      -4.833   3.373  24.616  0.00  0.00    +0.115 C 
ATOM     10  C   UNL     1      -2.938   2.296  24.510  0.00  0.00    +0.226 C 
ATOM     11  O   UNL     1      -2.934   2.064  23.719  0.00  0.00    -0.275 OA
ENDBRANCH  12  10
ENDBRANCH  13  12
TORSDOF 4
ENDMDL
MODEL 7
REMARK VINA RESULT:      -9.6      2.420      5.019
REMARK  Name = 
REMARK  4 active torsions:
REMARK  status: ('A' for Active; 'I' for Inactive)
REMARK    1  A    between atoms: C_10  and  C_12
REMARK    2  A    between atoms: C_12  and  C_13
REMARK    3  A    between atoms: C_18  and  C_20
REMARK    4  A    between atoms: C_31  and  C_33
REMARK                            x       y       z     vdW  Elec       q    Type
REMARK                         _______ _______ _______ _____ _____    ______ ____
ROOT
ATOM     13  C   UNL     1      -0.725   0.983  24.312  0.00  0.00    +0.050 C 
ATOM     14  C   UNL     1      -1.111   0.263  24.431  0.00  0.00    +0.063 A 
ATOM     15  C   UNL     1      -1.910   0.253  24.637  0.00  0.00    +0.023 A 
ATOM     16  C   UNL     1      -2.322   0.963  24.725  0.00  0.00    +0.034 C 
ATOM     17  C   UNL     1      -1.936   1.681  24.607  0.00  0.00    +0.010 C 
ATOM     18  C   UNL     1      -2.348   2.390  24.695  0.00  0.00    +0.059 C 
ATOM     19  C   UNL     1      -2.950   1.852  24.864  0.00  0.00    +0.005 C 
ATOM     22  C   UNL     1      -1.963   3.110  24.576  0.00  0.00    +0.154 C 
ATOM     23  O   UNL     1      -2.375   3.819  24.664  0.00  0.00    -0.223 OA
ATOM     24  C   UNL     1      -1.164   3.120  24.370  0.00  0.00    +0.033 C 
ATOM     25  C   UNL     1      -0.751   2.411  24.282  0.00  0.00    +0.003 C 
ATOM     26  C   UNL     1      -1.138   1.692  24.400  0.00  0.00    +0.006 C 
ATOM     27  C   UNL     1      -0.339   1.702  24.194  0.00  0.00    +0.000 C 
ATOM     28  S   UNL     1      -2.142  -0.535  24.718  0.00  0.00    -0.054 S 
ATOM     29  C   UNL     1      -1.488  -1.010  24.561  0.00  0.00    +0.185 A 
ATOM     30  N   UNL     1      -1.472  -1.835  24.579  0.00  0.00    -0.150 NA
ATOM     31  C   UNL     1      -2.156  -2.257  24.766  0.00  0.00    +0.277 C 
ATOM     32  O   UNL     1      -2.141  -3.081  24.784  0.00  0.00    -0.267 OA
ATOM     38  N   UNL     1      -0.850  -0.518  24.384  0.00  0.00    -0.227 NA
ENDROOT
BRANCH  31  33
ATOM     33  C   UNL     1      -2.855  -1.853  24.936  0.00  0.00    +0.085 A 
ATOM     34  C   UNL     1      -3.078  -1.560  25.675  0.00  0.00    +0.012 A 
ATOM     35  C   UNL     1      -3.814  -1.197  25.594  0.00  0.00    +0.008 A 
ATOM     36  C   UNL     1      -4.047  -1.265  24.805  0.00  0.00    +0.036 A 
ATOM     37  S   UNL     1      -3.454  -1.671  24.399  0.00  0.00    -0.082 S 
ENDBRANCH  31  33
BRANCH  18  20
ATOM     20  C   UNL     1      -2.970   2.913  24.841  0.00  0.00    +0.184 C 
ATOM     21  O   UNL     1      -3.718   2.622  25.032  0.00  0.00    -0.220 OA
ENDBRANCH  18  20
BRANCH  13  12
ATOM     12  C   UNL     1       0.073   0.994  24.106  0.00  0.00    +0.091 C 
BRANCH  12  10
ATOM      1  C   UNL     1       3.780   0.199  21.941  0.00  0.00    +0.095 C 
ATOM      2  C   UNL     1       3.533   0.534  22.653  0.00  0.00    +0.226 C 
ATOM      3  O   UNL     1       4.091   0.839  23.179  0.00  0.00    -0.275 OA
ATOM      4  N   UNL     1       2.730   0.565  22.838  0.00  0.00    -0.276 N 
ATOM      5  C   UNL     1       2.483   0.901  23.550  0.00  0.00    +0.115 C 
ATOM      6  C   UNL     1       1.680   0.932  23.735  0.00  0.00    +0.115 C 
ATOM      7  N   UNL     1       1.123   0.627  23.209  0.00  0.00    -0.276 N 
ATOM      8  C   UNL     1       1.369   0.291  22.497  0.00  0.00    +0.115 C 
ATOM      9  C   UNL     1       2.173   0.260  22.312  0.00  0.00    +0.115 C 
ATOM     10  C   UNL     1       0.320   0.658  23.394  0.00  0.00    +0.226 C 
ATOM     11  O   UNL     1      -0.237   0.353  22.868  0.00  0.00    -0.275 OA
ENDBRANCH  12  10
ENDBRANCH  13  12
TORSDOF 4
ENDMDL
