MODEL 1
REMARK VINA RESULT:     -14.6      0.000      0.000
REMARK  Name = 
REMARK  2 active torsions:
REMARK  status: ('A' for Active; 'I' for Inactive)
REMARK    1  A    between atoms: N_3  and  C_4
REMARK    2  A    between atoms: C_17  and  C_24
REMARK                            x       y       z     vdW  Elec       q    Type
REMARK                         _______ _______ _______ _____ _____    ______ ____
ROOT
ATOM      1  O   UNL     1      -3.032   0.229  24.795  0.00  0.00    -0.250 OA
ATOM      2  C   UNL     1      -3.847   0.336  24.725  0.00  0.00    +0.327 C 
ATOM      3  N   UNL     1      -4.346  -0.317  24.667  0.00  0.00    -0.162 NA
ATOM     10  N   UNL     1      -4.163   1.099  24.713  0.00  0.00    -0.262 N 
ATOM     11  C   UNL     1      -4.739   1.703  24.674  0.00  0.00    +0.097 C 
ATOM     12  C   UNL     1      -4.152   2.495  24.743  0.00  0.00    +0.043 C 
ATOM     13  C   UNL     1      -3.814   3.235  24.788  0.00  0.00    +0.011 C 
ATOM     14  C   UNL     1      -3.601   2.566  24.793  0.00  0.00    +0.058 C 
ATOM     15  C   UNL     1      -4.181   1.811  24.726  0.00  0.00    +0.101 C 
ATOM     16  C   UNL     1      -2.841   2.052  24.850  0.00  0.00    +0.041 A 
ATOM     17  C   UNL     1      -2.023   2.124  24.924  0.00  0.00    +0.015 A 
ATOM     18  C   UNL     1      -1.551   1.448  24.952  0.00  0.00    +0.006 A 
ATOM     19  C   UNL     1      -1.897   0.701  24.905  0.00  0.00    +0.061 A 
ATOM     20  C   UNL     1      -2.715   0.628  24.831  0.00  0.00    +0.261 A 
ATOM     21  O   UNL     1      -2.814  -0.190  24.805  0.00  0.00    -0.267 OA
ATOM     22  N   UNL     1      -3.187   1.304  24.803  0.00  0.00    -0.299 N 
ATOM     23  C   UNL     1      -3.364   1.950  24.801  0.00  0.00    +0.110 C 
ENDROOT
BRANCH   3   4
ATOM      4  C   UNL     1      -4.031  -1.080  24.679  0.00  0.00    +0.075 A 
ATOM      5  C   UNL     1      -3.831  -1.433  25.398  0.00  0.00    +0.017 A 
ATOM      6  C   UNL     1      -3.515  -2.195  25.409  0.00  0.00    +0.001 A 
ATOM      7  C   UNL     1      -3.399  -2.604  24.702  0.00  0.00    +0.000 A 
ATOM      8  C   UNL     1      -3.599  -2.251  23.984  0.00  0.00    +0.001 A 
ATOM      9  C   UNL     1      -3.914  -1.490  23.972  0.00  0.00    +0.017 A 
ENDBRANCH   3   4
BRANCH  17  24
ATOM     24  C   UNL     1      -1.677   2.872  24.970  0.00  0.00    +0.039 A 
ATOM     25  C   UNL     1      -1.388   3.235  24.289  0.00  0.00    +0.102 A 
ATOM     26  N   UNL     1      -1.043   3.983  24.335  0.00  0.00    -0.222 NA
ATOM     27  C   UNL     1      -0.986   4.367  25.063  0.00  0.00    +0.199 A 
ATOM     28  N   UNL     1      -1.275   4.004  25.745  0.00  0.00    -0.222 NA
ATOM     29  C   UNL     1      -1.621   3.256  25.698  0.00  0.00    +0.102 A 
ENDBRANCH  17  24
TORSDOF 2
ENDMDL
MODEL 2
REMARK VINA RESULT:     -13.8      1.224      4.508
REMARK  Name = 
REMARK  2 active torsions:
REMARK  status: ('A' for Active; 'I' for Inactive)
REMARK    1  A    between atoms: N_3  and  C_4
REMARK    2  A    between atoms: C_17  and  C_24
REMARK                            x       y       z     vdW  Elec       q    Type
REMARK                         _______ _______ _______ _____ _____    ______ ____
ROOT
ATOM      1  O   UNL     1      -3.452   1.421  24.857  0.00  0.00    -0.250 OA
ATOM      2  C   UNL     1      -2.664   1.667  24.833  0.00  0.00    +0.327 C 
ATOM      3  N   UNL     1      -2.482   2.471  24.866  0.00  0.00    -0.162 NA
ATOM     10  N   UNL     1      -2.059   1.109  24.778  0.00  0.00    -0.262 N 
ATOM     11  C   UNL     1      -1.283   0.803  24.728  0.00  0.00    +0.097 C 
ATOM     12  C   UNL     1      -1.488  -0.163  24.688  0.00  0.00    +0.043 C 
ATOM     13  C   UNL     1      -1.488  -0.976  24.647  0.00  0.00    +0.011 C 
ATOM     14  C   UNL     1      -1.960  -0.459  24.695  0.00  0.00    +0.058 C 
ATOM     15  C   UNL     1      -1.746   0.471  24.732  0.00  0.00    +0.101 C 
ATOM     16  C   UNL     1      -2.866  -0.313  24.743  0.00  0.00    +0.041 A 
ATOM     17  C   UNL     1      -3.581  -0.723  24.754  0.00  0.00    +0.015 A 
ATOM     18  C   UNL     1      -4.293  -0.309  24.807  0.00  0.00    +0.006 A 
ATOM     19  C   UNL     1      -4.289   0.515  24.849  0.00  0.00    +0.061 A 
ATOM     20  C   UNL     1      -3.574   0.925  24.837  0.00  0.00    +0.261 A 
ATOM     21  O   UNL     1      -3.825   1.709  24.888  0.00  0.00    -0.267 OA
ATOM     22  N   UNL     1      -2.862   0.511  24.784  0.00  0.00    -0.299 N 
ATOM     23  C   UNL     1      -2.432   0.000  24.739  0.00  0.00    +0.110 C 
ENDROOT
BRANCH   3   4
ATOM      4  C   UNL     1      -3.087   3.029  24.921  0.00  0.00    +0.075 A 
ATOM      5  C   UNL     1      -3.430   3.336  24.235  0.00  0.00    +0.017 A 
ATOM      6  C   UNL     1      -4.034   3.894  24.292  0.00  0.00    +0.001 A 
ATOM      7  C   UNL     1      -4.297   4.146  25.033  0.00  0.00    +0.000 A 
ATOM      8  C   UNL     1      -3.954   3.840  25.717  0.00  0.00    +0.001 A 
ATOM      9  C   UNL     1      -3.349   3.282  25.662  0.00  0.00    +0.017 A 
ENDBRANCH   3   4
BRANCH  17  24
ATOM     24  C   UNL     1      -3.585  -1.547  24.713  0.00  0.00    +0.039 A 
ATOM     25  C   UNL     1      -3.459  -1.995  25.394  0.00  0.00    +0.102 A 
ATOM     26  N   UNL     1      -3.463  -2.819  25.353  0.00  0.00    -0.222 NA
ATOM     27  C   UNL     1      -3.592  -3.195  24.630  0.00  0.00    +0.199 A 
ATOM     28  N   UNL     1      -3.718  -2.748  23.949  0.00  0.00    -0.222 NA
ATOM     29  C   UNL     1      -3.714  -1.924  23.990  0.00  0.00    +0.102 A 
ENDBRANCH  17  24
TORSDOF 2
ENDMDL
MODEL 3
REMARK VINA RESULT:     -13.8      1.059      4.220
REMARK  Name = 
REMARK  2 active torsions:
REMARK  status: ('A' for Active; 'I' for Inactive)
REMARK    1  A    between atoms: N_3  and  C_4
REMARK    2  A    between atoms: C_17  and  C_24
REMARK                            x       y       z     vdW  Elec       q    Type
REMARK                         _______ _______ _______ _____ _____    ______ ____
ROOT
ATOM      1  O   UNL     1      -2.451   1.883  24.999  0.00  0.00    -0.250 OA
ATOM      2  C   UNL     1      -3.143   2.322  24.901  0.00  0.00    +0.327 C 
ATOM      3  N   UNL     1      -3.112   3.146  24.897  0.00  0.00    -0.162 NA
ATOM     10  N   UNL     1      -3.866   1.936  24.806  0.00  0.00    -0.262 N 
ATOM     11  C   UNL     1      -4.689   1.838  24.696  0.00  0.00    +0.097 C 
ATOM     12  C   UNL     1      -4.740   0.851  24.698  0.00  0.00    +0.043 C 
ATOM     13  C   UNL     1      -4.948   0.064  24.677  0.00  0.00    +0.011 C 
ATOM     14  C   UNL     1      -4.363   0.444  24.753  0.00  0.00    +0.058 C 
ATOM     15  C   UNL     1      -4.330   1.398  24.749  0.00  0.00    +0.101 C 
ATOM     16  C   UNL     1      -3.457   0.354  24.877  0.00  0.00    +0.041 A 
ATOM     17  C   UNL     1      -2.876  -0.225  24.962  0.00  0.00    +0.015 A 
ATOM     18  C   UNL     1      -2.088  -0.007  25.067  0.00  0.00    +0.006 A 
ATOM     19  C   UNL     1      -1.880   0.792  25.087  0.00  0.00    +0.061 A 
ATOM     20  C   UNL     1      -2.461   1.371  25.003  0.00  0.00    +0.261 A 
ATOM     21  O   UNL     1      -2.019   2.066  25.056  0.00  0.00    -0.267 OA
ATOM     22  N   UNL     1      -3.249   1.152  24.898  0.00  0.00    -0.299 N 
ATOM     23  C   UNL     1      -3.792   0.767  24.828  0.00  0.00    +0.110 C 
ENDROOT
BRANCH   3   4
ATOM      4  C   UNL     1      -2.388   3.532  24.992  0.00  0.00    +0.075 A 
ATOM      5  C   UNL     1      -1.914   3.687  24.334  0.00  0.00    +0.017 A 
ATOM      6  C   UNL     1      -1.192   4.073  24.429  0.00  0.00    +0.001 A 
ATOM      7  C   UNL     1      -0.942   4.304  25.182  0.00  0.00    +0.000 A 
ATOM      8  C   UNL     1      -1.416   4.148  25.838  0.00  0.00    +0.001 A 
ATOM      9  C   UNL     1      -2.139   3.763  25.744  0.00  0.00    +0.017 A 
ENDBRANCH   3   4
BRANCH  17  24
ATOM     24  C   UNL     1      -3.084  -1.024  24.941  0.00  0.00    +0.039 A 
ATOM     25  C   UNL     1      -3.288  -1.415  25.638  0.00  0.00    +0.102 A 
ATOM     26  N   UNL     1      -3.496  -2.213  25.617  0.00  0.00    -0.222 NA
ATOM     27  C   UNL     1      -3.499  -2.620  24.900  0.00  0.00    +0.199 A 
ATOM     28  N   UNL     1      -3.295  -2.229  24.203  0.00  0.00    -0.222 NA
ATOM     29  C   UNL     1      -3.087  -1.431  24.224  0.00  0.00    +0.102 A 
ENDBRANCH  17  24
TORSDOF 2
ENDMDL
MODEL 4
REMARK VINA RESULT:     -13.7      1.707      2.351
REMARK  Name = 
REMARK  2 active torsions:
REMARK  status: ('A' for Active; 'I' for Inactive)
REMARK    1  A    between atoms: N_3  and  C_4
REMARK    2  A    between atoms: C_17  and  C_24
REMARK                            x       y       z     vdW  Elec       q    Type
REMARK                         _______ _______ _______ _____ _____    ______ ____
ROOT
ATOM      1  O   UNL     1      -4.050  -0.046  24.617  0.00  0.00    -0.250 OA
ATOM      2  C   UNL     1      -3.503   0.008  24.001  0.00  0.00    +0.327 C 
ATOM      3  N   UNL     1      -3.165  -0.676  23.689  0.00  0.00    -0.162 NA
ATOM     10  N   UNL     1      -3.294   0.747  23.698  0.00  0.00    -0.262 N 
ATOM     11  C   UNL     1      -2.911   1.311  23.216  0.00  0.00    +0.097 C 
ATOM     12  C   UNL     1      -3.309   2.138  23.581  0.00  0.00    +0.043 C 
ATOM     13  C   UNL     1      -3.540   2.897  23.766  0.00  0.00    +0.011 C 
ATOM     14  C   UNL     1      -3.679   2.245  23.984  0.00  0.00    +0.058 C 
ATOM     15  C   UNL     1      -3.286   1.455  23.620  0.00  0.00    +0.101 C 
ATOM     16  C   UNL     1      -4.186   1.782  24.595  0.00  0.00    +0.041 A 
ATOM     17  C   UNL     1      -4.736   1.908  25.197  0.00  0.00    +0.015 A 
ATOM     18  C   UNL     1      -5.050   1.266  25.609  0.00  0.00    +0.006 A 
ATOM     19  C   UNL     1      -4.814   0.498  25.419  0.00  0.00    +0.061 A 
ATOM     20  C   UNL     1      -4.265   0.373  24.817  0.00  0.00    +0.261 A 
ATOM     21  O   UNL     1      -4.194  -0.449  24.817  0.00  0.00    -0.267 OA
ATOM     22  N   UNL     1      -3.951   1.015  24.405  0.00  0.00    -0.299 N 
ATOM     23  C   UNL     1      -3.835   1.646  24.216  0.00  0.00    +0.110 C 
ENDROOT
BRANCH   3   4
ATOM      4  C   UNL     1      -3.373  -1.415  23.992  0.00  0.00    +0.075 A 
ATOM      5  C   UNL     1      -4.022  -1.820  23.682  0.00  0.00    +0.017 A 
ATOM      6  C   UNL     1      -4.230  -2.558  23.986  0.00  0.00    +0.001 A 
ATOM      7  C   UNL     1      -3.789  -2.892  24.599  0.00  0.00    +0.000 A 
ATOM      8  C   UNL     1      -3.140  -2.487  24.907  0.00  0.00    +0.001 A 
ATOM      9  C   UNL     1      -2.931  -1.749  24.604  0.00  0.00    +0.017 A 
ENDBRANCH   3   4
BRANCH  17  24
ATOM     24  C   UNL     1      -4.972   2.675  25.387  0.00  0.00    +0.039 A 
ATOM     25  C   UNL     1      -5.664   2.986  25.063  0.00  0.00    +0.102 A 
ATOM     26  N   UNL     1      -5.900   3.754  25.253  0.00  0.00    -0.222 NA
ATOM     27  C   UNL     1      -5.444   4.211  25.767  0.00  0.00    +0.199 A 
ATOM     28  N   UNL     1      -4.752   3.900  26.091  0.00  0.00    -0.222 NA
ATOM     29  C   UNL     1      -4.516   3.132  25.901  0.00  0.00    +0.102 A 
ENDBRANCH  17  24
TORSDOF 2
ENDMDL
MODEL 5
REMARK VINA RESULT:     -13.5      1.704      3.720
REMARK  Name = 
REMARK  2 active torsions:
REMARK  status: ('A' for Active; 'I' for Inactive)
REMARK    1  A    between atoms: N_3  and  C_4
REMARK    2  A    between atoms: C_17  and  C_24
REMARK                            x       y       z     vdW  Elec       q    Type
REMARK                         _______ _______ _______ _____ _____    ______ ____
ROOT
ATOM      1  O   UNL     1      -3.599   1.270  24.988  0.00  0.00    -0.250 OA
ATOM      2  C   UNL     1      -4.290   0.880  24.760  0.00  0.00    +0.327 C 
ATOM      3  N   UNL     1      -5.004   1.290  24.728  0.00  0.00    -0.162 NA
ATOM     10  N   UNL     1      -4.265   0.078  24.564  0.00  0.00    -0.262 N 
ATOM     11  C   UNL     1      -4.539  -0.674  24.325  0.00  0.00    +0.097 C 
ATOM     12  C   UNL     1      -3.689  -1.178  24.359  0.00  0.00    +0.043 C 
ATOM     13  C   UNL     1      -3.085  -1.724  24.337  0.00  0.00    +0.011 C 
ATOM     14  C   UNL     1      -3.164  -1.044  24.492  0.00  0.00    +0.058 C 
ATOM     15  C   UNL     1      -3.993  -0.571  24.454  0.00  0.00    +0.101 C 
ATOM     16  C   UNL     1      -2.689  -0.307  24.766  0.00  0.00    +0.041 A 
ATOM     17  C   UNL     1      -1.923  -0.077  24.968  0.00  0.00    +0.015 A 
ATOM     18  C   UNL     1      -1.771   0.702  25.191  0.00  0.00    +0.006 A 
ATOM     19  C   UNL     1      -2.385   1.252  25.213  0.00  0.00    +0.061 A 
ATOM     20  C   UNL     1      -3.151   1.023  25.011  0.00  0.00    +0.261 A 
ATOM     21  O   UNL     1      -3.572   1.726  25.107  0.00  0.00    -0.267 OA
ATOM     22  N   UNL     1      -3.303   0.244  24.787  0.00  0.00    -0.299 N 
ATOM     23  C   UNL     1      -3.201  -0.402  24.645  0.00  0.00    +0.110 C 
ENDROOT
BRANCH   3   4
ATOM      4  C   UNL     1      -5.029   2.092  24.923  0.00  0.00    +0.075 A 
ATOM      5  C   UNL     1      -4.816   2.660  24.364  0.00  0.00    +0.017 A 
ATOM      6  C   UNL     1      -4.841   3.461  24.560  0.00  0.00    +0.001 A 
ATOM      7  C   UNL     1      -5.078   3.694  25.315  0.00  0.00    +0.000 A 
ATOM      8  C   UNL     1      -5.290   3.126  25.874  0.00  0.00    +0.001 A 
ATOM      9  C   UNL     1      -5.266   2.325  25.679  0.00  0.00    +0.017 A 
ENDBRANCH   3   4
BRANCH  17  24
ATOM     24  C   UNL     1      -1.308  -0.628  24.946  0.00  0.00    +0.039 A 
ATOM     25  C   UNL     1      -0.844  -0.701  24.269  0.00  0.00    +0.102 A 
ATOM     26  N   UNL     1      -0.229  -1.251  24.247  0.00  0.00    -0.222 NA
ATOM     27  C   UNL     1      -0.079  -1.729  24.903  0.00  0.00    +0.199 A 
ATOM     28  N   UNL     1      -0.544  -1.655  25.581  0.00  0.00    -0.222 NA
ATOM     29  C   UNL     1      -1.158  -1.105  25.602  0.00  0.00    +0.102 A 
ENDBRANCH  17  24
TORSDOF 2
ENDMDL
