MODEL 1
REMARK VINA RESULT:      -9.4      0.000      0.000
REMARK  Name = 
REMARK  8 active torsions:
REMARK  status: ('A' for Active; 'I' for Inactive)
REMARK    1  A    between atoms: O_2  and  C_3
REMARK    2  A    between atoms: C_3  and  C_4
REMARK    3  A    between atoms: C_4  and  N_5
REMARK    4  A    between atoms: N_5  and  C_6
REMARK    5  A    between atoms: C_9  and  C_12
REMARK    6  A    between atoms: C_15  and  C_17
REMARK    7  A    between atoms: N_21  and  C_22
REMARK    8  A    between atoms: C_22  and  C_23
REMARK                            x       y       z     vdW  Elec       q    Type
REMARK                         _______ _______ _______ _____ _____    ______ ____
ROOT
ATOM     12  C   UNL     1      -0.975  -0.120  24.424  0.00  0.00    +0.205 A 
ATOM     13  N   UNL     1      -1.053  -0.098  25.246  0.00  0.00    -0.056 NA
ATOM     14  O   UNL     1      -1.845  -0.236  25.431  0.00  0.00    -0.336 OA
ATOM     15  C   UNL     1      -2.257  -0.344  24.724  0.00  0.00    +0.251 A 
ATOM     16  N   UNL     1      -1.719  -0.272  24.102  0.00  0.00    -0.190 NA
ENDROOT
BRANCH  12   9
ATOM      6  C   UNL     1       1.123   0.211  23.153  0.00  0.00    +0.148 A 
ATOM      7  C   UNL     1       0.705   0.864  23.439  0.00  0.00    +0.036 A 
ATOM      8  C   UNL     1       0.006   0.753  23.862  0.00  0.00    +0.008 A 
ATOM      9  C   UNL     1      -0.276  -0.010  24.001  0.00  0.00    +0.058 A 
ATOM     10  C   UNL     1       0.141  -0.662  23.716  0.00  0.00    +0.103 A 
ATOM     11  N   UNL     1       0.840  -0.551  23.292  0.00  0.00    -0.228 NA
BRANCH   6   5
ATOM      5  N   UNL     1       1.822   0.321  22.729  0.00  0.00    -0.218 NA
BRANCH   5   4
ATOM      4  C   UNL     1       2.513   0.536  23.124  0.00  0.00    +0.146 C 
BRANCH   4   3
ATOM      3  C   UNL     1       3.228   0.569  22.714  0.00  0.00    +0.166 C 
BRANCH   3   2
ATOM      1  C   UNL     1       4.617   0.573  23.052  0.00  0.00    +0.174 C 
ATOM      2  O   UNL     1       3.881   0.946  23.052  0.00  0.00    -0.349 OA
ENDBRANCH   3   2
ENDBRANCH   4   3
ENDBRANCH   5   4
ENDBRANCH   6   5
ENDBRANCH  12   9
BRANCH  15  17
ATOM     17  C   UNL     1      -3.064  -0.497  24.651  0.00  0.00    +0.138 C 
ATOM     18  C   UNL     1      -3.410  -1.239  24.547  0.00  0.00    +0.027 C 
ATOM     19  C   UNL     1      -4.227  -1.135  24.501  0.00  0.00    +0.019 C 
ATOM     20  C   UNL     1      -4.386  -0.329  24.576  0.00  0.00    +0.073 C 
ATOM     21  N   UNL     1      -3.668   0.066  24.668  0.00  0.00    -0.263 NA
BRANCH  21  22
ATOM     22  C   UNL     1      -3.570   0.879  24.762  0.00  0.00    +0.102 C 
BRANCH  22  23
ATOM     23  C   UNL     1      -4.230   1.368  24.838  0.00  0.00    +0.021 A 
ATOM     24  C   UNL     1      -4.821   1.181  25.382  0.00  0.00    -0.001 A 
ATOM     25  C   UNL     1      -5.481   1.670  25.458  0.00  0.00    -0.000 A 
ATOM     26  C   UNL     1      -5.550   2.345  24.990  0.00  0.00    +0.002 A 
ATOM     27  C   UNL     1      -4.960   2.533  24.446  0.00  0.00    +0.029 A 
ATOM     28  C   UNL     1      -4.299   2.043  24.370  0.00  0.00    +0.137 A 
ATOM     29  F   UNL     1      -3.708   2.231  23.825  0.00  0.00    -0.204 F 
ENDBRANCH  22  23
ENDBRANCH  21  22
ENDBRANCH  15  17
TORSDOF 8
ENDMDL
MODEL 2
REMARK VINA RESULT:      -9.1      1.246      2.384
REMARK  Name = 
REMARK  8 active torsions:
REMARK  status: ('A' for Active; 'I' for Inactive)
REMARK    1  A    between atoms: O_2  and  C_3
REMARK    2  A    between atoms: C_3  and  C_4
REMARK    3  A    between atoms: C_4  and  N_5
REMARK    4  A    between atoms: N_5  and  C_6
REMARK    5  A    between atoms: C_9  and  C_12
REMARK    6  A    between atoms: C_15  and  C_17
REMARK    7  A    between atoms: N_21  and  C_22
REMARK    8  A    between atoms: C_22  and  C_23
REMARK                            x       y       z     vdW  Elec       q    Type
REMARK                         _______ _______ _______ _____ _____    ______ ____
ROOT
ATOM     12  C   UNL     1      -0.792   0.673  24.476  0.00  0.00    +0.205 A 
ATOM     13  N   UNL     1      -0.829   0.844  25.283  0.00  0.00    -0.056 NA
ATOM     14  O   UNL     1      -1.625   0.879  25.500  0.00  0.00    -0.336 OA
ATOM     15  C   UNL     1      -2.079   0.730  24.828  0.00  0.00    +0.251 A 
ATOM     16  N   UNL     1      -1.565   0.602  24.195  0.00  0.00    -0.190 NA
ENDROOT
BRANCH  12   9
ATOM      6  C   UNL     1       1.273   0.417  23.137  0.00  0.00    +0.148 A 
ATOM      7  C   UNL     1       0.751  -0.218  23.216  0.00  0.00    +0.036 A 
ATOM      8  C   UNL     1       0.062  -0.132  23.663  0.00  0.00    +0.008 A 
ATOM      9  C   UNL     1      -0.104   0.588  24.030  0.00  0.00    +0.058 A 
ATOM     10  C   UNL     1       0.417   1.222  23.951  0.00  0.00    +0.103 A 
ATOM     11  N   UNL     1       1.105   1.136  23.504  0.00  0.00    -0.228 NA
BRANCH   6   5
ATOM      5  N   UNL     1       1.961   0.332  22.690  0.00  0.00    -0.218 NA
BRANCH   5   4
ATOM      4  C   UNL     1       2.689   0.554  23.008  0.00  0.00    +0.146 C 
BRANCH   4   3
ATOM      3  C   UNL     1       3.382   0.430  22.578  0.00  0.00    +0.166 C 
BRANCH   3   2
ATOM      1  C   UNL     1       4.726   0.373  23.060  0.00  0.00    +0.174 C 
ATOM      2  O   UNL     1       4.079   0.813  22.799  0.00  0.00    -0.349 OA
ENDBRANCH   3   2
ENDBRANCH   4   3
ENDBRANCH   5   4
ENDBRANCH   6   5
ENDBRANCH  12   9
BRANCH  15  17
ATOM     17  C   UNL     1      -2.903   0.711  24.794  0.00  0.00    +0.138 C 
ATOM     18  C   UNL     1      -3.397   1.356  24.651  0.00  0.00    +0.027 C 
ATOM     19  C   UNL     1      -4.178   1.087  24.665  0.00  0.00    +0.019 C 
ATOM     20  C   UNL     1      -4.165   0.277  24.817  0.00  0.00    +0.073 C 
ATOM     21  N   UNL     1      -3.378   0.044  24.897  0.00  0.00    -0.263 NA
BRANCH  21  22
ATOM     22  C   UNL     1      -3.112  -0.721  25.052  0.00  0.00    +0.102 C 
BRANCH  22  23
ATOM     23  C   UNL     1      -3.485  -1.367  24.700  0.00  0.00    +0.021 A 
ATOM     24  C   UNL     1      -3.951  -1.259  24.027  0.00  0.00    -0.001 A 
ATOM     25  C   UNL     1      -4.324  -1.904  23.675  0.00  0.00    -0.000 A 
ATOM     26  C   UNL     1      -4.233  -2.659  23.996  0.00  0.00    +0.002 A 
ATOM     27  C   UNL     1      -3.768  -2.768  24.669  0.00  0.00    +0.029 A 
ATOM     28  C   UNL     1      -3.394  -2.121  25.020  0.00  0.00    +0.137 A 
ATOM     29  F   UNL     1      -2.929  -2.231  25.693  0.00  0.00    -0.204 F 
ENDBRANCH  22  23
ENDBRANCH  21  22
ENDBRANCH  15  17
TORSDOF 8
ENDMDL
MODEL 3
REMARK VINA RESULT:      -8.7      2.597      4.249
REMARK  Name = 
REMARK  8 active torsions:
REMARK  status: ('A' for Active; 'I' for Inactive)
REMARK    1  A    between atoms: O_2  and  C_3
REMARK    2  A    between atoms: C_3  and  C_4
REMARK    3  A    between atoms: C_4  and  N_5
REMARK    4  A    between atoms: N_5  and  C_6
REMARK    5  A    between atoms: C_9  and  C_12
REMARK    6  A    between atoms: C_15  and  C_17
REMARK    7  A    between atoms: N_21  and  C_22
REMARK    8  A    between atoms: C_22  and  C_23
REMARK                            x       y       z     vdW  Elec       q    Type
REMARK                         _______ _______ _______ _____ _____    ______ ____
ROOT
ATOM     12  C   UNL     1      -0.576   1.646  25.375  0.00  0.00    +0.205 A 
ATOM     13  N   UNL     1       0.010   1.950  25.870  0.00  0.00    -0.056 NA
ATOM     14  O   UNL     1      -0.065   2.772  25.879  0.00  0.00    -0.336 OA
ATOM     15  C   UNL     1      -0.697   2.975  25.389  0.00  0.00    +0.251 A 
ATOM     16  N   UNL     1      -1.012   2.279  25.077  0.00  0.00    -0.190 NA
ENDROOT
BRANCH  12   9
ATOM      6  C   UNL     1      -0.955  -0.748  24.871  0.00  0.00    +0.148 A 
ATOM      7  C   UNL     1      -1.161  -0.444  25.610  0.00  0.00    +0.036 A 
ATOM      8  C   UNL     1      -1.035   0.354  25.778  0.00  0.00    +0.008 A 
ATOM      9  C   UNL     1      -0.702   0.848  25.207  0.00  0.00    +0.058 A 
ATOM     10  C   UNL     1      -0.496   0.545  24.468  0.00  0.00    +0.103 A 
ATOM     11  N   UNL     1      -0.622  -0.253  24.300  0.00  0.00    -0.228 NA
BRANCH   6   5
ATOM      5  N   UNL     1      -1.081  -1.545  24.703  0.00  0.00    -0.218 NA
BRANCH   5   4
ATOM      4  C   UNL     1      -1.828  -1.876  24.811  0.00  0.00    +0.146 C 
BRANCH   4   3
ATOM      3  C   UNL     1      -2.062  -2.524  24.357  0.00  0.00    +0.166 C 
BRANCH   3   2
ATOM      1  C   UNL     1      -3.440  -2.882  24.227  0.00  0.00    +0.174 C 
ATOM      2  O   UNL     1      -2.707  -2.982  24.593  0.00  0.00    -0.349 OA
ENDBRANCH   3   2
ENDBRANCH   4   3
ENDBRANCH   5   4
ENDBRANCH   6   5
ENDBRANCH  12   9
BRANCH  15  17
ATOM     17  C   UNL     1      -0.966   3.740  25.237  0.00  0.00    +0.138 C 
ATOM     18  C   UNL     1      -0.531   4.346  24.884  0.00  0.00    +0.027 C 
ATOM     19  C   UNL     1      -1.014   5.014  24.840  0.00  0.00    +0.019 C 
ATOM     20  C   UNL     1      -1.747   4.820  25.165  0.00  0.00    +0.073 C 
ATOM     21  N   UNL     1      -1.717   4.033  25.410  0.00  0.00    -0.263 NA
BRANCH  21  22
ATOM     22  C   UNL     1      -2.331   3.613  25.766  0.00  0.00    +0.102 C 
BRANCH  22  23
ATOM     23  C   UNL     1      -3.110   3.735  25.523  0.00  0.00    +0.021 A 
ATOM     24  C   UNL     1      -3.303   3.696  24.721  0.00  0.00    -0.001 A 
ATOM     25  C   UNL     1      -4.081   3.818  24.479  0.00  0.00    -0.000 A 
ATOM     26  C   UNL     1      -4.667   3.979  25.036  0.00  0.00    +0.002 A 
ATOM     27  C   UNL     1      -4.475   4.018  25.838  0.00  0.00    +0.029 A 
ATOM     28  C   UNL     1      -3.696   3.896  26.081  0.00  0.00    +0.137 A 
ATOM     29  F   UNL     1      -3.504   3.935  26.882  0.00  0.00    -0.204 F 
ENDBRANCH  22  23
ENDBRANCH  21  22
ENDBRANCH  15  17
TORSDOF 8
ENDMDL
MODEL 4
REMARK VINA RESULT:      -8.5      1.666      2.404
REMARK  Name = 
REMARK  8 active torsions:
REMARK  status: ('A' for Active; 'I' for Inactive)
REMARK    1  A    between atoms: O_2  and  C_3
REMARK    2  A    between atoms: C_3  and  C_4
REMARK    3  A    between atoms: C_4  and  N_5
REMARK    4  A    between atoms: N_5  and  C_6
REMARK    5  A    between atoms: C_9  and  C_12
REMARK    6  A    between atoms: C_15  and  C_17
REMARK    7  A    between atoms: N_21  and  C_22
REMARK    8  A    between atoms: C_22  and  C_23
REMARK                            x       y       z     vdW  Elec       q    Type
REMARK                         _______ _______ _______ _____ _____    ______ ____
ROOT
ATOM     12  C   UNL     1      -0.792   1.965  24.849  0.00  0.00    +0.205 A 
ATOM     13  N   UNL     1      -0.903   1.903  25.665  0.00  0.00    -0.056 NA
ATOM     14  O   UNL     1      -1.525   2.403  25.876  0.00  0.00    -0.336 OA
ATOM     15  C   UNL     1      -1.798   2.773  25.191  0.00  0.00    +0.251 A 
ATOM     16  N   UNL     1      -1.345   2.503  24.556  0.00  0.00    -0.190 NA
ENDROOT
BRANCH  12   9
ATOM      6  C   UNL     1       0.904   0.751  23.517  0.00  0.00    +0.148 A 
ATOM      7  C   UNL     1       0.140   0.446  23.590  0.00  0.00    +0.036 A 
ATOM      8  C   UNL     1      -0.425   0.851  24.034  0.00  0.00    +0.008 A 
ATOM      9  C   UNL     1      -0.227   1.560  24.405  0.00  0.00    +0.058 A 
ATOM     10  C   UNL     1       0.536   1.865  24.332  0.00  0.00    +0.103 A 
ATOM     11  N   UNL     1       1.101   1.460  23.888  0.00  0.00    -0.228 NA
BRANCH   6   5
ATOM      5  N   UNL     1       1.469   0.346  23.073  0.00  0.00    -0.218 NA
BRANCH   5   4
ATOM      4  C   UNL     1       2.246   0.621  23.044  0.00  0.00    +0.146 C 
BRANCH   4   3
ATOM      3  C   UNL     1       2.824   0.184  22.652  0.00  0.00    +0.166 C 
BRANCH   3   2
ATOM      1  C   UNL     1       4.228   0.440  22.741  0.00  0.00    +0.174 C 
ATOM      2  O   UNL     1       3.503   0.558  22.366  0.00  0.00    -0.349 OA
ENDBRANCH   3   2
ENDBRANCH   4   3
ENDBRANCH   5   4
ENDBRANCH   6   5
ENDBRANCH  12   9
BRANCH  15  17
ATOM     17  C   UNL     1      -2.416   3.318  25.147  0.00  0.00    +0.138 C 
ATOM     18  C   UNL     1      -2.337   4.140  25.136  0.00  0.00    +0.027 C 
ATOM     19  C   UNL     1      -3.094   4.467  25.089  0.00  0.00    +0.019 C 
ATOM     20  C   UNL     1      -3.639   3.849  25.071  0.00  0.00    +0.073 C 
ATOM     21  N   UNL     1      -3.220   3.138  25.107  0.00  0.00    -0.263 NA
BRANCH  21  22
ATOM     22  C   UNL     1      -3.548   2.382  25.103  0.00  0.00    +0.102 C 
BRANCH  22  23
ATOM     23  C   UNL     1      -4.365   2.286  25.158  0.00  0.00    +0.021 A 
ATOM     24  C   UNL     1      -4.788   2.683  25.744  0.00  0.00    -0.001 A 
ATOM     25  C   UNL     1      -5.606   2.587  25.799  0.00  0.00    -0.000 A 
ATOM     26  C   UNL     1      -6.000   2.094  25.268  0.00  0.00    +0.002 A 
ATOM     27  C   UNL     1      -5.577   1.697  24.682  0.00  0.00    +0.029 A 
ATOM     28  C   UNL     1      -4.759   1.793  24.627  0.00  0.00    +0.137 A 
ATOM     29  F   UNL     1      -4.336   1.396  24.040  0.00  0.00    -0.204 F 
ENDBRANCH  22  23
ENDBRANCH  21  22
ENDBRANCH  15  17
TORSDOF 8
ENDMDL
MODEL 5
REMARK VINA RESULT:      -8.4      1.869      2.283
REMARK  Name = 
REMARK  8 active torsions:
REMARK  status: ('A' for Active; 'I' for Inactive)
REMARK    1  A    between atoms: O_2  and  C_3
REMARK    2  A    between atoms: C_3  and  C_4
REMARK    3  A    between atoms: C_4  and  N_5
REMARK    4  A    between atoms: N_5  and  C_6
REMARK    5  A    between atoms: C_9  and  C_12
REMARK    6  A    between atoms: C_15  and  C_17
REMARK    7  A    between atoms: N_21  and  C_22
REMARK    8  A    between atoms: C_22  and  C_23
REMARK                            x       y       z     vdW  Elec       q    Type
REMARK                         _______ _______ _______ _____ _____    ______ ____
ROOT
ATOM     12  C   UNL     1      -0.364   0.586  23.818  0.00  0.00    +0.205 A 
ATOM     13  N   UNL     1      -0.695   0.148  24.434  0.00  0.00    -0.056 NA
ATOM     14  O   UNL     1      -1.457   0.435  24.571  0.00  0.00    -0.336 OA
ATOM     15  C   UNL     1      -1.596   1.051  24.039  0.00  0.00    +0.251 A 
ATOM     16  N   UNL     1      -0.921   1.144  23.574  0.00  0.00    -0.190 NA
ENDROOT
BRANCH  12   9
ATOM      6  C   UNL     1       1.901   0.281  22.868  0.00  0.00    +0.148 A 
ATOM      7  C   UNL     1       1.315  -0.285  22.730  0.00  0.00    +0.036 A 
ATOM      8  C   UNL     1       0.560  -0.183  23.046  0.00  0.00    +0.008 A 
ATOM      9  C   UNL     1       0.391   0.485  23.501  0.00  0.00    +0.058 A 
ATOM     10  C   UNL     1       0.975   1.049  23.640  0.00  0.00    +0.103 A 
ATOM     11  N   UNL     1       1.730   0.947  23.323  0.00  0.00    -0.228 NA
BRANCH   6   5
ATOM      5  N   UNL     1       2.656   0.179  22.552  0.00  0.00    -0.218 NA
BRANCH   5   4
ATOM      4  C   UNL     1       3.307   0.524  22.921  0.00  0.00    +0.146 C 
BRANCH   4   3
ATOM      3  C   UNL     1       4.070   0.275  22.728  0.00  0.00    +0.166 C 
BRANCH   3   2
ATOM      1  C   UNL     1       5.374   0.153  23.303  0.00  0.00    +0.174 C 
ATOM      2  O   UNL     1       4.723   0.618  23.101  0.00  0.00    -0.349 OA
ENDBRANCH   3   2
ENDBRANCH   4   3
ENDBRANCH   5   4
ENDBRANCH   6   5
ENDBRANCH  12   9
BRANCH  15  17
ATOM     17  C   UNL     1      -2.289   1.495  23.982  0.00  0.00    +0.138 C 
ATOM     18  C   UNL     1      -2.955   1.300  23.535  0.00  0.00    +0.027 C 
ATOM     19  C   UNL     1      -3.515   1.897  23.639  0.00  0.00    +0.019 C 
ATOM     20  C   UNL     1      -3.196   2.460  24.150  0.00  0.00    +0.073 C 
ATOM     21  N   UNL     1      -2.438   2.212  24.363  0.00  0.00    -0.263 NA
BRANCH  21  22
ATOM     22  C   UNL     1      -1.921   2.610  24.866  0.00  0.00    +0.102 C 
BRANCH  22  23
ATOM     23  C   UNL     1      -2.148   3.324  25.211  0.00  0.00    +0.021 A 
ATOM     24  C   UNL     1      -2.822   3.357  25.687  0.00  0.00    -0.001 A 
ATOM     25  C   UNL     1      -3.049   4.070  26.031  0.00  0.00    -0.000 A 
ATOM     26  C   UNL     1      -2.604   4.752  25.900  0.00  0.00    +0.002 A 
ATOM     27  C   UNL     1      -1.931   4.721  25.425  0.00  0.00    +0.029 A 
ATOM     28  C   UNL     1      -1.703   4.006  25.080  0.00  0.00    +0.137 A 
ATOM     29  F   UNL     1      -1.030   3.975  24.604  0.00  0.00    -0.204 F 
ENDBRANCH  22  23
ENDBRANCH  21  22
ENDBRANCH  15  17
TORSDOF 8
ENDMDL
MODEL 6
REMARK VINA RESULT:      -8.3      3.363      5.039
REMARK  Name = 
REMARK  8 active torsions:
REMARK  status: ('A' for Active; 'I' for Inactive)
REMARK    1  A    between atoms: O_2  and  C_3
REMARK    2  A    between atoms: C_3  and  C_4
REMARK    3  A    between atoms: C_4  and  N_5
REMARK    4  A    between atoms: N_5  and  C_6
REMARK    5  A    between atoms: C_9  and  C_12
REMARK    6  A    between atoms: C_15  and  C_17
REMARK    7  A    between atoms: N_21  and  C_22
REMARK    8  A    between atoms: C_22  and  C_23
REMARK                            x       y       z     vdW  Elec       q    Type
REMARK                         _______ _______ _______ _____ _____    ______ ____
ROOT
ATOM     12  C   UNL     1      -4.232   1.576  24.675  0.00  0.00    +0.205 A 
ATOM     13  N   UNL     1      -4.701   2.097  24.238  0.00  0.00    -0.056 NA
ATOM     14  O   UNL     1      -4.597   2.855  24.550  0.00  0.00    -0.336 OA
ATOM     15  C   UNL     1      -4.065   2.802  25.178  0.00  0.00    +0.251 A 
ATOM     16  N   UNL     1      -3.840   2.011  25.255  0.00  0.00    -0.190 NA
ENDROOT
BRANCH  12   9
ATOM      6  C   UNL     1      -4.042  -0.864  24.307  0.00  0.00    +0.148 A 
ATOM      7  C   UNL     1      -4.364  -0.576  25.010  0.00  0.00    +0.036 A 
ATOM      8  C   UNL     1      -4.428   0.237  25.133  0.00  0.00    +0.008 A 
ATOM      9  C   UNL     1      -4.169   0.763  24.552  0.00  0.00    +0.058 A 
ATOM     10  C   UNL     1      -3.847   0.476  23.850  0.00  0.00    +0.103 A 
ATOM     11  N   UNL     1      -3.783  -0.337  23.727  0.00  0.00    -0.228 NA
BRANCH   6   5
ATOM      5  N   UNL     1      -3.978  -1.677  24.184  0.00  0.00    -0.218 NA
BRANCH   5   4
ATOM      4  C   UNL     1      -3.422  -2.115  24.606  0.00  0.00    +0.146 C 
BRANCH   4   3
ATOM      3  C   UNL     1      -2.983  -2.701  24.226  0.00  0.00    +0.166 C 
BRANCH   3   2
ATOM      1  C   UNL     1      -1.570  -2.871  24.370  0.00  0.00    +0.174 C 
ATOM      2  O   UNL     1      -2.340  -3.049  24.609  0.00  0.00    -0.349 OA
ENDBRANCH   3   2
ENDBRANCH   4   3
ENDBRANCH   5   4
ENDBRANCH   6   5
ENDBRANCH  12   9
BRANCH  15  17
ATOM     17  C   UNL     1      -3.803   3.428  25.646  0.00  0.00    +0.138 C 
ATOM     18  C   UNL     1      -4.222   3.779  26.265  0.00  0.00    +0.027 C 
ATOM     19  C   UNL     1      -3.755   4.382  26.580  0.00  0.00    +0.019 C 
ATOM     20  C   UNL     1      -3.048   4.403  26.156  0.00  0.00    +0.073 C 
ATOM     21  N   UNL     1      -3.077   3.814  25.579  0.00  0.00    -0.263 NA
BRANCH  21  22
ATOM     22  C   UNL     1      -2.485   3.642  25.032  0.00  0.00    +0.102 C 
BRANCH  22  23
ATOM     23  C   UNL     1      -1.813   4.117  24.987  0.00  0.00    +0.021 A 
ATOM     24  C   UNL     1      -1.890   4.938  24.939  0.00  0.00    -0.001 A 
ATOM     25  C   UNL     1      -1.218   5.413  24.895  0.00  0.00    -0.000 A 
ATOM     26  C   UNL     1      -0.468   5.069  24.899  0.00  0.00    +0.002 A 
ATOM     27  C   UNL     1      -0.390   4.249  24.947  0.00  0.00    +0.029 A 
ATOM     28  C   UNL     1      -1.063   3.773  24.992  0.00  0.00    +0.137 A 
ATOM     29  F   UNL     1      -0.985   2.954  25.040  0.00  0.00    -0.204 F 
ENDBRANCH  22  23
ENDBRANCH  21  22
ENDBRANCH  15  17
TORSDOF 8
ENDMDL
MODEL 7
REMARK VINA RESULT:      -8.3      2.787      3.778
REMARK  Name = 
REMARK  8 active torsions:
REMARK  status: ('A' for Active; 'I' for Inactive)
REMARK    1  A    between atoms: O_2  and  C_3
REMARK    2  A    between atoms: C_3  and  C_4
REMARK    3  A    between atoms: C_4  and  N_5
REMARK    4  A    between atoms: N_5  and  C_6
REMARK    5  A    between atoms: C_9  and  C_12
REMARK    6  A    between atoms: C_15  and  C_17
REMARK    7  A    between atoms: N_21  and  C_22
REMARK    8  A    between atoms: C_22  and  C_23
REMARK                            x       y       z     vdW  Elec       q    Type
REMARK                         _______ _______ _______ _____ _____    ______ ____
ROOT
ATOM     12  C   UNL     1      -1.921   1.932  24.974  0.00  0.00    +0.205 A 
ATOM     13  N   UNL     1      -2.049   2.096  24.175  0.00  0.00    -0.056 NA
ATOM     14  O   UNL     1      -2.787   1.788  23.967  0.00  0.00    -0.336 OA
ATOM     15  C   UNL     1      -3.114   1.435  24.637  0.00  0.00    +0.251 A 
ATOM     16  N   UNL     1      -2.579   1.524  25.259  0.00  0.00    -0.190 NA
ENDROOT
BRANCH  12   9
ATOM      6  C   UNL     1       0.084   2.557  26.283  0.00  0.00    +0.148 A 
ATOM      7  C   UNL     1      -0.561   3.071  26.245  0.00  0.00    +0.036 A 
ATOM      8  C   UNL     1      -1.230   2.863  25.809  0.00  0.00    +0.008 A 
ATOM      9  C   UNL     1      -1.253   2.140  25.410  0.00  0.00    +0.058 A 
ATOM     10  C   UNL     1      -0.609   1.627  25.448  0.00  0.00    +0.103 A 
ATOM     11  N   UNL     1       0.059   1.835  25.885  0.00  0.00    -0.228 NA
BRANCH   6   5
ATOM      5  N   UNL     1       0.752   2.765  26.720  0.00  0.00    -0.218 NA
BRANCH   5   4
ATOM      4  C   UNL     1       0.797   2.576  27.521  0.00  0.00    +0.146 C 
BRANCH   4   3
ATOM      3  C   UNL     1       1.494   2.714  27.939  0.00  0.00    +0.166 C 
BRANCH   3   2
ATOM      1  C   UNL     1       2.229   2.657  29.164  0.00  0.00    +0.174 C 
ATOM      2  O   UNL     1       1.513   2.607  28.757  0.00  0.00    -0.349 OA
ENDBRANCH   3   2
ENDBRANCH   4   3
ENDBRANCH   5   4
ENDBRANCH   6   5
ENDBRANCH  12   9
BRANCH  15  17
ATOM     17  C   UNL     1      -3.847   1.060  24.678  0.00  0.00    +0.138 C 
ATOM     18  C   UNL     1      -4.582   1.433  24.717  0.00  0.00    +0.027 C 
ATOM     19  C   UNL     1      -5.164   0.848  24.750  0.00  0.00    +0.019 C 
ATOM     20  C   UNL     1      -4.788   0.114  24.731  0.00  0.00    +0.073 C 
ATOM     21  N   UNL     1      -3.974   0.245  24.686  0.00  0.00    -0.263 NA
BRANCH  21  22
ATOM     22  C   UNL     1      -3.391  -0.338  24.656  0.00  0.00    +0.102 C 
BRANCH  22  23
ATOM     23  C   UNL     1      -3.600  -1.124  24.517  0.00  0.00    +0.021 A 
ATOM     24  C   UNL     1      -4.043  -1.322  23.850  0.00  0.00    -0.001 A 
ATOM     25  C   UNL     1      -4.252  -2.107  23.711  0.00  0.00    -0.000 A 
ATOM     26  C   UNL     1      -4.017  -2.696  24.240  0.00  0.00    +0.002 A 
ATOM     27  C   UNL     1      -3.574  -2.499  24.907  0.00  0.00    +0.029 A 
ATOM     28  C   UNL     1      -3.365  -1.712  25.045  0.00  0.00    +0.137 A 
ATOM     29  F   UNL     1      -2.922  -1.515  25.713  0.00  0.00    -0.204 F 
ENDBRANCH  22  23
ENDBRANCH  21  22
ENDBRANCH  15  17
TORSDOF 8
ENDMDL
MODEL 8
REMARK VINA RESULT:      -8.1      3.114      4.700
REMARK  Name = 
REMARK  8 active torsions:
REMARK  status: ('A' for Active; 'I' for Inactive)
REMARK    1  A    between atoms: O_2  and  C_3
REMARK    2  A    between atoms: C_3  and  C_4
REMARK    3  A    between atoms: C_4  and  N_5
REMARK    4  A    between atoms: N_5  and  C_6
REMARK    5  A    between atoms: C_9  and  C_12
REMARK    6  A    between atoms: C_15  and  C_17
REMARK    7  A    between atoms: N_21  and  C_22
REMARK    8  A    between atoms: C_22  and  C_23
REMARK                            x       y       z     vdW  Elec       q    Type
REMARK                         _______ _______ _______ _____ _____    ______ ____
ROOT
ATOM     12  C   UNL     1      -4.203   0.997  24.720  0.00  0.00    +0.205 A 
ATOM     13  N   UNL     1      -4.923   0.740  25.031  0.00  0.00    -0.056 NA
ATOM     14  O   UNL     1      -4.960  -0.080  24.944  0.00  0.00    -0.336 OA
ATOM     15  C   UNL     1      -4.263  -0.329  24.579  0.00  0.00    +0.251 A 
ATOM     16  N   UNL     1      -3.795   0.336  24.441  0.00  0.00    -0.190 NA
ENDROOT
BRANCH  12   9
ATOM      6  C   UNL     1      -3.407   3.339  24.639  0.00  0.00    +0.148 A 
ATOM      7  C   UNL     1      -3.336   2.856  23.973  0.00  0.00    +0.036 A 
ATOM      8  C   UNL     1      -3.602   2.075  24.000  0.00  0.00    +0.008 A 
ATOM      9  C   UNL     1      -3.937   1.778  24.693  0.00  0.00    +0.058 A 
ATOM     10  C   UNL     1      -4.008   2.260  25.358  0.00  0.00    +0.103 A 
ATOM     11  N   UNL     1      -3.742   3.040  25.331  0.00  0.00    -0.228 NA
BRANCH   6   5
ATOM      5  N   UNL     1      -3.141   4.120  24.612  0.00  0.00    -0.218 NA
BRANCH   5   4
ATOM      4  C   UNL     1      -2.458   4.337  25.019  0.00  0.00    +0.146 C 
BRANCH   4   3
ATOM      3  C   UNL     1      -2.072   5.041  24.830  0.00  0.00    +0.166 C 
BRANCH   3   2
ATOM      1  C   UNL     1      -0.671   5.326  24.852  0.00  0.00    +0.174 C 
ATOM      2  O   UNL     1      -1.394   5.265  25.245  0.00  0.00    -0.349 OA
ENDBRANCH   3   2
ENDBRANCH   4   3
ENDBRANCH   5   4
ENDBRANCH   6   5
ENDBRANCH  12   9
BRANCH  15  17
ATOM     17  C   UNL     1      -4.068  -1.107  24.386  0.00  0.00    +0.138 C 
ATOM     18  C   UNL     1      -4.462  -1.585  23.840  0.00  0.00    +0.027 C 
ATOM     19  C   UNL     1      -4.082  -2.318  23.822  0.00  0.00    +0.019 C 
ATOM     20  C   UNL     1      -3.454  -2.292  24.356  0.00  0.00    +0.073 C 
ATOM     21  N   UNL     1      -3.445  -1.544  24.705  0.00  0.00    -0.263 NA
BRANCH  21  22
ATOM     22  C   UNL     1      -2.908  -1.281  25.273  0.00  0.00    +0.102 C 
BRANCH  22  23
ATOM     23  C   UNL     1      -2.108  -1.466  25.201  0.00  0.00    +0.021 A 
ATOM     24  C   UNL     1      -1.851  -1.959  24.591  0.00  0.00    -0.001 A 
ATOM     25  C   UNL     1      -1.051  -2.145  24.519  0.00  0.00    -0.000 A 
ATOM     26  C   UNL     1      -0.507  -1.839  25.058  0.00  0.00    +0.002 A 
ATOM     27  C   UNL     1      -0.762  -1.346  25.669  0.00  0.00    +0.029 A 
ATOM     28  C   UNL     1      -1.564  -1.160  25.740  0.00  0.00    +0.137 A 
ATOM     29  F   UNL     1      -1.819  -0.668  26.351  0.00  0.00    -0.204 F 
ENDBRANCH  22  23
ENDBRANCH  21  22
ENDBRANCH  15  17
TORSDOF 8
ENDMDL
MODEL 9
REMARK VINA RESULT:      -7.6      2.560      3.996
REMARK  Name = 
REMARK  8 active torsions:
REMARK  status: ('A' for Active; 'I' for Inactive)
REMARK    1  A    between atoms: O_2  and  C_3
REMARK    2  A    between atoms: C_3  and  C_4
REMARK    3  A    between atoms: C_4  and  N_5
REMARK    4  A    between atoms: N_5  and  C_6
REMARK    5  A    between atoms: C_9  and  C_12
REMARK    6  A    between atoms: C_15  and  C_17
REMARK    7  A    between atoms: N_21  and  C_22
REMARK    8  A    between atoms: C_22  and  C_23
REMARK                            x       y       z     vdW  Elec       q    Type
REMARK                         _______ _______ _______ _____ _____    ______ ____
ROOT
ATOM     12  C   UNL     1      -0.377   0.668  24.260  0.00  0.00    +0.205 A 
ATOM     13  N   UNL     1       0.000   0.238  23.665  0.00  0.00    -0.056 NA
ATOM     14  O   UNL     1      -0.143  -0.563  23.800  0.00  0.00    -0.336 OA
ATOM     15  C   UNL     1      -0.609  -0.628  24.478  0.00  0.00    +0.251 A 
ATOM     16  N   UNL     1      -0.754   0.133  24.762  0.00  0.00    -0.190 NA
ENDROOT
BRANCH  12   9
ATOM      6  C   UNL     1      -0.379   3.132  24.495  0.00  0.00    +0.148 A 
ATOM      7  C   UNL     1      -0.834   2.773  23.907  0.00  0.00    +0.036 A 
ATOM      8  C   UNL     1      -0.834   1.952  23.829  0.00  0.00    +0.008 A 
ATOM      9  C   UNL     1      -0.378   1.490  24.338  0.00  0.00    +0.058 A 
ATOM     10  C   UNL     1       0.077   1.848  24.925  0.00  0.00    +0.103 A 
ATOM     11  N   UNL     1       0.077   2.669  25.004  0.00  0.00    -0.228 NA
BRANCH   6   5
ATOM      5  N   UNL     1      -0.379   3.953  24.574  0.00  0.00    -0.218 NA
BRANCH   5   4
ATOM      4  C   UNL     1      -0.983   4.327  24.993  0.00  0.00    +0.146 C 
BRANCH   4   3
ATOM      3  C   UNL     1      -1.047   5.149  24.978  0.00  0.00    +0.166 C 
BRANCH   3   2
ATOM      1  C   UNL     1      -2.276   5.870  25.101  0.00  0.00    +0.174 C 
ATOM      2  O   UNL     1      -1.610   5.528  25.448  0.00  0.00    -0.349 OA
ENDBRANCH   3   2
ENDBRANCH   4   3
ENDBRANCH   5   4
ENDBRANCH   6   5
ENDBRANCH  12   9
BRANCH  15  17
ATOM     17  C   UNL     1      -0.883  -1.331  24.813  0.00  0.00    +0.138 C 
ATOM     18  C   UNL     1      -0.429  -1.876  25.235  0.00  0.00    +0.027 C 
ATOM     19  C   UNL     1      -0.924  -2.494  25.468  0.00  0.00    +0.019 C 
ATOM     20  C   UNL     1      -1.683  -2.330  25.190  0.00  0.00    +0.073 C 
ATOM     21  N   UNL     1      -1.658  -1.612  24.785  0.00  0.00    -0.263 NA
BRANCH  21  22
ATOM     22  C   UNL     1      -2.296  -1.240  24.417  0.00  0.00    +0.102 C 
BRANCH  22  23
ATOM     23  C   UNL     1      -2.992  -1.659  24.276  0.00  0.00    +0.021 A 
ATOM     24  C   UNL     1      -3.001  -2.481  24.348  0.00  0.00    -0.001 A 
ATOM     25  C   UNL     1      -3.698  -2.899  24.207  0.00  0.00    -0.000 A 
ATOM     26  C   UNL     1      -4.385  -2.497  23.993  0.00  0.00    +0.002 A 
ATOM     27  C   UNL     1      -4.377  -1.675  23.920  0.00  0.00    +0.029 A 
ATOM     28  C   UNL     1      -3.679  -1.256  24.062  0.00  0.00    +0.137 A 
ATOM     29  F   UNL     1      -3.671  -0.434  23.989  0.00  0.00    -0.204 F 
ENDBRANCH  22  23
ENDBRANCH  21  22
ENDBRANCH  15  17
TORSDOF 8
ENDMDL
MODEL 10
REMARK VINA RESULT:      -7.2      2.492      5.231
REMARK  Name = 
REMARK  8 active torsions:
REMARK  status: ('A' for Active; 'I' for Inactive)
REMARK    1  A    between atoms: O_2  and  C_3
REMARK    2  A    between atoms: C_3  and  C_4
REMARK    3  A    between atoms: C_4  and  N_5
REMARK    4  A    between atoms: N_5  and  C_6
REMARK    5  A    between atoms: C_9  and  C_12
REMARK    6  A    between atoms: C_15  and  C_17
REMARK    7  A    between atoms: N_21  and  C_22
REMARK    8  A    between atoms: C_22  and  C_23
REMARK                            x       y       z     vdW  Elec       q    Type
REMARK                         _______ _______ _______ _____ _____    ______ ____
ROOT
ATOM     12  C   UNL     1      -1.847   1.424  24.367  0.00  0.00    +0.205 A 
ATOM     13  N   UNL     1      -1.216   1.407  23.835  0.00  0.00    -0.056 NA
ATOM     14  O   UNL     1      -0.884   0.652  23.856  0.00  0.00    -0.336 OA
ATOM     15  C   UNL     1      -1.309   0.202  24.401  0.00  0.00    +0.251 A 
ATOM     16  N   UNL     1      -1.904   0.679  24.716  0.00  0.00    -0.190 NA
ENDROOT
BRANCH  12   9
ATOM      6  C   UNL     1      -3.308   3.366  24.830  0.00  0.00    +0.148 A 
ATOM      7  C   UNL     1      -3.439   2.902  24.160  0.00  0.00    +0.036 A 
ATOM      8  C   UNL     1      -2.952   2.254  24.005  0.00  0.00    +0.008 A 
ATOM      9  C   UNL     1      -2.334   2.071  24.521  0.00  0.00    +0.058 A 
ATOM     10  C   UNL     1      -2.203   2.535  25.190  0.00  0.00    +0.103 A 
ATOM     11  N   UNL     1      -2.690   3.182  25.345  0.00  0.00    -0.228 NA
BRANCH   6   5
ATOM      5  N   UNL     1      -3.795   4.014  24.984  0.00  0.00    -0.218 NA
BRANCH   5   4
ATOM      4  C   UNL     1      -4.601   3.901  25.120  0.00  0.00    +0.146 C 
BRANCH   4   3
ATOM      3  C   UNL     1      -5.019   4.436  25.588  0.00  0.00    +0.166 C 
BRANCH   3   2
ATOM      1  C   UNL     1      -6.371   4.901  25.573  0.00  0.00    +0.174 C 
ATOM      2  O   UNL     1      -5.821   4.311  25.743  0.00  0.00    -0.349 OA
ENDBRANCH   3   2
ENDBRANCH   4   3
ENDBRANCH   5   4
ENDBRANCH   6   5
ENDBRANCH  12   9
BRANCH  15  17
ATOM     17  C   UNL     1      -1.166  -0.586  24.596  0.00  0.00    +0.138 C 
ATOM     18  C   UNL     1      -0.437  -0.907  24.813  0.00  0.00    +0.027 C 
ATOM     19  C   UNL     1      -0.546  -1.712  24.960  0.00  0.00    +0.019 C 
ATOM     20  C   UNL     1      -1.342  -1.888  24.834  0.00  0.00    +0.073 C 
ATOM     21  N   UNL     1      -1.725  -1.193  24.609  0.00  0.00    -0.263 NA
BRANCH  21  22
ATOM     22  C   UNL     1      -2.526  -1.117  24.429  0.00  0.00    +0.102 C 
BRANCH  22  23
ATOM     23  C   UNL     1      -3.017  -1.780  24.445  0.00  0.00    +0.021 A 
ATOM     24  C   UNL     1      -2.895  -2.370  25.009  0.00  0.00    -0.001 A 
ATOM     25  C   UNL     1      -3.386  -3.033  25.024  0.00  0.00    -0.000 A 
ATOM     26  C   UNL     1      -3.998  -3.106  24.476  0.00  0.00    +0.002 A 
ATOM     27  C   UNL     1      -4.120  -2.516  23.912  0.00  0.00    +0.029 A 
ATOM     28  C   UNL     1      -3.629  -1.853  23.897  0.00  0.00    +0.137 A 
ATOM     29  F   UNL     1      -3.751  -1.263  23.333  0.00  0.00    -0.204 F 
ENDBRANCH  22  23
ENDBRANCH  21  22
ENDBRANCH  15  17
TORSDOF 8
ENDMDL
