MODEL 1
REMARK VINA RESULT:     -12.3      0.000      0.000
REMARK  Name = 
REMARK  4 active torsions:
REMARK  status: ('A' for Active; 'I' for Inactive)
REMARK    1  A    between atoms: C_1  and  C_2
REMARK    2  A    between atoms: C_1  and  N_8
REMARK    3  A    between atoms: C_13  and  C_14
REMARK    4  A    between atoms: C_16  and  C_19
REMARK                            x       y       z     vdW  Elec       q    Type
REMARK                         _______ _______ _______ _____ _____    ______ ____
ROOT
ATOM      8  N   UNL     1      -3.332   2.560  24.856  0.00  0.00    -0.261 NA
ATOM      9  C   UNL     1      -3.491   3.276  25.234  0.00  0.00    +0.120 C 
ATOM     10  C   UNL     1      -4.269   3.492  25.397  0.00  0.00    +0.090 A 
ATOM     11  C   UNL     1      -4.890   2.994  25.182  0.00  0.00    +0.077 A 
ATOM     12  C   UNL     1      -4.732   2.278  24.803  0.00  0.00    +0.073 C 
ATOM     13  C   UNL     1      -3.953   2.061  24.640  0.00  0.00    +0.144 C 
ATOM     28  N   UNL     1      -5.597   3.352  25.413  0.00  0.00    -0.227 NA
ATOM     29  C   UNL     1      -5.413   4.072  25.771  0.00  0.00    +0.198 A 
ATOM     30  N   UNL     1      -4.592   4.159  25.761  0.00  0.00    -0.226 NA
ENDROOT
BRANCH  13  14
ATOM     14  C   UNL     1      -3.794   1.346  24.262  0.00  0.00    +0.251 A 
ATOM     15  N   UNL     1      -3.887   0.593  24.588  0.00  0.00    -0.190 NA
ATOM     16  C   UNL     1      -3.665   0.039  24.020  0.00  0.00    +0.203 A 
ATOM     17  N   UNL     1      -3.435   0.448  23.341  0.00  0.00    -0.056 NA
ATOM     18  O   UNL     1      -3.515   1.256  23.491  0.00  0.00    -0.336 OA
BRANCH  16  19
ATOM     19  C   UNL     1      -3.672  -0.780  24.113  0.00  0.00    +0.042 A 
ATOM     20  C   UNL     1      -3.030  -1.161  24.463  0.00  0.00    +0.043 A 
ATOM     21  C   UNL     1      -3.036  -1.981  24.556  0.00  0.00    +0.177 A 
ATOM     22  C   UNL     1      -3.686  -2.420  24.299  0.00  0.00    +0.176 A 
ATOM     23  O   UNL     1      -3.538  -3.214  24.463  0.00  0.00    -0.435 OA
ATOM     24  C   UNL     1      -2.797  -3.267  24.821  0.00  0.00    +0.429 C 
ATOM     25  O   UNL     1      -2.487  -2.504  24.879  0.00  0.00    -0.435 OA
ATOM     26  C   UNL     1      -4.329  -2.039  23.949  0.00  0.00    +0.040 A 
ATOM     27  C   UNL     1      -4.321  -1.219  23.856  0.00  0.00    +0.006 A 
ENDBRANCH  16  19
ENDBRANCH  13  14
BRANCH   8   1
ATOM      1  C   UNL     1      -2.553   2.343  24.693  0.00  0.00    +0.073 C 
BRANCH   1   2
ATOM      2  C   UNL     1      -1.929   2.805  24.972  0.00  0.00    +0.016 C 
ATOM      3  C   UNL     1      -1.576   2.626  25.697  0.00  0.00    +0.001 C 
ATOM      4  C   UNL     1      -0.952   3.088  25.976  0.00  0.00    +0.000 C 
ATOM      5  C   UNL     1      -0.681   3.727  25.532  0.00  0.00    +0.000 C 
ATOM      6  C   UNL     1      -1.034   3.906  24.807  0.00  0.00    +0.000 C 
ATOM      7  C   UNL     1      -1.658   3.444  24.529  0.00  0.00    +0.001 C 
ENDBRANCH   1   2
ENDBRANCH   8   1
TORSDOF 4
ENDMDL
MODEL 2
REMARK VINA RESULT:     -12.1      1.935      5.184
REMARK  Name = 
REMARK  4 active torsions:
REMARK  status: ('A' for Active; 'I' for Inactive)
REMARK    1  A    between atoms: C_1  and  C_2
REMARK    2  A    between atoms: C_1  and  N_8
REMARK    3  A    between atoms: C_13  and  C_14
REMARK    4  A    between atoms: C_16  and  C_19
REMARK                            x       y       z     vdW  Elec       q    Type
REMARK                         _______ _______ _______ _____ _____    ______ ____
ROOT
ATOM      8  N   UNL     1      -2.174  -0.190  24.333  0.00  0.00    -0.261 NA
ATOM      9  C   UNL     1      -1.579  -0.755  24.424  0.00  0.00    +0.120 C 
ATOM     10  C   UNL     1      -0.797  -0.564  24.245  0.00  0.00    +0.090 A 
ATOM     11  C   UNL     1      -0.609   0.192  23.975  0.00  0.00    +0.077 A 
ATOM     12  C   UNL     1      -1.203   0.758  23.885  0.00  0.00    +0.073 C 
ATOM     13  C   UNL     1      -1.985   0.567  24.063  0.00  0.00    +0.144 C 
ATOM     28  N   UNL     1       0.206   0.221  23.844  0.00  0.00    -0.227 NA
ATOM     29  C   UNL     1       0.520  -0.518  24.032  0.00  0.00    +0.198 A 
ATOM     30  N   UNL     1      -0.100  -1.004  24.280  0.00  0.00    -0.226 NA
ENDROOT
BRANCH  13  14
ATOM     14  C   UNL     1      -2.579   1.132  23.973  0.00  0.00    +0.251 A 
ATOM     15  N   UNL     1      -2.909   1.589  24.575  0.00  0.00    -0.190 NA
ATOM     16  C   UNL     1      -3.482   2.079  24.240  0.00  0.00    +0.203 A 
ATOM     17  N   UNL     1      -3.507   1.924  23.430  0.00  0.00    -0.056 NA
ATOM     18  O   UNL     1      -2.949   1.338  23.265  0.00  0.00    -0.336 OA
BRANCH  16  19
ATOM     19  C   UNL     1      -3.947   2.627  24.643  0.00  0.00    +0.042 A 
ATOM     20  C   UNL     1      -4.736   2.454  24.811  0.00  0.00    +0.043 A 
ATOM     21  C   UNL     1      -5.202   3.002  25.215  0.00  0.00    +0.177 A 
ATOM     22  C   UNL     1      -4.879   3.724  25.451  0.00  0.00    +0.176 A 
ATOM     23  O   UNL     1      -5.468   4.152  25.837  0.00  0.00    -0.435 OA
ATOM     24  C   UNL     1      -6.155   3.696  25.840  0.00  0.00    +0.429 C 
ATOM     25  O   UNL     1      -5.990   2.986  25.455  0.00  0.00    -0.435 OA
ATOM     26  C   UNL     1      -4.089   3.897  25.283  0.00  0.00    +0.040 A 
ATOM     27  C   UNL     1      -3.624   3.348  24.879  0.00  0.00    +0.006 A 
ENDBRANCH  16  19
ENDBRANCH  13  14
BRANCH   8   1
ATOM      1  C   UNL     1      -2.956  -0.382  24.512  0.00  0.00    +0.073 C 
BRANCH   1   2
ATOM      2  C   UNL     1      -3.163  -1.163  24.673  0.00  0.00    +0.016 C 
ATOM      3  C   UNL     1      -3.402  -1.662  24.060  0.00  0.00    +0.001 C 
ATOM      4  C   UNL     1      -3.610  -2.444  24.223  0.00  0.00    +0.000 C 
ATOM      5  C   UNL     1      -3.577  -2.728  24.996  0.00  0.00    +0.000 C 
ATOM      6  C   UNL     1      -3.337  -2.229  25.609  0.00  0.00    +0.000 C 
ATOM      7  C   UNL     1      -3.130  -1.448  25.446  0.00  0.00    +0.001 C 
ENDBRANCH   1   2
ENDBRANCH   8   1
TORSDOF 4
ENDMDL
MODEL 3
REMARK VINA RESULT:     -11.1      0.844      2.469
REMARK  Name = 
REMARK  4 active torsions:
REMARK  status: ('A' for Active; 'I' for Inactive)
REMARK    1  A    between atoms: C_1  and  C_2
REMARK    2  A    between atoms: C_1  and  N_8
REMARK    3  A    between atoms: C_13  and  C_14
REMARK    4  A    between atoms: C_16  and  C_19
REMARK                            x       y       z     vdW  Elec       q    Type
REMARK                         _______ _______ _______ _____ _____    ______ ____
ROOT
ATOM      8  N   UNL     1      -3.121   2.702  24.640  0.00  0.00    -0.261 NA
ATOM      9  C   UNL     1      -2.871   3.405  24.992  0.00  0.00    +0.120 C 
ATOM     10  C   UNL     1      -2.068   3.538  25.124  0.00  0.00    +0.090 A 
ATOM     11  C   UNL     1      -1.514   2.969  24.904  0.00  0.00    +0.077 A 
ATOM     12  C   UNL     1      -1.762   2.265  24.552  0.00  0.00    +0.073 C 
ATOM     13  C   UNL     1      -2.565   2.132  24.420  0.00  0.00    +0.144 C 
ATOM     28  N   UNL     1      -0.764   3.252  25.103  0.00  0.00    -0.227 NA
ATOM     29  C   UNL     1      -0.856   3.997  25.445  0.00  0.00    +0.198 A 
ATOM     30  N   UNL     1      -1.662   4.174  25.459  0.00  0.00    -0.226 NA
ENDROOT
BRANCH  13  14
ATOM     14  C   UNL     1      -2.815   1.429  24.067  0.00  0.00    +0.251 A 
ATOM     15  N   UNL     1      -2.948   0.712  24.455  0.00  0.00    -0.190 NA
ATOM     16  C   UNL     1      -3.190   0.159  23.894  0.00  0.00    +0.203 A 
ATOM     17  N   UNL     1      -3.207   0.532  23.158  0.00  0.00    -0.056 NA
ATOM     18  O   UNL     1      -2.975   1.317  23.266  0.00  0.00    -0.336 OA
BRANCH  16  19
ATOM     19  C   UNL     1      -3.382  -0.629  24.041  0.00  0.00    +0.042 A 
ATOM     20  C   UNL     1      -2.829  -1.130  24.393  0.00  0.00    +0.043 A 
ATOM     21  C   UNL     1      -3.020  -1.918  24.541  0.00  0.00    +0.177 A 
ATOM     22  C   UNL     1      -3.766  -2.207  24.337  0.00  0.00    +0.176 A 
ATOM     23  O   UNL     1      -3.798  -3.003  24.548  0.00  0.00    -0.435 OA
ATOM     24  C   UNL     1      -3.072  -3.208  24.882  0.00  0.00    +0.429 C 
ATOM     25  O   UNL     1      -2.592  -2.537  24.877  0.00  0.00    -0.435 OA
ATOM     26  C   UNL     1      -4.320  -1.706  23.985  0.00  0.00    +0.040 A 
ATOM     27  C   UNL     1      -4.128  -0.917  23.838  0.00  0.00    +0.006 A 
ENDBRANCH  16  19
ENDBRANCH  13  14
BRANCH   8   1
ATOM      1  C   UNL     1      -3.924   2.568  24.507  0.00  0.00    +0.073 C 
BRANCH   1   2
ATOM      2  C   UNL     1      -4.488   2.993  24.933  0.00  0.00    +0.016 C 
ATOM      3  C   UNL     1      -4.708   3.749  24.687  0.00  0.00    +0.001 C 
ATOM      4  C   UNL     1      -5.273   4.173  25.114  0.00  0.00    +0.000 C 
ATOM      5  C   UNL     1      -5.617   3.842  25.786  0.00  0.00    +0.000 C 
ATOM      6  C   UNL     1      -5.397   3.085  26.032  0.00  0.00    +0.000 C 
ATOM      7  C   UNL     1      -4.833   2.662  25.605  0.00  0.00    +0.001 C 
ENDBRANCH   1   2
ENDBRANCH   8   1
TORSDOF 4
ENDMDL
MODEL 4
REMARK VINA RESULT:     -10.9      2.057      4.141
REMARK  Name = 
REMARK  4 active torsions:
REMARK  status: ('A' for Active; 'I' for Inactive)
REMARK    1  A    between atoms: C_1  and  C_2
REMARK    2  A    between atoms: C_1  and  N_8
REMARK    3  A    between atoms: C_13  and  C_14
REMARK    4  A    between atoms: C_16  and  C_19
REMARK                            x       y       z     vdW  Elec       q    Type
REMARK                         _______ _______ _______ _____ _____    ______ ____
ROOT
ATOM      8  N   UNL     1      -3.980   0.744  24.415  0.00  0.00    -0.261 NA
ATOM      9  C   UNL     1      -4.694   0.593  24.799  0.00  0.00    +0.120 C 
ATOM     10  C   UNL     1      -5.112   1.210  25.151  0.00  0.00    +0.090 A 
ATOM     11  C   UNL     1      -4.817   1.979  25.120  0.00  0.00    +0.077 A 
ATOM     12  C   UNL     1      -4.103   2.132  24.736  0.00  0.00    +0.073 C 
ATOM     13  C   UNL     1      -3.684   1.515  24.384  0.00  0.00    +0.144 C 
ATOM     28  N   UNL     1      -5.348   2.473  25.515  0.00  0.00    -0.227 NA
ATOM     29  C   UNL     1      -5.971   2.008  25.790  0.00  0.00    +0.198 A 
ATOM     30  N   UNL     1      -5.826   1.227  25.565  0.00  0.00    -0.226 NA
ENDROOT
BRANCH  13  14
ATOM     14  C   UNL     1      -2.970   1.666  24.000  0.00  0.00    +0.251 A 
ATOM     15  N   UNL     1      -2.216   1.540  24.310  0.00  0.00    -0.190 NA
ATOM     16  C   UNL     1      -1.664   1.766  23.741  0.00  0.00    +0.203 A 
ATOM     17  N   UNL     1      -2.076   2.032  23.078  0.00  0.00    -0.056 NA
ATOM     18  O   UNL     1      -2.883   1.970  23.238  0.00  0.00    -0.336 OA
BRANCH  16  19
ATOM     19  C   UNL     1      -0.844   1.733  23.821  0.00  0.00    +0.042 A 
ATOM     20  C   UNL     1      -0.421   1.115  23.476  0.00  0.00    +0.043 A 
ATOM     21  C   UNL     1       0.400   1.081  23.555  0.00  0.00    +0.177 A 
ATOM     22  C   UNL     1       0.797   1.666  23.981  0.00  0.00    +0.176 A 
ATOM     23  O   UNL     1       1.602   1.489  23.967  0.00  0.00    -0.435 OA
ATOM     24  C   UNL     1       1.703   0.795  23.532  0.00  0.00    +0.429 C 
ATOM     25  O   UNL     1       0.960   0.544  23.278  0.00  0.00    -0.435 OA
ATOM     26  C   UNL     1       0.374   2.284  24.327  0.00  0.00    +0.040 A 
ATOM     27  C   UNL     1      -0.447   2.317  24.247  0.00  0.00    +0.006 A 
ENDBRANCH  16  19
ENDBRANCH  13  14
BRANCH   8   1
ATOM      1  C   UNL     1      -3.561   0.127  24.063  0.00  0.00    +0.073 C 
BRANCH   1   2
ATOM      2  C   UNL     1      -3.717  -0.653  24.279  0.00  0.00    +0.016 C 
ATOM      3  C   UNL     1      -4.176  -1.133  23.789  0.00  0.00    +0.001 C 
ATOM      4  C   UNL     1      -4.332  -1.914  24.006  0.00  0.00    +0.000 C 
ATOM      5  C   UNL     1      -4.030  -2.215  24.711  0.00  0.00    +0.000 C 
ATOM      6  C   UNL     1      -3.571  -1.735  25.202  0.00  0.00    +0.000 C 
ATOM      7  C   UNL     1      -3.415  -0.954  24.985  0.00  0.00    +0.001 C 
ENDBRANCH   1   2
ENDBRANCH   8   1
TORSDOF 4
ENDMDL
MODEL 5
REMARK VINA RESULT:     -10.8      1.911      4.364
REMARK  Name = 
REMARK  4 active torsions:
REMARK  status: ('A' for Active; 'I' for Inactive)
REMARK    1  A    between atoms: C_1  and  C_2
REMARK    2  A    between atoms: C_1  and  N_8
REMARK    3  A    between atoms: C_13  and  C_14
REMARK    4  A    between atoms: C_16  and  C_19
REMARK                            x       y       z     vdW  Elec       q    Type
REMARK                         _______ _______ _______ _____ _____    ______ ____
ROOT
ATOM      8  N   UNL     1      -1.575   0.373  24.626  0.00  0.00    -0.261 NA
ATOM      9  C   UNL     1      -0.911  -0.086  24.797  0.00  0.00    +0.120 C 
ATOM     10  C   UNL     1      -0.989  -0.898  24.912  0.00  0.00    +0.090 A 
ATOM     11  C   UNL     1      -1.732  -1.253  24.856  0.00  0.00    +0.077 A 
ATOM     12  C   UNL     1      -2.397  -0.795  24.685  0.00  0.00    +0.073 C 
ATOM     13  C   UNL     1      -2.318   0.018  24.570  0.00  0.00    +0.144 C 
ATOM     28  N   UNL     1      -1.639  -2.062  24.996  0.00  0.00    -0.227 NA
ATOM     29  C   UNL     1      -0.840  -2.206  25.138  0.00  0.00    +0.198 A 
ATOM     30  N   UNL     1      -0.438  -1.487  25.086  0.00  0.00    -0.226 NA
ENDROOT
BRANCH  13  14
ATOM     14  C   UNL     1      -2.982   0.476  24.400  0.00  0.00    +0.251 A 
ATOM     15  N   UNL     1      -3.417   0.922  24.942  0.00  0.00    -0.190 NA
ATOM     16  C   UNL     1      -4.032   1.291  24.535  0.00  0.00    +0.203 A 
ATOM     17  N   UNL     1      -3.978   1.075  23.741  0.00  0.00    -0.056 NA
ATOM     18  O   UNL     1      -3.329   0.571  23.658  0.00  0.00    -0.336 OA
BRANCH  16  19
ATOM     19  C   UNL     1      -4.600   1.789  24.864  0.00  0.00    +0.042 A 
ATOM     20  C   UNL     1      -4.465   2.602  24.901  0.00  0.00    +0.043 A 
ATOM     21  C   UNL     1      -5.034   3.101  25.231  0.00  0.00    +0.177 A 
ATOM     22  C   UNL     1      -5.738   2.786  25.523  0.00  0.00    +0.176 A 
ATOM     23  O   UNL     1      -6.194   3.408  25.814  0.00  0.00    -0.435 OA
ATOM     24  C   UNL     1      -5.772   4.108  25.702  0.00  0.00    +0.429 C 
ATOM     25  O   UNL     1      -5.055   3.917  25.341  0.00  0.00    -0.435 OA
ATOM     26  C   UNL     1      -5.874   1.972  25.486  0.00  0.00    +0.040 A 
ATOM     27  C   UNL     1      -5.304   1.475  25.157  0.00  0.00    +0.006 A 
ENDBRANCH  16  19
ENDBRANCH  13  14
BRANCH   8   1
ATOM      1  C   UNL     1      -1.497   1.186  24.511  0.00  0.00    +0.073 C 
BRANCH   1   2
ATOM      2  C   UNL     1      -0.841   1.584  24.813  0.00  0.00    +0.016 C 
ATOM      3  C   UNL     1      -0.827   1.816  25.605  0.00  0.00    +0.001 C 
ATOM      4  C   UNL     1      -0.169   2.214  25.906  0.00  0.00    +0.000 C 
ATOM      5  C   UNL     1       0.472   2.381  25.416  0.00  0.00    +0.000 C 
ATOM      6  C   UNL     1       0.458   2.149  24.624  0.00  0.00    +0.000 C 
ATOM      7  C   UNL     1      -0.198   1.751  24.323  0.00  0.00    +0.001 C 
ENDBRANCH   1   2
ENDBRANCH   8   1
TORSDOF 4
ENDMDL
MODEL 6
REMARK VINA RESULT:      -9.6     17.017     19.283
REMARK  Name = 
REMARK  4 active torsions:
REMARK  status: ('A' for Active; 'I' for Inactive)
REMARK    1  A    between atoms: C_1  and  C_2
REMARK    2  A    between atoms: C_1  and  N_8
REMARK    3  A    between atoms: C_13  and  C_14
REMARK    4  A    between atoms: C_16  and  C_19
REMARK                            x       y       z     vdW  Elec       q    Type
REMARK                         _______ _______ _______ _____ _____    ______ ____
ROOT
ATOM      8  N   UNL     1      12.264   8.433  19.028  0.00  0.00    -0.261 NA
ATOM      9  C   UNL     1      11.481   8.441  18.766  0.00  0.00    +0.120 C 
ATOM     10  C   UNL     1      11.317   8.457  17.958  0.00  0.00    +0.090 A 
ATOM     11  C   UNL     1      11.934   8.465  17.412  0.00  0.00    +0.077 A 
ATOM     12  C   UNL     1      12.717   8.457  17.673  0.00  0.00    +0.073 C 
ATOM     13  C   UNL     1      12.882   8.441  18.481  0.00  0.00    +0.144 C 
ATOM     28  N   UNL     1      11.605   8.480  16.655  0.00  0.00    -0.227 NA
ATOM     29  C   UNL     1      10.784   8.482  16.734  0.00  0.00    +0.198 A 
ATOM     30  N   UNL     1      10.606   8.467  17.540  0.00  0.00    -0.226 NA
ENDROOT
BRANCH  13  14
ATOM     14  C   UNL     1      13.664   8.433  18.743  0.00  0.00    +0.251 A 
ATOM     15  N   UNL     1      14.132   7.762  18.853  0.00  0.00    -0.190 NA
ATOM     16  C   UNL     1      14.873   8.008  19.119  0.00  0.00    +0.203 A 
ATOM     17  N   UNL     1      14.864   8.831  19.174  0.00  0.00    -0.056 NA
ATOM     18  O   UNL     1      14.116   9.093  18.941  0.00  0.00    -0.336 OA
BRANCH  16  19
ATOM     19  C   UNL     1      15.510   7.517  19.299  0.00  0.00    +0.042 A 
ATOM     20  C   UNL     1      15.698   6.886  18.803  0.00  0.00    +0.043 A 
ATOM     21  C   UNL     1      16.336   6.394  18.983  0.00  0.00    +0.177 A 
ATOM     22  C   UNL     1      16.787   6.536  19.659  0.00  0.00    +0.176 A 
ATOM     23  O   UNL     1      17.379   5.963  19.695  0.00  0.00    -0.435 OA
ATOM     24  C   UNL     1      17.295   5.468  19.041  0.00  0.00    +0.429 C 
ATOM     25  O   UNL     1      16.650   5.735  18.601  0.00  0.00    -0.435 OA
ATOM     26  C   UNL     1      16.600   7.168  20.156  0.00  0.00    +0.040 A 
ATOM     27  C   UNL     1      15.961   7.659  19.975  0.00  0.00    +0.006 A 
ENDBRANCH  16  19
ENDBRANCH  13  14
BRANCH   8   1
ATOM      1  C   UNL     1      12.428   8.417  19.836  0.00  0.00    +0.073 C 
BRANCH   1   2
ATOM      2  C   UNL     1      11.812   8.368  20.382  0.00  0.00    +0.016 C 
ATOM      3  C   UNL     1      11.487   9.057  20.700  0.00  0.00    +0.001 C 
ATOM      4  C   UNL     1      10.870   9.006  21.247  0.00  0.00    +0.000 C 
ATOM      5  C   UNL     1      10.579   8.270  21.474  0.00  0.00    +0.000 C 
ATOM      6  C   UNL     1      10.904   7.581  21.155  0.00  0.00    +0.000 C 
ATOM      7  C   UNL     1      11.520   7.631  20.610  0.00  0.00    +0.001 C 
ENDBRANCH   1   2
ENDBRANCH   8   1
TORSDOF 4
ENDMDL
MODEL 7
REMARK VINA RESULT:      -8.4     16.639     18.917
REMARK  Name = 
REMARK  4 active torsions:
REMARK  status: ('A' for Active; 'I' for Inactive)
REMARK    1  A    between atoms: C_1  and  C_2
REMARK    2  A    between atoms: C_1  and  N_8
REMARK    3  A    between atoms: C_13  and  C_14
REMARK    4  A    between atoms: C_16  and  C_19
REMARK                            x       y       z     vdW  Elec       q    Type
REMARK                         _______ _______ _______ _____ _____    ______ ____
ROOT
ATOM      8  N   UNL     1      12.276   8.082  20.224  0.00  0.00    -0.261 NA
ATOM      9  C   UNL     1      11.454   8.066  20.286  0.00  0.00    +0.120 C 
ATOM     10  C   UNL     1      11.096   7.806  20.982  0.00  0.00    +0.090 A 
ATOM     11  C   UNL     1      11.561   7.562  21.618  0.00  0.00    +0.077 A 
ATOM     12  C   UNL     1      12.384   7.578  21.558  0.00  0.00    +0.073 C 
ATOM     13  C   UNL     1      12.741   7.838  20.861  0.00  0.00    +0.144 C 
ATOM     28  N   UNL     1      11.057   7.335  22.231  0.00  0.00    -0.227 NA
ATOM     29  C   UNL     1      10.280   7.439  21.973  0.00  0.00    +0.198 A 
ATOM     30  N   UNL     1      10.304   7.731  21.201  0.00  0.00    -0.226 NA
ENDROOT
BRANCH  13  14
ATOM     14  C   UNL     1      13.564   7.853  20.800  0.00  0.00    +0.251 A 
ATOM     15  N   UNL     1      14.044   7.228  20.556  0.00  0.00    -0.190 NA
ATOM     16  C   UNL     1      14.828   7.484  20.577  0.00  0.00    +0.203 A 
ATOM     17  N   UNL     1      14.833   8.269  20.834  0.00  0.00    -0.056 NA
ATOM     18  O   UNL     1      14.051   8.496  20.972  0.00  0.00    -0.336 OA
BRANCH  16  19
ATOM     19  C   UNL     1      15.490   7.036  20.376  0.00  0.00    +0.042 A 
ATOM     20  C   UNL     1      15.580   6.755  19.607  0.00  0.00    +0.043 A 
ATOM     21  C   UNL     1      16.242   6.306  19.405  0.00  0.00    +0.177 A 
ATOM     22  C   UNL     1      16.815   6.139  19.975  0.00  0.00    +0.176 A 
ATOM     23  O   UNL     1      17.405   5.687  19.619  0.00  0.00    -0.435 OA
ATOM     24  C   UNL     1      17.198   5.574  18.828  0.00  0.00    +0.429 C 
ATOM     25  O   UNL     1      16.479   5.957  18.697  0.00  0.00    -0.435 OA
ATOM     26  C   UNL     1      16.725   6.420  20.746  0.00  0.00    +0.040 A 
ATOM     27  C   UNL     1      16.063   6.869  20.946  0.00  0.00    +0.006 A 
ENDBRANCH  16  19
ENDBRANCH  13  14
BRANCH   8   1
ATOM      1  C   UNL     1      12.633   8.342  19.528  0.00  0.00    +0.073 C 
BRANCH   1   2
ATOM      2  C   UNL     1      12.203   8.358  18.825  0.00  0.00    +0.016 C 
ATOM      3  C   UNL     1      11.754   9.023  18.631  0.00  0.00    +0.001 C 
ATOM      4  C   UNL     1      11.323   9.038  17.927  0.00  0.00    +0.000 C 
ATOM      5  C   UNL     1      11.342   8.391  17.418  0.00  0.00    +0.000 C 
ATOM      6  C   UNL     1      11.792   7.726  17.611  0.00  0.00    +0.000 C 
ATOM      7  C   UNL     1      12.222   7.711  18.315  0.00  0.00    +0.001 C 
ENDBRANCH   1   2
ENDBRANCH   8   1
TORSDOF 4
ENDMDL
MODEL 8
REMARK VINA RESULT:      -8.3     18.236     20.017
REMARK  Name = 
REMARK  4 active torsions:
REMARK  status: ('A' for Active; 'I' for Inactive)
REMARK    1  A    between atoms: C_1  and  C_2
REMARK    2  A    between atoms: C_1  and  N_8
REMARK    3  A    between atoms: C_13  and  C_14
REMARK    4  A    between atoms: C_16  and  C_19
REMARK                            x       y       z     vdW  Elec       q    Type
REMARK                         _______ _______ _______ _____ _____    ______ ____
ROOT
ATOM      8  N   UNL     1      15.176   7.827  19.643  0.00  0.00    -0.261 NA
ATOM      9  C   UNL     1      15.707   7.370  20.079  0.00  0.00    +0.120 C 
ATOM     10  C   UNL     1      16.098   6.738  19.722  0.00  0.00    +0.090 A 
ATOM     11  C   UNL     1      15.958   6.561  18.929  0.00  0.00    +0.077 A 
ATOM     12  C   UNL     1      15.427   7.017  18.492  0.00  0.00    +0.073 C 
ATOM     13  C   UNL     1      15.036   7.649  18.849  0.00  0.00    +0.144 C 
ATOM     28  N   UNL     1      16.421   5.908  18.728  0.00  0.00    -0.227 NA
ATOM     29  C   UNL     1      16.847   5.681  19.397  0.00  0.00    +0.198 A 
ATOM     30  N   UNL     1      16.647   6.195  20.012  0.00  0.00    -0.226 NA
ENDROOT
BRANCH  13  14
ATOM     14  C   UNL     1      14.505   8.106  18.412  0.00  0.00    +0.251 A 
ATOM     15  N   UNL     1      13.720   7.911  18.247  0.00  0.00    -0.190 NA
ATOM     16  C   UNL     1      13.395   8.520  17.797  0.00  0.00    +0.203 A 
ATOM     17  N   UNL     1      13.978   9.093  17.685  0.00  0.00    -0.056 NA
ATOM     18  O   UNL     1      14.664   8.836  18.065  0.00  0.00    -0.336 OA
BRANCH  16  19
ATOM     19  C   UNL     1      12.622   8.553  17.511  0.00  0.00    +0.042 A 
ATOM     20  C   UNL     1      12.482   8.762  16.726  0.00  0.00    +0.043 A 
ATOM     21  C   UNL     1      11.709   8.794  16.439  0.00  0.00    +0.177 A 
ATOM     22  C   UNL     1      11.076   8.617  16.938  0.00  0.00    +0.176 A 
ATOM     23  O   UNL     1      10.379   8.694  16.504  0.00  0.00    -0.435 OA
ATOM     24  C   UNL     1      10.581   8.920  15.737  0.00  0.00    +0.429 C 
ATOM     25  O   UNL     1      11.402   8.981  15.697  0.00  0.00    -0.435 OA
ATOM     26  C   UNL     1      11.217   8.407  17.724  0.00  0.00    +0.040 A 
ATOM     27  C   UNL     1      11.990   8.375  18.010  0.00  0.00    +0.006 A 
ENDBRANCH  16  19
ENDBRANCH  13  14
BRANCH   8   1
ATOM      1  C   UNL     1      14.785   8.459  20.000  0.00  0.00    +0.073 C 
BRANCH   1   2
ATOM      2  C   UNL     1      14.798   8.542  20.820  0.00  0.00    +0.016 C 
ATOM      3  C   UNL     1      14.232   8.159  21.283  0.00  0.00    +0.001 C 
ATOM      4  C   UNL     1      14.246   8.243  22.104  0.00  0.00    +0.000 C 
ATOM      5  C   UNL     1      14.824   8.709  22.461  0.00  0.00    +0.000 C 
ATOM      6  C   UNL     1      15.390   9.092  21.999  0.00  0.00    +0.000 C 
ATOM      7  C   UNL     1      15.376   9.009  21.178  0.00  0.00    +0.001 C 
ENDBRANCH   1   2
ENDBRANCH   8   1
TORSDOF 4
ENDMDL
