MODEL 1
REMARK VINA RESULT:     -11.8      0.000      0.000
REMARK  Name = 
REMARK  5 active torsions:
REMARK  status: ('A' for Active; 'I' for Inactive)
REMARK    1  A    between atoms: O_2  and  C_3
REMARK    2  A    between atoms: C_10  and  C_15
REMARK    3  A    between atoms: C_15  and  C_17
REMARK    4  A    between atoms: N_19  and  C_20
REMARK    5  A    between atoms: C_20  and  C_21
REMARK                            x       y       z     vdW  Elec       q    Type
REMARK                         _______ _______ _______ _____ _____    ______ ____
ROOT
ATOM      3  C   UNL     1      -2.436  -1.708  24.895  0.00  0.00    +0.134 A 
ATOM      4  C   UNL     1      -2.977  -2.162  24.468  0.00  0.00    +0.032 A 
ATOM      5  C   UNL     1      -3.687  -1.827  24.215  0.00  0.00    -0.023 A 
ATOM      6  C   UNL     1      -4.228  -2.281  23.788  0.00  0.00    +0.031 C 
ATOM      7  C   UNL     1      -3.858  -1.040  24.389  0.00  0.00    -0.030 A 
ATOM      8  C   UNL     1      -4.568  -0.705  24.136  0.00  0.00    +0.026 C 
ATOM      9  C   UNL     1      -4.739   0.082  24.310  0.00  0.00    +0.005 C 
ATOM     10  C   UNL     1      -4.198   0.536  24.738  0.00  0.00    +0.013 C 
ATOM     11  C   UNL     1      -3.488   0.203  24.991  0.00  0.00    +0.026 C 
ATOM     12  C   UNL     1      -3.317  -0.586  24.816  0.00  0.00    -0.027 A 
ATOM     13  C   UNL     1      -2.607  -0.919  25.070  0.00  0.00    +0.008 A 
ATOM     14  C   UNL     1      -2.067  -0.466  25.496  0.00  0.00    +0.034 C 
ENDROOT
BRANCH   3   2
ATOM      1  C   UNL     1      -1.297  -2.533  24.641  0.00  0.00    +0.252 C 
ATOM      2  O   UNL     1      -1.726  -2.042  25.148  0.00  0.00    -0.472 OA
ENDBRANCH   3   2
BRANCH  10  15
ATOM     15  C   UNL     1      -4.368   1.325  24.912  0.00  0.00    +0.079 C 
ATOM     16  C   UNL     1      -4.920   1.508  25.496  0.00  0.00    +0.010 C 
BRANCH  15  17
ATOM     17  C   UNL     1      -3.984   1.929  24.502  0.00  0.00    +0.241 C 
ATOM     18  O   UNL     1      -4.121   2.032  23.695  0.00  0.00    -0.273 OA
ATOM     19  N   UNL     1      -3.463   2.432  24.900  0.00  0.00    -0.200 NA
BRANCH  19  20
ATOM     20  C   UNL     1      -3.080   3.036  24.489  0.00  0.00    +0.148 C 
BRANCH  20  21
ATOM     21  C   UNL     1      -2.501   3.486  24.867  0.00  0.00    +0.029 A 
ATOM     22  C   UNL     1      -1.719   3.257  24.999  0.00  0.00    +0.004 A 
ATOM     23  C   UNL     1      -1.336   3.873  25.392  0.00  0.00    +0.007 A 
ATOM     24  C   UNL     1      -1.880   4.483  25.502  0.00  0.00    +0.035 A 
ATOM     25  S   UNL     1      -2.600   4.244  25.177  0.00  0.00    -0.089 S 
ENDBRANCH  20  21
ENDBRANCH  19  20
ENDBRANCH  15  17
ENDBRANCH  10  15
TORSDOF 5
ENDMDL
MODEL 2
REMARK VINA RESULT:     -11.2      1.949      5.000
REMARK  Name = 
REMARK  5 active torsions:
REMARK  status: ('A' for Active; 'I' for Inactive)
REMARK    1  A    between atoms: O_2  and  C_3
REMARK    2  A    between atoms: C_10  and  C_15
REMARK    3  A    between atoms: C_15  and  C_17
REMARK    4  A    between atoms: N_19  and  C_20
REMARK    5  A    between atoms: C_20  and  C_21
REMARK                            x       y       z     vdW  Elec       q    Type
REMARK                         _______ _______ _______ _____ _____    ______ ____
ROOT
ATOM      3  C   UNL     1      -4.244   3.247  25.104  0.00  0.00    +0.134 A 
ATOM      4  C   UNL     1      -3.819   3.822  25.516  0.00  0.00    +0.032 A 
ATOM      5  C   UNL     1      -3.007   3.728  25.634  0.00  0.00    -0.023 A 
ATOM      6  C   UNL     1      -2.582   4.303  26.046  0.00  0.00    +0.031 C 
ATOM      7  C   UNL     1      -2.621   3.062  25.341  0.00  0.00    -0.030 A 
ATOM      8  C   UNL     1      -1.810   2.968  25.459  0.00  0.00    +0.026 C 
ATOM      9  C   UNL     1      -1.424   2.301  25.165  0.00  0.00    +0.005 C 
ATOM     10  C   UNL     1      -1.849   1.727  24.754  0.00  0.00    +0.013 C 
ATOM     11  C   UNL     1      -2.660   1.819  24.635  0.00  0.00    +0.026 C 
ATOM     12  C   UNL     1      -3.047   2.487  24.929  0.00  0.00    -0.027 A 
ATOM     13  C   UNL     1      -3.858   2.579  24.810  0.00  0.00    +0.008 A 
ATOM     14  C   UNL     1      -4.282   2.005  24.399  0.00  0.00    +0.034 C 
ENDROOT
BRANCH   3   2
ATOM      1  C   UNL     1      -5.513   3.729  25.552  0.00  0.00    +0.252 C 
ATOM      2  O   UNL     1      -5.055   3.339  24.986  0.00  0.00    -0.472 OA
ENDBRANCH   3   2
BRANCH  10  15
ATOM     15  C   UNL     1      -1.464   1.059  24.460  0.00  0.00    +0.079 C 
ATOM     16  C   UNL     1      -1.106   1.082  23.718  0.00  0.00    +0.010 C 
BRANCH  15  17
ATOM     17  C   UNL     1      -1.437   0.367  24.910  0.00  0.00    +0.241 C 
ATOM     18  O   UNL     1      -0.943   0.323  25.569  0.00  0.00    -0.273 OA
ATOM     19  N   UNL     1      -1.905  -0.280  24.700  0.00  0.00    -0.200 NA
BRANCH  19  20
ATOM     20  C   UNL     1      -1.877  -0.971  25.150  0.00  0.00    +0.148 C 
BRANCH  20  21
ATOM     21  C   UNL     1      -2.401  -1.587  24.989  0.00  0.00    +0.029 A 
ATOM     22  C   UNL     1      -3.182  -1.641  25.250  0.00  0.00    +0.004 A 
ATOM     23  C   UNL     1      -3.500  -2.345  24.961  0.00  0.00    +0.007 A 
ATOM     24  C   UNL     1      -2.916  -2.727  24.522  0.00  0.00    +0.035 A 
ATOM     25  S   UNL     1      -2.237  -2.259  24.538  0.00  0.00    -0.089 S 
ENDBRANCH  20  21
ENDBRANCH  19  20
ENDBRANCH  15  17
ENDBRANCH  10  15
TORSDOF 5
ENDMDL
MODEL 3
REMARK VINA RESULT:     -11.2      1.956      4.564
REMARK  Name = 
REMARK  5 active torsions:
REMARK  status: ('A' for Active; 'I' for Inactive)
REMARK    1  A    between atoms: O_2  and  C_3
REMARK    2  A    between atoms: C_10  and  C_15
REMARK    3  A    between atoms: C_15  and  C_17
REMARK    4  A    between atoms: N_19  and  C_20
REMARK    5  A    between atoms: C_20  and  C_21
REMARK                            x       y       z     vdW  Elec       q    Type
REMARK                         _______ _______ _______ _____ _____    ______ ____
ROOT
ATOM      3  C   UNL     1      -0.610   2.679  25.652  0.00  0.00    +0.134 A 
ATOM      4  C   UNL     1      -0.952   3.412  25.817  0.00  0.00    +0.032 A 
ATOM      5  C   UNL     1      -1.710   3.584  25.540  0.00  0.00    -0.023 A 
ATOM      6  C   UNL     1      -2.052   4.316  25.705  0.00  0.00    +0.031 C 
ATOM      7  C   UNL     1      -2.125   3.025  25.099  0.00  0.00    -0.030 A 
ATOM      8  C   UNL     1      -2.883   3.197  24.822  0.00  0.00    +0.026 C 
ATOM      9  C   UNL     1      -3.299   2.638  24.381  0.00  0.00    +0.005 C 
ATOM     10  C   UNL     1      -2.956   1.906  24.216  0.00  0.00    +0.013 C 
ATOM     11  C   UNL     1      -2.199   1.732  24.492  0.00  0.00    +0.026 C 
ATOM     12  C   UNL     1      -1.783   2.293  24.934  0.00  0.00    -0.027 A 
ATOM     13  C   UNL     1      -1.025   2.119  25.211  0.00  0.00    +0.008 A 
ATOM     14  C   UNL     1      -0.684   1.388  25.046  0.00  0.00    +0.034 C 
ENDROOT
BRANCH   3   2
ATOM      1  C   UNL     1       0.335   2.628  26.724  0.00  0.00    +0.252 C 
ATOM      2  O   UNL     1       0.148   2.506  25.929  0.00  0.00    -0.472 OA
ENDBRANCH   3   2
BRANCH  10  15
ATOM     15  C   UNL     1      -3.371   1.346  23.775  0.00  0.00    +0.079 C 
ATOM     16  C   UNL     1      -3.303   1.335  22.954  0.00  0.00    +0.010 C 
BRANCH  15  17
ATOM     17  C   UNL     1      -3.856   0.797  24.156  0.00  0.00    +0.241 C 
ATOM     18  O   UNL     1      -4.535   1.050  24.550  0.00  0.00    -0.273 OA
ATOM     19  N   UNL     1      -3.660  -0.005  24.144  0.00  0.00    -0.200 NA
BRANCH  19  20
ATOM     20  C   UNL     1      -4.144  -0.553  24.525  0.00  0.00    +0.148 C 
BRANCH  20  21
ATOM     21  C   UNL     1      -3.931  -1.350  24.539  0.00  0.00    +0.029 A 
ATOM     22  C   UNL     1      -4.091  -1.904  23.948  0.00  0.00    +0.004 A 
ATOM     23  C   UNL     1      -3.780  -2.629  24.189  0.00  0.00    +0.007 A 
ATOM     24  C   UNL     1      -3.430  -2.524  24.928  0.00  0.00    +0.035 A 
ATOM     25  S   UNL     1      -3.523  -1.734  25.144  0.00  0.00    -0.089 S 
ENDBRANCH  20  21
ENDBRANCH  19  20
ENDBRANCH  15  17
ENDBRANCH  10  15
TORSDOF 5
ENDMDL
MODEL 4
REMARK VINA RESULT:     -11.2      2.326      4.315
REMARK  Name = 
REMARK  5 active torsions:
REMARK  status: ('A' for Active; 'I' for Inactive)
REMARK    1  A    between atoms: O_2  and  C_3
REMARK    2  A    between atoms: C_10  and  C_15
REMARK    3  A    between atoms: C_15  and  C_17
REMARK    4  A    between atoms: N_19  and  C_20
REMARK    5  A    between atoms: C_20  and  C_21
REMARK                            x       y       z     vdW  Elec       q    Type
REMARK                         _______ _______ _______ _____ _____    ______ ____
ROOT
ATOM      3  C   UNL     1      -5.466   2.071  25.408  0.00  0.00    +0.134 A 
ATOM      4  C   UNL     1      -5.457   2.884  25.544  0.00  0.00    +0.032 A 
ATOM      5  C   UNL     1      -4.858   3.349  25.218  0.00  0.00    -0.023 A 
ATOM      6  C   UNL     1      -4.849   4.163  25.353  0.00  0.00    +0.031 C 
ATOM      7  C   UNL     1      -4.269   3.002  24.757  0.00  0.00    -0.030 A 
ATOM      8  C   UNL     1      -3.670   3.467  24.432  0.00  0.00    +0.026 C 
ATOM      9  C   UNL     1      -3.082   3.119  23.971  0.00  0.00    +0.005 C 
ATOM     10  C   UNL     1      -3.091   2.305  23.836  0.00  0.00    +0.013 C 
ATOM     11  C   UNL     1      -3.689   1.839  24.161  0.00  0.00    +0.026 C 
ATOM     12  C   UNL     1      -4.279   2.188  24.622  0.00  0.00    -0.027 A 
ATOM     13  C   UNL     1      -4.877   1.722  24.947  0.00  0.00    +0.008 A 
ATOM     14  C   UNL     1      -4.886   0.909  24.812  0.00  0.00    +0.034 C 
ENDROOT
BRANCH   3   2
ATOM      1  C   UNL     1      -6.476   1.868  26.399  0.00  0.00    +0.252 C 
ATOM      2  O   UNL     1      -6.064   1.605  25.733  0.00  0.00    -0.472 OA
ENDBRANCH   3   2
BRANCH  10  15
ATOM     15  C   UNL     1      -2.503   1.956  23.375  0.00  0.00    +0.079 C 
ATOM     16  C   UNL     1      -2.636   1.814  22.574  0.00  0.00    +0.010 C 
BRANCH  15  17
ATOM     17  C   UNL     1      -1.780   1.750  23.717  0.00  0.00    +0.241 C 
ATOM     18  O   UNL     1      -1.195   2.322  23.821  0.00  0.00    -0.273 OA
ATOM     19  N   UNL     1      -1.643   0.971  23.954  0.00  0.00    -0.200 NA
BRANCH  19  20
ATOM     20  C   UNL     1      -0.921   0.765  24.295  0.00  0.00    +0.148 C 
BRANCH  20  21
ATOM     21  C   UNL     1      -0.819   0.014  24.621  0.00  0.00    +0.029 A 
ATOM     22  C   UNL     1      -1.095  -0.236  25.357  0.00  0.00    +0.004 A 
ATOM     23  C   UNL     1      -0.870  -1.023  25.459  0.00  0.00    +0.007 A 
ATOM     24  C   UNL     1      -0.455  -1.259  24.787  0.00  0.00    +0.035 A 
ATOM     25  S   UNL     1      -0.424  -0.618  24.269  0.00  0.00    -0.089 S 
ENDBRANCH  20  21
ENDBRANCH  19  20
ENDBRANCH  15  17
ENDBRANCH  10  15
TORSDOF 5
ENDMDL
MODEL 5
REMARK VINA RESULT:     -11.1      1.912      4.297
REMARK  Name = 
REMARK  5 active torsions:
REMARK  status: ('A' for Active; 'I' for Inactive)
REMARK    1  A    between atoms: O_2  and  C_3
REMARK    2  A    between atoms: C_10  and  C_15
REMARK    3  A    between atoms: C_15  and  C_17
REMARK    4  A    between atoms: N_19  and  C_20
REMARK    5  A    between atoms: C_20  and  C_21
REMARK                            x       y       z     vdW  Elec       q    Type
REMARK                         _______ _______ _______ _____ _____    ______ ____
ROOT
ATOM      3  C   UNL     1      -4.120   3.088  24.256  0.00  0.00    +0.134 A 
ATOM      4  C   UNL     1      -4.744   3.234  24.775  0.00  0.00    +0.032 A 
ATOM      5  C   UNL     1      -5.116   2.606  25.159  0.00  0.00    -0.023 A 
ATOM      6  C   UNL     1      -5.741   2.752  25.678  0.00  0.00    +0.031 C 
ATOM      7  C   UNL     1      -4.865   1.832  25.025  0.00  0.00    -0.030 A 
ATOM      8  C   UNL     1      -5.237   1.204  25.410  0.00  0.00    +0.026 C 
ATOM      9  C   UNL     1      -4.986   0.431  25.276  0.00  0.00    +0.005 C 
ATOM     10  C   UNL     1      -4.361   0.284  24.757  0.00  0.00    +0.013 C 
ATOM     11  C   UNL     1      -3.988   0.911  24.372  0.00  0.00    +0.026 C 
ATOM     12  C   UNL     1      -4.240   1.686  24.506  0.00  0.00    -0.027 A 
ATOM     13  C   UNL     1      -3.867   2.313  24.122  0.00  0.00    +0.008 A 
ATOM     14  C   UNL     1      -3.244   2.167  23.603  0.00  0.00    +0.034 C 
ENDROOT
BRANCH   3   2
ATOM      1  C   UNL     1      -3.589   4.414  24.281  0.00  0.00    +0.252 C 
ATOM      2  O   UNL     1      -3.747   3.715  23.871  0.00  0.00    -0.472 OA
ENDBRANCH   3   2
BRANCH  10  15
ATOM     15  C   UNL     1      -4.109  -0.489  24.622  0.00  0.00    +0.079 C 
ATOM     16  C   UNL     1      -4.439  -0.930  24.009  0.00  0.00    +0.010 C 
BRANCH  15  17
ATOM     17  C   UNL     1      -3.525  -0.822  25.102  0.00  0.00    +0.241 C 
ATOM     18  O   UNL     1      -3.719  -1.101  25.854  0.00  0.00    -0.273 OA
ATOM     19  N   UNL     1      -2.748  -0.875  24.829  0.00  0.00    -0.200 NA
BRANCH  19  20
ATOM     20  C   UNL     1      -2.165  -1.208  25.309  0.00  0.00    +0.148 C 
BRANCH  20  21
ATOM     21  C   UNL     1      -1.377  -1.199  25.065  0.00  0.00    +0.029 A 
ATOM     22  C   UNL     1      -0.885  -0.537  25.039  0.00  0.00    +0.004 A 
ATOM     23  C   UNL     1      -0.147  -0.779  24.762  0.00  0.00    +0.007 A 
ATOM     24  C   UNL     1      -0.182  -1.590  24.616  0.00  0.00    +0.035 A 
ATOM     25  S   UNL     1      -0.942  -1.850  24.804  0.00  0.00    -0.089 S 
ENDBRANCH  20  21
ENDBRANCH  19  20
ENDBRANCH  15  17
ENDBRANCH  10  15
TORSDOF 5
ENDMDL
MODEL 6
REMARK VINA RESULT:     -10.8      1.377      2.054
REMARK  Name = 
REMARK  5 active torsions:
REMARK  status: ('A' for Active; 'I' for Inactive)
REMARK    1  A    between atoms: O_2  and  C_3
REMARK    2  A    between atoms: C_10  and  C_15
REMARK    3  A    between atoms: C_15  and  C_17
REMARK    4  A    between atoms: N_19  and  C_20
REMARK    5  A    between atoms: C_20  and  C_21
REMARK                            x       y       z     vdW  Elec       q    Type
REMARK                         _______ _______ _______ _____ _____    ______ ____
ROOT
ATOM      3  C   UNL     1      -3.140  -1.890  24.773  0.00  0.00    +0.134 A 
ATOM      4  C   UNL     1      -3.873  -1.568  24.573  0.00  0.00    +0.032 A 
ATOM      5  C   UNL     1      -3.934  -0.767  24.384  0.00  0.00    -0.023 A 
ATOM      6  C   UNL     1      -4.666  -0.445  24.184  0.00  0.00    +0.031 C 
ATOM      7  C   UNL     1      -3.262  -0.288  24.395  0.00  0.00    -0.030 A 
ATOM      8  C   UNL     1      -3.323   0.513  24.206  0.00  0.00    +0.026 C 
ATOM      9  C   UNL     1      -2.651   0.991  24.216  0.00  0.00    +0.005 C 
ATOM     10  C   UNL     1      -1.919   0.669  24.416  0.00  0.00    +0.013 C 
ATOM     11  C   UNL     1      -1.857  -0.132  24.605  0.00  0.00    +0.026 C 
ATOM     12  C   UNL     1      -2.529  -0.610  24.594  0.00  0.00    -0.027 A 
ATOM     13  C   UNL     1      -2.468  -1.411  24.783  0.00  0.00    +0.008 A 
ATOM     14  C   UNL     1      -1.736  -1.733  24.983  0.00  0.00    +0.034 C 
ENDROOT
BRANCH   3   2
ATOM      1  C   UNL     1      -3.553  -3.243  24.573  0.00  0.00    +0.252 C 
ATOM      2  O   UNL     1      -3.079  -2.690  24.962  0.00  0.00    -0.472 OA
ENDBRANCH   3   2
BRANCH  10  15
ATOM     15  C   UNL     1      -1.246   1.147  24.426  0.00  0.00    +0.079 C 
ATOM     16  C   UNL     1      -0.682   1.078  23.831  0.00  0.00    +0.010 C 
BRANCH  15  17
ATOM     17  C   UNL     1      -1.140   1.695  25.035  0.00  0.00    +0.241 C 
ATOM     18  O   UNL     1      -0.911   1.439  25.785  0.00  0.00    -0.273 OA
ATOM     19  N   UNL     1      -1.263   2.499  24.893  0.00  0.00    -0.200 NA
BRANCH  19  20
ATOM     20  C   UNL     1      -1.156   3.046  25.501  0.00  0.00    +0.148 C 
BRANCH  20  21
ATOM     21  C   UNL     1      -1.298   3.846  25.364  0.00  0.00    +0.029 A 
ATOM     22  C   UNL     1      -0.774   4.378  25.011  0.00  0.00    +0.004 A 
ATOM     23  C   UNL     1      -1.140   5.116  24.984  0.00  0.00    +0.007 A 
ATOM     24  C   UNL     1      -1.890   5.042  25.319  0.00  0.00    +0.035 A 
ATOM     25  S   UNL     1      -1.988   4.257  25.553  0.00  0.00    -0.089 S 
ENDBRANCH  20  21
ENDBRANCH  19  20
ENDBRANCH  15  17
ENDBRANCH  10  15
TORSDOF 5
ENDMDL
MODEL 7
REMARK VINA RESULT:     -10.7      1.389      2.406
REMARK  Name = 
REMARK  5 active torsions:
REMARK  status: ('A' for Active; 'I' for Inactive)
REMARK    1  A    between atoms: O_2  and  C_3
REMARK    2  A    between atoms: C_10  and  C_15
REMARK    3  A    between atoms: C_15  and  C_17
REMARK    4  A    between atoms: N_19  and  C_20
REMARK    5  A    between atoms: C_20  and  C_21
REMARK                            x       y       z     vdW  Elec       q    Type
REMARK                         _______ _______ _______ _____ _____    ______ ____
ROOT
ATOM      3  C   UNL     1      -3.162  -1.926  24.585  0.00  0.00    +0.134 A 
ATOM      4  C   UNL     1      -2.392  -2.126  24.805  0.00  0.00    +0.032 A 
ATOM      5  C   UNL     1      -1.804  -1.548  24.816  0.00  0.00    -0.023 A 
ATOM      6  C   UNL     1      -1.034  -1.748  25.035  0.00  0.00    +0.031 C 
ATOM      7  C   UNL     1      -1.984  -0.771  24.608  0.00  0.00    -0.030 A 
ATOM      8  C   UNL     1      -1.396  -0.192  24.619  0.00  0.00    +0.026 C 
ATOM      9  C   UNL     1      -1.576   0.585  24.411  0.00  0.00    +0.005 C 
ATOM     10  C   UNL     1      -2.346   0.785  24.191  0.00  0.00    +0.013 C 
ATOM     11  C   UNL     1      -2.935   0.207  24.180  0.00  0.00    +0.026 C 
ATOM     12  C   UNL     1      -2.754  -0.571  24.388  0.00  0.00    -0.027 A 
ATOM     13  C   UNL     1      -3.343  -1.148  24.377  0.00  0.00    +0.008 A 
ATOM     14  C   UNL     1      -4.112  -0.948  24.158  0.00  0.00    +0.034 C 
ENDROOT
BRANCH   3   2
ATOM      1  C   UNL     1      -3.545  -3.302  24.567  0.00  0.00    +0.252 C 
ATOM      2  O   UNL     1      -3.752  -2.503  24.574  0.00  0.00    -0.472 OA
ENDBRANCH   3   2
BRANCH  10  15
ATOM     15  C   UNL     1      -2.527   1.562  23.983  0.00  0.00    +0.079 C 
ATOM     16  C   UNL     1      -2.523   1.788  23.191  0.00  0.00    +0.010 C 
BRANCH  15  17
ATOM     17  C   UNL     1      -2.713   2.113  24.569  0.00  0.00    +0.241 C 
ATOM     18  O   UNL     1      -2.116   2.427  25.044  0.00  0.00    -0.273 OA
ATOM     19  N   UNL     1      -3.496   2.349  24.680  0.00  0.00    -0.200 NA
BRANCH  19  20
ATOM     20  C   UNL     1      -3.681   2.900  25.266  0.00  0.00    +0.148 C 
BRANCH  20  21
ATOM     21  C   UNL     1      -4.469   3.102  25.406  0.00  0.00    +0.029 A 
ATOM     22  C   UNL     1      -5.067   2.585  25.644  0.00  0.00    +0.004 A 
ATOM     23  C   UNL     1      -5.764   3.019  25.718  0.00  0.00    +0.007 A 
ATOM     24  C   UNL     1      -5.598   3.803  25.528  0.00  0.00    +0.035 A 
ATOM     25  S   UNL     1      -4.797   3.855  25.335  0.00  0.00    -0.089 S 
ENDBRANCH  20  21
ENDBRANCH  19  20
ENDBRANCH  15  17
ENDBRANCH  10  15
TORSDOF 5
ENDMDL
