MODEL 1
REMARK VINA RESULT:     -11.5      0.000      0.000
REMARK  Name = 
REMARK  1 active torsions:
REMARK  status: ('A' for Active; 'I' for Inactive)
REMARK    1  A    between atoms: C_12  and  C_14
REMARK                            x       y       z     vdW  Elec       q    Type
REMARK                         _______ _______ _______ _____ _____    ______ ____
ROOT
ATOM      1  C   UNL     1      -4.175   3.370  24.703  0.00  0.00    +0.115 C 
ATOM      2  N   UNL     1      -4.646   2.767  25.013  0.00  0.00    -0.273 N 
ATOM      3  C   UNL     1      -4.433   1.978  24.900  0.00  0.00    +0.124 C 
ATOM      4  C   UNL     1      -3.795   1.628  24.510  0.00  0.00    +0.116 C 
ATOM      5  N   UNL     1      -3.871   0.810  24.578  0.00  0.00    -0.272 N 
ATOM      6  C   UNL     1      -4.556   0.653  25.011  0.00  0.00    +0.125 C 
ATOM      7  C   UNL     1      -4.903   1.375  25.209  0.00  0.00    +0.155 C 
ATOM      8  O   UNL     1      -5.587   1.561  25.633  0.00  0.00    -0.343 OA
ATOM      9  C   UNL     1      -5.800   2.350  25.746  0.00  0.00    +0.227 C 
ATOM     10  C   UNL     1      -5.329   2.953  25.436  0.00  0.00    +0.256 C 
ATOM     11  O   UNL     1      -5.542   3.741  25.549  0.00  0.00    -0.272 OA
ATOM     12  C   UNL     1      -3.353   0.247  24.269  0.00  0.00    +0.249 C 
ATOM     13  O   UNL     1      -2.687   0.488  23.846  0.00  0.00    -0.270 OA
ENDROOT
BRANCH  12  14
ATOM     14  C   UNL     1      -3.502  -0.557  24.382  0.00  0.00    +0.054 A 
ATOM     15  C   UNL     1      -3.186  -0.945  25.038  0.00  0.00    +0.007 A 
ATOM     16  C   UNL     1      -3.335  -1.748  25.152  0.00  0.00    +0.030 A 
ATOM     17  C   UNL     1      -3.800  -2.163  24.611  0.00  0.00    +0.140 A 
ATOM     18  F   UNL     1      -3.948  -2.966  24.725  0.00  0.00    -0.204 F 
ATOM     19  C   UNL     1      -4.116  -1.774  23.956  0.00  0.00    +0.030 A 
ATOM     20  C   UNL     1      -3.967  -0.971  23.842  0.00  0.00    +0.007 A 
ENDBRANCH  12  14
TORSDOF 1
ENDMDL
MODEL 2
REMARK VINA RESULT:     -11.0      1.506      2.425
REMARK  Name = 
REMARK  1 active torsions:
REMARK  status: ('A' for Active; 'I' for Inactive)
REMARK    1  A    between atoms: C_12  and  C_14
REMARK                            x       y       z     vdW  Elec       q    Type
REMARK                         _______ _______ _______ _____ _____    ______ ____
ROOT
ATOM      1  C   UNL     1      -2.841   3.077  24.955  0.00  0.00    +0.115 C 
ATOM      2  N   UNL     1      -2.394   2.458  24.640  0.00  0.00    -0.273 N 
ATOM      3  C   UNL     1      -2.689   1.687  24.654  0.00  0.00    +0.124 C 
ATOM      4  C   UNL     1      -3.396   1.371  24.939  0.00  0.00    +0.116 C 
ATOM      5  N   UNL     1      -3.387   0.558  24.801  0.00  0.00    -0.272 N 
ATOM      6  C   UNL     1      -2.673   0.371  24.430  0.00  0.00    +0.125 C 
ATOM      7  C   UNL     1      -2.242   1.069  24.339  0.00  0.00    +0.155 C 
ATOM      8  O   UNL     1      -1.500   1.221  24.011  0.00  0.00    -0.343 OA
ATOM      9  C   UNL     1      -1.206   1.992  23.997  0.00  0.00    +0.227 C 
ATOM     10  C   UNL     1      -1.653   2.610  24.312  0.00  0.00    +0.256 C 
ATOM     11  O   UNL     1      -1.359   3.380  24.298  0.00  0.00    -0.272 OA
ATOM     12  C   UNL     1      -3.985   0.025  24.999  0.00  0.00    +0.249 C 
ATOM     13  O   UNL     1      -4.670   0.294  25.370  0.00  0.00    -0.270 OA
ENDROOT
BRANCH  12  14
ATOM     14  C   UNL     1      -3.896  -0.776  24.825  0.00  0.00    +0.054 A 
ATOM     15  C   UNL     1      -4.180  -1.077  24.111  0.00  0.00    +0.007 A 
ATOM     16  C   UNL     1      -4.092  -1.878  23.937  0.00  0.00    +0.030 A 
ATOM     17  C   UNL     1      -3.720  -2.379  24.476  0.00  0.00    +0.140 A 
ATOM     18  F   UNL     1      -3.632  -3.180  24.302  0.00  0.00    -0.204 F 
ATOM     19  C   UNL     1      -3.436  -2.079  25.190  0.00  0.00    +0.030 A 
ATOM     20  C   UNL     1      -3.524  -1.277  25.364  0.00  0.00    +0.007 A 
ENDBRANCH  12  14
TORSDOF 1
ENDMDL
