REMARK  Name = 
REMARK  4 active torsions:
REMARK  status: ('A' for Active; 'I' for Inactive)
REMARK    1  A    between atoms: O_2  and  C_3
REMARK    2  A    between atoms: C_6  and  C_9
REMARK    3  A    between atoms: C_18  and  C_19
REMARK    4  A    between atoms: C_20  and  C_21
REMARK                            x       y       z     vdW  Elec       q    Type
REMARK                         _______ _______ _______ _____ _____    ______ ____
ROOT
ATOM      9  C   UNL     1       0.170  -2.711   0.000  0.00  0.00    +0.249 C 
ATOM     10  O   UNL     1       0.369  -3.550   0.000  0.00  0.00    -0.270 OA
ATOM     11  N   UNL     1       0.813  -2.091   0.000  0.00  0.00    -0.276 N 
ATOM     12  C   UNL     1       1.629  -1.912   0.000  0.00  0.00    +0.096 C 
ATOM     13  C   UNL     1       1.582  -0.925   0.000  0.00  0.00    +0.043 C 
ATOM     14  C   UNL     1       1.713  -0.121   0.000  0.00  0.00    +0.011 C 
ATOM     15  C   UNL     1       1.163  -0.557   0.000  0.00  0.00    +0.058 C 
ATOM     16  C   UNL     1       1.225  -1.510   0.000  0.00  0.00    +0.099 C 
ATOM     17  C   UNL     1       0.244  -0.558   0.000  0.00  0.00    +0.041 A 
ATOM     18  C   UNL     1      -0.397  -0.039   0.000  0.00  0.00    +0.012 A 
ATOM     28  C   UNL     1      -1.167  -0.335   0.000  0.00  0.00    +0.006 A 
ATOM     29  C   UNL     1      -1.296  -1.150   0.000  0.00  0.00    +0.061 A 
ATOM     30  C   UNL     1      -0.655  -1.669   0.000  0.00  0.00    +0.261 A 
ATOM     31  O   UNL     1      -0.732  -2.720   0.000  0.00  0.00    -0.267 OA
ATOM     32  N   UNL     1       0.115  -1.373   0.000  0.00  0.00    -0.299 N 
ATOM     33  C   UNL     1       0.622  -0.936   0.000  0.00  0.00    +0.110 C 
ENDROOT
BRANCH   9   6
ATOM      3  C   UNL     1      -2.091  -1.444   0.000  0.00  0.00    +0.139 A 
ATOM      4  C   UNL     1      -1.485  -0.905   0.000  0.00  0.00    +0.037 A 
ATOM      5  C   UNL     1      -0.664  -1.356   0.000  0.00  0.00    +0.008 A 
ATOM      6  C   UNL     1      -0.614  -2.179   0.000  0.00  0.00    +0.054 A 
ATOM      7  C   UNL     1      -1.301  -2.635   0.000  0.00  0.00    +0.008 A 
ATOM      8  C   UNL     1      -2.040  -2.267   0.000  0.00  0.00    +0.037 A 
BRANCH   3   2
ATOM      1  C   UNL     1      -3.517  -1.532   0.000  0.00  0.00    +0.252 C 
ATOM      2  O   UNL     1      -2.829  -1.076   0.000  0.00  0.00    -0.471 OA
ENDBRANCH   3   2
ENDBRANCH   9   6
BRANCH  18  19
ATOM     19  C   UNL     1      -0.258   0.829   0.000  0.00  0.00    +0.001 C 
ATOM     20  C   UNL     1      -0.952   1.303   0.000  0.00  0.00    +0.000 C 
BRANCH  20  21
ATOM     21  C   UNL     1      -0.780   2.110   0.000  0.00  0.00    +0.000 A 
ATOM     22  C   UNL     1      -1.421   2.629   0.000  0.00  0.00    +0.001 A 
ATOM     23  C   UNL     1      -1.292   3.444   0.000  0.00  0.00    +0.011 A 
ATOM     24  C   UNL     1      -0.522   3.740   0.000  0.00  0.00    +0.058 A 
ATOM     25 CL   UNL     1      -0.393   4.554   0.000  0.00  0.00    -0.082 Cl
ATOM     26  C   UNL     1       0.119   3.220   0.000  0.00  0.00    +0.011 A 
ATOM     27  C   UNL     1      -0.010   2.406   0.000  0.00  0.00    +0.001 A 
ENDBRANCH  20  21
ENDBRANCH  18  19
TORSDOF 4
