MODEL 1
REMARK VINA RESULT:     -11.6      0.000      0.000
REMARK  Name = 
REMARK  3 active torsions:
REMARK  status: ('A' for Active; 'I' for Inactive)
REMARK    1  A    between atoms: C_7  and  N_10
REMARK    2  A    between atoms: C_15  and  C_16
REMARK    3  A    between atoms: C_18  and  C_21
REMARK                            x       y       z     vdW  Elec       q    Type
REMARK                         _______ _______ _______ _____ _____    ______ ____
ROOT
ATOM     10  N   UNL     1      -4.565   0.930  24.826  0.00  0.00    -0.265 NA
ATOM     11  C   UNL     1      -5.281   1.201  25.135  0.00  0.00    +0.106 C 
ATOM     12  C   UNL     1      -5.308   2.020  25.033  0.00  0.00    +0.170 C 
ATOM     13  O   UNL     1      -5.926   2.516  25.262  0.00  0.00    -0.222 OA
ATOM     14  C   UNL     1      -4.609   2.254  24.662  0.00  0.00    +0.060 C 
ATOM     15  C   UNL     1      -4.150   1.580  24.534  0.00  0.00    +0.140 C 
ENDROOT
BRANCH  10   7
ATOM      1  C   UNL     1      -3.686  -2.676  24.109  0.00  0.00    +0.095 C 
ATOM      2  C   UNL     1      -3.543  -2.208  24.772  0.00  0.00    +0.226 C 
ATOM      3  O   UNL     1      -3.145  -2.523  25.422  0.00  0.00    -0.275 OA
ATOM      4  N   UNL     1      -3.799  -1.423  24.786  0.00  0.00    -0.279 N 
ATOM      5  C   UNL     1      -3.656  -0.954  25.450  0.00  0.00    +0.095 C 
ATOM      6  C   UNL     1      -3.911  -0.170  25.463  0.00  0.00    +0.038 C 
ATOM      7  C   UNL     1      -4.310   0.146  24.813  0.00  0.00    +0.061 C 
ATOM      8  C   UNL     1      -4.453  -0.323  24.150  0.00  0.00    +0.038 C 
ATOM      9  C   UNL     1      -4.197  -1.108  24.136  0.00  0.00    +0.095 C 
ENDBRANCH  10   7
BRANCH  15  16
ATOM     16  C   UNL     1      -3.407   1.560  24.178  0.00  0.00    +0.251 A 
ATOM     17  N   UNL     1      -2.684   1.684  24.556  0.00  0.00    -0.188 NA
ATOM     18  C   UNL     1      -2.086   1.613  23.992  0.00  0.00    +0.221 A 
ATOM     19  N   UNL     1      -2.439   1.445  23.266  0.00  0.00    -0.054 NA
ATOM     20  O   UNL     1      -3.255   1.412  23.381  0.00  0.00    -0.336 OA
BRANCH  18  21
ATOM     21  C   UNL     1      -1.277   1.696  24.130  0.00  0.00    +0.120 A 
ATOM     22  N   UNL     1      -0.777   1.044  24.053  0.00  0.00    -0.241 NA
ATOM     23  C   UNL     1       0.032   1.127  24.191  0.00  0.00    +0.099 A 
ATOM     24  C   UNL     1       0.341   1.861  24.407  0.00  0.00    +0.021 A 
ATOM     25  C   UNL     1      -0.159   2.512  24.484  0.00  0.00    +0.003 A 
ATOM     26  C   UNL     1      -0.968   2.430  24.346  0.00  0.00    +0.022 A 
ENDBRANCH  18  21
ENDBRANCH  15  16
TORSDOF 3
ENDMDL
MODEL 2
REMARK VINA RESULT:     -11.5      1.391      3.840
REMARK  Name = 
REMARK  3 active torsions:
REMARK  status: ('A' for Active; 'I' for Inactive)
REMARK    1  A    between atoms: C_7  and  N_10
REMARK    2  A    between atoms: C_15  and  C_16
REMARK    3  A    between atoms: C_18  and  C_21
REMARK                            x       y       z     vdW  Elec       q    Type
REMARK                         _______ _______ _______ _____ _____    ______ ____
ROOT
ATOM     10  N   UNL     1      -3.893   2.882  25.178  0.00  0.00    -0.265 NA
ATOM     11  C   UNL     1      -4.351   3.491  25.492  0.00  0.00    +0.106 C 
ATOM     12  C   UNL     1      -5.141   3.254  25.466  0.00  0.00    +0.170 C 
ATOM     13  O   UNL     1      -5.789   3.695  25.725  0.00  0.00    -0.222 OA
ATOM     14  C   UNL     1      -5.170   2.498  25.136  0.00  0.00    +0.060 C 
ATOM     15  C   UNL     1      -4.397   2.268  24.958  0.00  0.00    +0.140 C 
ENDROOT
BRANCH  10   7
ATOM      1  C   UNL     1      -0.131   2.648  25.482  0.00  0.00    +0.095 C 
ATOM      2  C   UNL     1      -0.607   2.898  24.858  0.00  0.00    +0.226 C 
ATOM      3  O   UNL     1      -0.263   3.153  24.152  0.00  0.00    -0.275 OA
ATOM      4  N   UNL     1      -1.429   2.894  24.938  0.00  0.00    -0.279 N 
ATOM      5  C   UNL     1      -1.906   3.145  24.312  0.00  0.00    +0.095 C 
ATOM      6  C   UNL     1      -2.727   3.141  24.392  0.00  0.00    +0.038 C 
ATOM      7  C   UNL     1      -3.071   2.886  25.098  0.00  0.00    +0.061 C 
ATOM      8  C   UNL     1      -2.594   2.635  25.722  0.00  0.00    +0.038 C 
ATOM      9  C   UNL     1      -1.773   2.639  25.642  0.00  0.00    +0.095 C 
ENDBRANCH  10   7
BRANCH  15  16
ATOM     16  C   UNL     1      -4.170   1.551  24.620  0.00  0.00    +0.251 A 
ATOM     17  N   UNL     1      -4.142   0.821  25.004  0.00  0.00    -0.188 NA
ATOM     18  C   UNL     1      -3.886   0.257  24.460  0.00  0.00    +0.221 A 
ATOM     19  N   UNL     1      -3.756   0.638  23.740  0.00  0.00    -0.054 NA
ATOM     20  O   UNL     1      -3.932   1.437  23.839  0.00  0.00    -0.336 OA
BRANCH  18  21
ATOM     21  C   UNL     1      -3.779  -0.548  24.610  0.00  0.00    +0.120 A 
ATOM     22  N   UNL     1      -3.373  -0.790  25.285  0.00  0.00    -0.241 NA
ATOM     23  C   UNL     1      -3.266  -1.595  25.435  0.00  0.00    +0.099 A 
ATOM     24  C   UNL     1      -3.564  -2.156  24.909  0.00  0.00    +0.021 A 
ATOM     25  C   UNL     1      -3.971  -1.913  24.233  0.00  0.00    +0.003 A 
ATOM     26  C   UNL     1      -4.078  -1.108  24.084  0.00  0.00    +0.022 A 
ENDBRANCH  18  21
ENDBRANCH  15  16
TORSDOF 3
ENDMDL
MODEL 3
REMARK VINA RESULT:     -11.2      1.421      4.170
REMARK  Name = 
REMARK  3 active torsions:
REMARK  status: ('A' for Active; 'I' for Inactive)
REMARK    1  A    between atoms: C_7  and  N_10
REMARK    2  A    between atoms: C_15  and  C_16
REMARK    3  A    between atoms: C_18  and  C_21
REMARK                            x       y       z     vdW  Elec       q    Type
REMARK                         _______ _______ _______ _____ _____    ______ ____
ROOT
ATOM     10  N   UNL     1      -2.108  -0.581  24.734  0.00  0.00    -0.265 NA
ATOM     11  C   UNL     1      -1.923  -1.379  24.831  0.00  0.00    +0.106 C 
ATOM     12  C   UNL     1      -2.610  -1.817  24.703  0.00  0.00    +0.170 C 
ATOM     13  O   UNL     1      -2.677  -2.638  24.743  0.00  0.00    -0.222 OA
ATOM     14  C   UNL     1      -3.220  -1.289  24.526  0.00  0.00    +0.060 C 
ATOM     15  C   UNL     1      -2.908  -0.525  24.546  0.00  0.00    +0.140 C 
ENDROOT
BRANCH  10   7
ATOM      1  C   UNL     1       0.103   2.302  25.780  0.00  0.00    +0.095 C 
ATOM      2  C   UNL     1      -0.008   1.947  25.045  0.00  0.00    +0.226 C 
ATOM      3  O   UNL     1       0.405   2.223  24.386  0.00  0.00    -0.275 OA
ATOM      4  N   UNL     1      -0.534   1.315  24.967  0.00  0.00    -0.279 N 
ATOM      5  C   UNL     1      -0.644   0.959  24.231  0.00  0.00    +0.095 C 
ATOM      6  C   UNL     1      -1.169   0.327  24.153  0.00  0.00    +0.038 C 
ATOM      7  C   UNL     1      -1.583   0.051  24.812  0.00  0.00    +0.061 C 
ATOM      8  C   UNL     1      -1.472   0.407  25.547  0.00  0.00    +0.038 C 
ATOM      9  C   UNL     1      -0.947   1.039  25.625  0.00  0.00    +0.095 C 
ENDBRANCH  10   7
BRANCH  15  16
ATOM     16  C   UNL     1      -3.325   0.172  24.402  0.00  0.00    +0.251 A 
ATOM     17  N   UNL     1      -3.781   0.587  24.952  0.00  0.00    -0.188 NA
ATOM     18  C   UNL     1      -4.097   1.248  24.573  0.00  0.00    +0.221 A 
ATOM     19  N   UNL     1      -3.837   1.242  23.791  0.00  0.00    -0.054 NA
ATOM     20  O   UNL     1      -3.361   0.578  23.685  0.00  0.00    -0.336 OA
BRANCH  18  21
ATOM     21  C   UNL     1      -4.587   1.816  24.918  0.00  0.00    +0.120 A 
ATOM     22  N   UNL     1      -4.272   2.538  25.162  0.00  0.00    -0.241 NA
ATOM     23  C   UNL     1      -4.763   3.106  25.507  0.00  0.00    +0.099 A 
ATOM     24  C   UNL     1      -5.567   2.950  25.606  0.00  0.00    +0.021 A 
ATOM     25  C   UNL     1      -5.881   2.228  25.362  0.00  0.00    +0.003 A 
ATOM     26  C   UNL     1      -5.391   1.661  25.017  0.00  0.00    +0.022 A 
ENDBRANCH  18  21
ENDBRANCH  15  16
TORSDOF 3
ENDMDL
MODEL 4
REMARK VINA RESULT:     -11.0      1.551      4.431
REMARK  Name = 
REMARK  3 active torsions:
REMARK  status: ('A' for Active; 'I' for Inactive)
REMARK    1  A    between atoms: C_7  and  N_10
REMARK    2  A    between atoms: C_15  and  C_16
REMARK    3  A    between atoms: C_18  and  C_21
REMARK                            x       y       z     vdW  Elec       q    Type
REMARK                         _______ _______ _______ _____ _____    ______ ____
ROOT
ATOM     10  N   UNL     1      -1.136   1.851  24.481  0.00  0.00    -0.265 NA
ATOM     11  C   UNL     1      -0.435   2.228  24.265  0.00  0.00    +0.106 C 
ATOM     12  C   UNL     1       0.179   1.681  24.335  0.00  0.00    +0.170 C 
ATOM     13  O   UNL     1       0.976   1.824  24.174  0.00  0.00    -0.222 OA
ATOM     14  C   UNL     1      -0.143   0.967  24.593  0.00  0.00    +0.060 C 
ATOM     15  C   UNL     1      -0.957   1.072  24.684  0.00  0.00    +0.140 C 
ENDROOT
BRANCH  10   7
ATOM      1  C   UNL     1      -4.420   3.576  25.212  0.00  0.00    +0.095 C 
ATOM      2  C   UNL     1      -4.139   3.222  24.523  0.00  0.00    +0.226 C 
ATOM      3  O   UNL     1      -4.607   3.210  23.844  0.00  0.00    -0.275 OA
ATOM      4  N   UNL     1      -3.387   2.879  24.513  0.00  0.00    -0.279 N 
ATOM      5  C   UNL     1      -3.106   2.524  23.822  0.00  0.00    +0.095 C 
ATOM      6  C   UNL     1      -2.356   2.182  23.812  0.00  0.00    +0.038 C 
ATOM      7  C   UNL     1      -1.887   2.193  24.491  0.00  0.00    +0.061 C 
ATOM      8  C   UNL     1      -2.169   2.548  25.180  0.00  0.00    +0.038 C 
ATOM      9  C   UNL     1      -2.919   2.891  25.191  0.00  0.00    +0.095 C 
ENDBRANCH  10   7
BRANCH  15  16
ATOM     16  C   UNL     1      -1.495   0.500  24.933  0.00  0.00    +0.251 A 
ATOM     17  N   UNL     1      -1.855  -0.068  24.454  0.00  0.00    -0.188 NA
ATOM     18  C   UNL     1      -2.351  -0.525  24.930  0.00  0.00    +0.221 A 
ATOM     19  N   UNL     1      -2.297  -0.239  25.701  0.00  0.00    -0.054 NA
ATOM     20  O   UNL     1      -1.769   0.393  25.703  0.00  0.00    -0.336 OA
BRANCH  18  21
ATOM     21  C   UNL     1      -2.818  -1.157  24.677  0.00  0.00    +0.120 A 
ATOM     22  N   UNL     1      -2.486  -1.907  24.595  0.00  0.00    -0.241 NA
ATOM     23  C   UNL     1      -2.954  -2.539  24.342  0.00  0.00    +0.099 A 
ATOM     24  C   UNL     1      -3.752  -2.419  24.173  0.00  0.00    +0.021 A 
ATOM     25  C   UNL     1      -4.084  -1.669  24.255  0.00  0.00    +0.003 A 
ATOM     26  C   UNL     1      -3.617  -1.037  24.508  0.00  0.00    +0.022 A 
ENDBRANCH  18  21
ENDBRANCH  15  16
TORSDOF 3
ENDMDL
MODEL 5
REMARK VINA RESULT:     -11.0      1.973      3.611
REMARK  Name = 
REMARK  3 active torsions:
REMARK  status: ('A' for Active; 'I' for Inactive)
REMARK    1  A    between atoms: C_7  and  N_10
REMARK    2  A    between atoms: C_15  and  C_16
REMARK    3  A    between atoms: C_18  and  C_21
REMARK                            x       y       z     vdW  Elec       q    Type
REMARK                         _______ _______ _______ _____ _____    ______ ____
ROOT
ATOM     10  N   UNL     1      -0.570   0.219  24.156  0.00  0.00    -0.265 NA
ATOM     11  C   UNL     1      -0.140  -0.231  23.615  0.00  0.00    +0.106 C 
ATOM     12  C   UNL     1       0.548   0.185  23.429  0.00  0.00    +0.170 C 
ATOM     13  O   UNL     1       1.138  -0.062  22.908  0.00  0.00    -0.222 OA
ATOM     14  C   UNL     1       0.542   0.892  23.855  0.00  0.00    +0.060 C 
ATOM     15  C   UNL     1      -0.150   0.912  24.304  0.00  0.00    +0.140 C 
ENDROOT
BRANCH  10   7
ATOM      1  C   UNL     1      -4.175  -0.378  25.130  0.00  0.00    +0.095 C 
ATOM      2  C   UNL     1      -3.472  -0.612  25.492  0.00  0.00    +0.226 C 
ATOM      3  O   UNL     1      -3.494  -1.054  26.189  0.00  0.00    -0.275 OA
ATOM      4  N   UNL     1      -2.746  -0.404  25.158  0.00  0.00    -0.279 N 
ATOM      5  C   UNL     1      -2.043  -0.638  25.521  0.00  0.00    +0.095 C 
ATOM      6  C   UNL     1      -1.318  -0.431  25.187  0.00  0.00    +0.038 C 
ATOM      7  C   UNL     1      -1.296   0.012  24.490  0.00  0.00    +0.061 C 
ATOM      8  C   UNL     1      -1.999   0.245  24.128  0.00  0.00    +0.038 C 
ATOM      9  C   UNL     1      -2.724   0.038  24.462  0.00  0.00    +0.095 C 
ENDBRANCH  10   7
BRANCH  15  16
ATOM     16  C   UNL     1      -0.380   1.519  24.813  0.00  0.00    +0.251 A 
ATOM     17  N   UNL     1      -0.750   2.223  24.591  0.00  0.00    -0.188 NA
ATOM     18  C   UNL     1      -0.879   2.669  25.273  0.00  0.00    +0.221 A 
ATOM     19  N   UNL     1      -0.589   2.241  25.916  0.00  0.00    -0.054 NA
ATOM     20  O   UNL     1      -0.281   1.531  25.631  0.00  0.00    -0.336 OA
BRANCH  18  21
ATOM     21  C   UNL     1      -1.236   3.412  25.307  0.00  0.00    +0.120 A 
ATOM     22  N   UNL     1      -1.986   3.494  25.640  0.00  0.00    -0.241 NA
ATOM     23  C   UNL     1      -2.343   4.238  25.674  0.00  0.00    +0.099 A 
ATOM     24  C   UNL     1      -1.950   4.898  25.374  0.00  0.00    +0.021 A 
ATOM     25  C   UNL     1      -1.200   4.816  25.041  0.00  0.00    +0.003 A 
ATOM     26  C   UNL     1      -0.843   4.072  25.007  0.00  0.00    +0.022 A 
ENDBRANCH  18  21
ENDBRANCH  15  16
TORSDOF 3
ENDMDL
MODEL 6
REMARK VINA RESULT:     -11.0      1.985      4.023
REMARK  Name = 
REMARK  3 active torsions:
REMARK  status: ('A' for Active; 'I' for Inactive)
REMARK    1  A    between atoms: C_7  and  N_10
REMARK    2  A    between atoms: C_15  and  C_16
REMARK    3  A    between atoms: C_18  and  C_21
REMARK                            x       y       z     vdW  Elec       q    Type
REMARK                         _______ _______ _______ _____ _____    ______ ____
ROOT
ATOM     10  N   UNL     1      -1.149   2.949  24.848  0.00  0.00    -0.265 NA
ATOM     11  C   UNL     1      -0.577   3.514  25.035  0.00  0.00    +0.106 C 
ATOM     12  C   UNL     1      -0.931   4.258  24.990  0.00  0.00    +0.170 C 
ATOM     13  O   UNL     1      -0.560   4.981  25.135  0.00  0.00    -0.222 OA
ATOM     14  C   UNL     1      -1.720   4.153  24.775  0.00  0.00    +0.060 C 
ATOM     15  C   UNL     1      -1.855   3.343  24.687  0.00  0.00    +0.140 C 
ENDROOT
BRANCH  10   7
ATOM      1  C   UNL     1      -0.805  -0.770  25.435  0.00  0.00    +0.095 C 
ATOM      2  C   UNL     1      -0.687  -0.318  24.756  0.00  0.00    +0.226 C 
ATOM      3  O   UNL     1      -0.454  -0.681  24.053  0.00  0.00    -0.275 OA
ATOM      4  N   UNL     1      -0.803   0.500  24.779  0.00  0.00    -0.279 N 
ATOM      5  C   UNL     1      -0.685   0.952  24.099  0.00  0.00    +0.095 C 
ATOM      6  C   UNL     1      -0.800   1.768  24.122  0.00  0.00    +0.038 C 
ATOM      7  C   UNL     1      -1.033   2.133  24.825  0.00  0.00    +0.061 C 
ATOM      8  C   UNL     1      -1.151   1.680  25.504  0.00  0.00    +0.038 C 
ATOM      9  C   UNL     1      -1.035   0.863  25.481  0.00  0.00    +0.095 C 
ENDBRANCH  10   7
BRANCH  15  16
ATOM     16  C   UNL     1      -2.569   2.990  24.476  0.00  0.00    +0.251 A 
ATOM     17  N   UNL     1      -3.198   2.824  24.985  0.00  0.00    -0.188 NA
ATOM     18  C   UNL     1      -3.798   2.473  24.542  0.00  0.00    +0.221 A 
ATOM     19  N   UNL     1      -3.542   2.422  23.760  0.00  0.00    -0.054 NA
ATOM     20  O   UNL     1      -2.783   2.741  23.719  0.00  0.00    -0.336 OA
BRANCH  18  21
ATOM     21  C   UNL     1      -4.528   2.218  24.831  0.00  0.00    +0.120 A 
ATOM     22  N   UNL     1      -5.077   2.768  25.107  0.00  0.00    -0.241 NA
ATOM     23  C   UNL     1      -5.807   2.512  25.396  0.00  0.00    +0.099 A 
ATOM     24  C   UNL     1      -5.986   1.707  25.409  0.00  0.00    +0.021 A 
ATOM     25  C   UNL     1      -5.437   1.157  25.133  0.00  0.00    +0.003 A 
ATOM     26  C   UNL     1      -4.707   1.413  24.844  0.00  0.00    +0.022 A 
ENDBRANCH  18  21
ENDBRANCH  15  16
TORSDOF 3
ENDMDL
MODEL 7
REMARK VINA RESULT:     -10.9      1.351      3.389
REMARK  Name = 
REMARK  3 active torsions:
REMARK  status: ('A' for Active; 'I' for Inactive)
REMARK    1  A    between atoms: C_7  and  N_10
REMARK    2  A    between atoms: C_15  and  C_16
REMARK    3  A    between atoms: C_18  and  C_21
REMARK                            x       y       z     vdW  Elec       q    Type
REMARK                         _______ _______ _______ _____ _____    ______ ____
ROOT
ATOM     10  N   UNL     1      -1.423   0.631  24.856  0.00  0.00    -0.265 NA
ATOM     11  C   UNL     1      -0.611   0.673  24.997  0.00  0.00    +0.106 C 
ATOM     12  C   UNL     1      -0.376   1.458  24.898  0.00  0.00    +0.170 C 
ATOM     13  O   UNL     1       0.391   1.748  24.986  0.00  0.00    -0.222 OA
ATOM     14  C   UNL     1      -1.042   1.900  24.697  0.00  0.00    +0.060 C 
ATOM     15  C   UNL     1      -1.690   1.389  24.671  0.00  0.00    +0.140 C 
ENDROOT
BRANCH  10   7
ATOM      1  C   UNL     1      -3.426  -2.531  24.325  0.00  0.00    +0.095 C 
ATOM      2  C   UNL     1      -3.278  -2.095  25.008  0.00  0.00    +0.226 C 
ATOM      3  O   UNL     1      -3.594  -2.338  25.731  0.00  0.00    -0.275 OA
ATOM      4  N   UNL     1      -2.814  -1.412  24.970  0.00  0.00    -0.279 N 
ATOM      5  C   UNL     1      -2.667  -0.975  25.654  0.00  0.00    +0.095 C 
ATOM      6  C   UNL     1      -2.203  -0.294  25.616  0.00  0.00    +0.038 C 
ATOM      7  C   UNL     1      -1.887  -0.050  24.894  0.00  0.00    +0.061 C 
ATOM      8  C   UNL     1      -2.034  -0.488  24.211  0.00  0.00    +0.038 C 
ATOM      9  C   UNL     1      -2.498  -1.169  24.249  0.00  0.00    +0.095 C 
ENDBRANCH  10   7
BRANCH  15  16
ATOM     16  C   UNL     1      -2.466   1.599  24.491  0.00  0.00    +0.251 A 
ATOM     17  N   UNL     1      -3.029   1.879  25.026  0.00  0.00    -0.188 NA
ATOM     18  C   UNL     1      -3.728   2.019  24.610  0.00  0.00    +0.221 A 
ATOM     19  N   UNL     1      -3.597   1.825  23.820  0.00  0.00    -0.054 NA
ATOM     20  O   UNL     1      -2.819   1.566  23.746  0.00  0.00    -0.336 OA
BRANCH  18  21
ATOM     21  C   UNL     1      -4.434   2.303  24.930  0.00  0.00    +0.120 A 
ATOM     22  N   UNL     1      -4.486   3.086  25.183  0.00  0.00    -0.241 NA
ATOM     23  C   UNL     1      -5.192   3.370  25.503  0.00  0.00    +0.099 A 
ATOM     24  C   UNL     1      -5.845   2.870  25.570  0.00  0.00    +0.021 A 
ATOM     25  C   UNL     1      -5.792   2.086  25.318  0.00  0.00    +0.003 A 
ATOM     26  C   UNL     1      -5.086   1.803  24.998  0.00  0.00    +0.022 A 
ENDBRANCH  18  21
ENDBRANCH  15  16
TORSDOF 3
ENDMDL
MODEL 8
REMARK VINA RESULT:     -10.7      1.113      3.098
REMARK  Name = 
REMARK  3 active torsions:
REMARK  status: ('A' for Active; 'I' for Inactive)
REMARK    1  A    between atoms: C_7  and  N_10
REMARK    2  A    between atoms: C_15  and  C_16
REMARK    3  A    between atoms: C_18  and  C_21
REMARK                            x       y       z     vdW  Elec       q    Type
REMARK                         _______ _______ _______ _____ _____    ______ ____
ROOT
ATOM     10  N   UNL     1      -3.669  -0.935  24.552  0.00  0.00    -0.265 NA
ATOM     11  C   UNL     1      -4.077  -1.602  24.287  0.00  0.00    +0.106 C 
ATOM     12  C   UNL     1      -3.556  -2.241  24.304  0.00  0.00    +0.170 C 
ATOM     13  O   UNL     1      -3.733  -3.016  24.084  0.00  0.00    -0.222 OA
ATOM     14  C   UNL     1      -2.827  -1.970  24.579  0.00  0.00    +0.060 C 
ATOM     15  C   UNL     1      -2.898  -1.162  24.733  0.00  0.00    +0.140 C 
ENDROOT
BRANCH  10   7
ATOM      1  C   UNL     1      -5.301   2.332  25.532  0.00  0.00    +0.095 C 
ATOM      2  C   UNL     1      -4.913   2.109  24.839  0.00  0.00    +0.226 C 
ATOM      3  O   UNL     1      -4.836   2.646  24.217  0.00  0.00    -0.275 OA
ATOM      4  N   UNL     1      -4.602   1.347  24.767  0.00  0.00    -0.279 N 
ATOM      5  C   UNL     1      -4.214   1.124  24.074  0.00  0.00    +0.095 C 
ATOM      6  C   UNL     1      -3.903   0.364  24.002  0.00  0.00    +0.038 C 
ATOM      7  C   UNL     1      -3.980  -0.174  24.624  0.00  0.00    +0.061 C 
ATOM      8  C   UNL     1      -4.368   0.050  25.316  0.00  0.00    +0.038 C 
ATOM      9  C   UNL     1      -4.679   0.810  25.388  0.00  0.00    +0.095 C 
ENDBRANCH  10   7
BRANCH  15  16
ATOM     16  C   UNL     1      -2.302  -0.668  25.017  0.00  0.00    +0.251 A 
ATOM     17  N   UNL     1      -1.809  -0.190  24.559  0.00  0.00    -0.188 NA
ATOM     18  C   UNL     1      -1.296   0.208  25.067  0.00  0.00    +0.221 A 
ATOM     19  N   UNL     1      -1.471  -0.024  25.839  0.00  0.00    -0.054 NA
ATOM     20  O   UNL     1      -2.092  -0.565  25.808  0.00  0.00    -0.336 OA
BRANCH  18  21
ATOM     21  C   UNL     1      -0.710   0.744  24.843  0.00  0.00    +0.120 A 
ATOM     22  N   UNL     1      -0.216   0.572  24.206  0.00  0.00    -0.241 NA
ATOM     23  C   UNL     1       0.370   1.108  23.982  0.00  0.00    +0.099 A 
ATOM     24  C   UNL     1       0.461   1.816  24.395  0.00  0.00    +0.021 A 
ATOM     25  C   UNL     1      -0.033   1.989  25.033  0.00  0.00    +0.003 A 
ATOM     26  C   UNL     1      -0.619   1.452  25.257  0.00  0.00    +0.022 A 
ENDBRANCH  18  21
ENDBRANCH  15  16
TORSDOF 3
ENDMDL
MODEL 9
REMARK VINA RESULT:     -10.7      2.160      3.593
REMARK  Name = 
REMARK  3 active torsions:
REMARK  status: ('A' for Active; 'I' for Inactive)
REMARK    1  A    between atoms: C_7  and  N_10
REMARK    2  A    between atoms: C_15  and  C_16
REMARK    3  A    between atoms: C_18  and  C_21
REMARK                            x       y       z     vdW  Elec       q    Type
REMARK                         _______ _______ _______ _____ _____    ______ ____
ROOT
ATOM     10  N   UNL     1      -2.391   3.696  24.915  0.00  0.00    -0.265 NA
ATOM     11  C   UNL     1      -2.204   4.477  25.104  0.00  0.00    +0.106 C 
ATOM     12  C   UNL     1      -1.392   4.577  24.998  0.00  0.00    +0.170 C 
ATOM     13  O   UNL     1      -0.969   5.273  25.124  0.00  0.00    -0.222 OA
ATOM     14  C   UNL     1      -1.078   3.857  24.743  0.00  0.00    +0.060 C 
ATOM     15  C   UNL     1      -1.696   3.313  24.692  0.00  0.00    +0.140 C 
ENDROOT
BRANCH  10   7
ATOM      1  C   UNL     1      -5.701   2.070  25.749  0.00  0.00    +0.095 C 
ATOM      2  C   UNL     1      -5.399   2.342  25.031  0.00  0.00    +0.226 C 
ATOM      3  O   UNL     1      -5.848   2.275  24.342  0.00  0.00    -0.275 OA
ATOM      4  N   UNL     1      -4.647   2.680  25.002  0.00  0.00    -0.279 N 
ATOM      5  C   UNL     1      -4.345   2.952  24.284  0.00  0.00    +0.095 C 
ATOM      6  C   UNL     1      -3.593   3.291  24.255  0.00  0.00    +0.038 C 
ATOM      7  C   UNL     1      -3.143   3.357  24.944  0.00  0.00    +0.061 C 
ATOM      8  C   UNL     1      -3.446   3.085  25.661  0.00  0.00    +0.038 C 
ATOM      9  C   UNL     1      -4.198   2.747  25.691  0.00  0.00    +0.095 C 
ENDBRANCH  10   7
BRANCH  15  16
ATOM     16  C   UNL     1      -1.630   2.525  24.459  0.00  0.00    +0.251 A 
ATOM     17  N   UNL     1      -1.391   1.896  24.938  0.00  0.00    -0.188 NA
ATOM     18  C   UNL     1      -1.405   1.209  24.481  0.00  0.00    +0.221 A 
ATOM     19  N   UNL     1      -1.652   1.413  23.722  0.00  0.00    -0.054 NA
ATOM     20  O   UNL     1      -1.791   2.225  23.708  0.00  0.00    -0.336 OA
BRANCH  18  21
ATOM     21  C   UNL     1      -1.206   0.451  24.740  0.00  0.00    +0.120 A 
ATOM     22  N   UNL     1      -0.602   0.033  24.365  0.00  0.00    -0.241 NA
ATOM     23  C   UNL     1      -0.403  -0.725  24.623  0.00  0.00    +0.099 A 
ATOM     24  C   UNL     1      -0.808  -1.064  25.257  0.00  0.00    +0.021 A 
ATOM     25  C   UNL     1      -1.412  -0.646  25.632  0.00  0.00    +0.003 A 
ATOM     26  C   UNL     1      -1.611   0.112  25.373  0.00  0.00    +0.022 A 
ENDBRANCH  18  21
ENDBRANCH  15  16
TORSDOF 3
ENDMDL
