MODEL 1
REMARK VINA RESULT:     -13.8      0.000      0.000
REMARK  Name = 
REMARK  4 active torsions:
REMARK  status: ('A' for Active; 'I' for Inactive)
REMARK    1  A    between atoms: C_7  and  C_9
REMARK    2  A    between atoms: N_12  and  C_13
REMARK    3  A    between atoms: C_13  and  C_14
REMARK    4  A    between atoms: C_17  and  C_20
REMARK                            x       y       z     vdW  Elec       q    Type
REMARK                         _______ _______ _______ _____ _____    ______ ____
ROOT
ATOM      9  C   UNL     1      -3.201   2.017  24.471  0.00  0.00    +0.076 C 
ATOM     10  C   UNL     1      -3.477   1.780  23.731  0.00  0.00    +0.026 C 
ATOM     11  C   UNL     1      -3.955   1.115  23.837  0.00  0.00    +0.073 C 
ATOM     12  N   UNL     1      -3.974   0.942  24.643  0.00  0.00    -0.269 NA
ATOM     24  C   UNL     1      -3.508   1.499  25.035  0.00  0.00    +0.080 C 
ENDROOT
BRANCH   9   7
ATOM      1  F   UNL     1      -1.315   5.793  25.377  0.00  0.00    -0.204 F 
ATOM      2  C   UNL     1      -1.415   4.998  25.180  0.00  0.00    +0.142 A 
ATOM      3  C   UNL     1      -2.173   4.681  25.117  0.00  0.00    +0.050 A 
ATOM      4  C   UNL     1      -2.274   3.886  24.920  0.00  0.00    +0.102 A 
ATOM      5  C   UNL     1      -1.614   3.409  24.785  0.00  0.00    +0.100 A 
ATOM      6  N   UNL     1      -1.881   2.651  24.601  0.00  0.00    -0.229 NA
ATOM      7  C   UNL     1      -2.706   2.659  24.621  0.00  0.00    +0.140 A 
ATOM      8  N   UNL     1      -2.947   3.423  24.819  0.00  0.00    -0.229 NA
ATOM     25  C   UNL     1      -0.855   3.727  24.848  0.00  0.00    +0.023 A 
ATOM     26  C   UNL     1      -0.756   4.521  25.045  0.00  0.00    +0.031 A 
ENDBRANCH   9   7
BRANCH  12  13
ATOM     13  C   UNL     1      -4.386   0.320  24.995  0.00  0.00    +0.099 C 
BRANCH  13  14
ATOM     14  C   UNL     1      -4.101  -0.452  24.933  0.00  0.00    -0.006 A 
ATOM     15  C   UNL     1      -3.618  -0.763  25.527  0.00  0.00    -0.003 A 
ATOM     16  C   UNL     1      -3.334  -1.535  25.464  0.00  0.00    +0.004 A 
ATOM     17  C   UNL     1      -3.532  -1.996  24.810  0.00  0.00    +0.071 A 
ATOM     18  C   UNL     1      -4.015  -1.685  24.216  0.00  0.00    +0.004 A 
ATOM     19  C   UNL     1      -4.299  -0.913  24.278  0.00  0.00    -0.003 A 
BRANCH  17  20
ATOM     20  C   UNL     1      -3.248  -2.767  24.748  0.00  0.00    +0.419 C 
ATOM     21  F   UNL     1      -2.963  -3.540  24.686  0.00  0.00    -0.166 F 
ATOM     22  F   UNL     1      -3.700  -2.987  25.403  0.00  0.00    -0.166 F 
ATOM     23  F   UNL     1      -2.796  -2.548  24.093  0.00  0.00    -0.166 F 
ENDBRANCH  17  20
ENDBRANCH  13  14
ENDBRANCH  12  13
TORSDOF 4
ENDMDL
MODEL 2
REMARK VINA RESULT:     -13.7      1.045      5.596
REMARK  Name = 
REMARK  4 active torsions:
REMARK  status: ('A' for Active; 'I' for Inactive)
REMARK    1  A    between atoms: C_7  and  C_9
REMARK    2  A    between atoms: N_12  and  C_13
REMARK    3  A    between atoms: C_13  and  C_14
REMARK    4  A    between atoms: C_17  and  C_20
REMARK                            x       y       z     vdW  Elec       q    Type
REMARK                         _______ _______ _______ _____ _____    ______ ____
ROOT
ATOM      9  C   UNL     1      -4.479   0.828  24.861  0.00  0.00    +0.076 C 
ATOM     10  C   UNL     1      -5.089   1.140  25.320  0.00  0.00    +0.026 C 
ATOM     11  C   UNL     1      -5.116   1.955  25.190  0.00  0.00    +0.073 C 
ATOM     12  N   UNL     1      -4.522   2.145  24.650  0.00  0.00    -0.269 NA
ATOM     24  C   UNL     1      -4.129   1.449  24.447  0.00  0.00    +0.080 C 
ENDROOT
BRANCH   9   7
ATOM      1  F   UNL     1      -3.708  -3.315  23.927  0.00  0.00    -0.204 F 
ATOM      2  C   UNL     1      -3.718  -2.596  24.329  0.00  0.00    +0.142 A 
ATOM      3  C   UNL     1      -4.089  -1.941  23.993  0.00  0.00    +0.050 A 
ATOM      4  C   UNL     1      -4.100  -1.220  24.395  0.00  0.00    +0.102 A 
ATOM      5  C   UNL     1      -3.740  -1.155  25.134  0.00  0.00    +0.100 A 
ATOM      6  N   UNL     1      -3.838  -0.381  25.399  0.00  0.00    -0.229 NA
ATOM      7  C   UNL     1      -4.259   0.034  24.823  0.00  0.00    +0.140 A 
ATOM      8  N   UNL     1      -4.421  -0.485  24.203  0.00  0.00    -0.229 NA
ATOM     25  C   UNL     1      -3.368  -1.811  25.471  0.00  0.00    +0.023 A 
ATOM     26  C   UNL     1      -3.358  -2.531  25.068  0.00  0.00    +0.031 A 
ENDBRANCH   9   7
BRANCH  12  13
ATOM     13  C   UNL     1      -4.352   2.900  24.364  0.00  0.00    +0.099 C 
BRANCH  13  14
ATOM     14  C   UNL     1      -3.670   3.293  24.615  0.00  0.00    -0.006 A 
ATOM     15  C   UNL     1      -3.683   3.739  25.309  0.00  0.00    -0.003 A 
ATOM     16  C   UNL     1      -3.002   4.131  25.559  0.00  0.00    +0.004 A 
ATOM     17  C   UNL     1      -2.309   4.078  25.116  0.00  0.00    +0.071 A 
ATOM     18  C   UNL     1      -2.296   3.632  24.421  0.00  0.00    +0.004 A 
ATOM     19  C   UNL     1      -2.977   3.239  24.170  0.00  0.00    -0.003 A 
BRANCH  17  20
ATOM     20  C   UNL     1      -1.628   4.471  25.366  0.00  0.00    +0.419 C 
ATOM     21  F   UNL     1      -0.947   4.863  25.618  0.00  0.00    -0.166 F 
ATOM     22  F   UNL     1      -1.377   3.787  25.755  0.00  0.00    -0.166 F 
ATOM     23  F   UNL     1      -1.879   5.153  24.978  0.00  0.00    -0.166 F 
ENDBRANCH  17  20
ENDBRANCH  13  14
ENDBRANCH  12  13
TORSDOF 4
ENDMDL
MODEL 3
REMARK VINA RESULT:     -13.2      1.539      5.926
REMARK  Name = 
REMARK  4 active torsions:
REMARK  status: ('A' for Active; 'I' for Inactive)
REMARK    1  A    between atoms: C_7  and  C_9
REMARK    2  A    between atoms: N_12  and  C_13
REMARK    3  A    between atoms: C_13  and  C_14
REMARK    4  A    between atoms: C_17  and  C_20
REMARK                            x       y       z     vdW  Elec       q    Type
REMARK                         _______ _______ _______ _____ _____    ______ ____
ROOT
ATOM      9  C   UNL     1      -1.453   0.294  24.772  0.00  0.00    +0.076 C 
ATOM     10  C   UNL     1      -0.778   0.407  24.313  0.00  0.00    +0.026 C 
ATOM     11  C   UNL     1      -0.349   1.033  24.636  0.00  0.00    +0.073 C 
ATOM     12  N   UNL     1      -0.761   1.309  25.296  0.00  0.00    -0.269 NA
ATOM     24  C   UNL     1      -1.443   0.852  25.380  0.00  0.00    +0.080 C 
ENDROOT
BRANCH   9   7
ATOM      1  F   UNL     1      -3.931  -3.219  24.380  0.00  0.00    -0.204 F 
ATOM      2  C   UNL     1      -3.685  -2.432  24.361  0.00  0.00    +0.142 A 
ATOM      3  C   UNL     1      -2.921  -2.233  24.599  0.00  0.00    +0.050 A 
ATOM      4  C   UNL     1      -2.674  -1.446  24.580  0.00  0.00    +0.102 A 
ATOM      5  C   UNL     1      -3.193  -0.857  24.323  0.00  0.00    +0.100 A 
ATOM      6  N   UNL     1      -2.799  -0.134  24.364  0.00  0.00    -0.229 NA
ATOM      7  C   UNL     1      -2.037  -0.275  24.646  0.00  0.00    +0.140 A 
ATOM      8  N   UNL     1      -1.960  -1.085  24.779  0.00  0.00    -0.229 NA
ATOM     25  C   UNL     1      -3.958  -1.057  24.086  0.00  0.00    +0.023 A 
ATOM     26  C   UNL     1      -4.203  -1.844  24.105  0.00  0.00    +0.031 A 
ENDBRANCH   9   7
BRANCH  12  13
ATOM     13  C   UNL     1      -0.531   1.931  25.786  0.00  0.00    +0.099 C 
BRANCH  13  14
ATOM     14  C   UNL     1      -0.764   2.703  25.610  0.00  0.00    -0.006 A 
ATOM     15  C   UNL     1      -0.330   3.153  25.071  0.00  0.00    -0.003 A 
ATOM     16  C   UNL     1      -0.564   3.924  24.896  0.00  0.00    +0.004 A 
ATOM     17  C   UNL     1      -1.230   4.246  25.259  0.00  0.00    +0.071 A 
ATOM     18  C   UNL     1      -1.665   3.797  25.798  0.00  0.00    +0.004 A 
ATOM     19  C   UNL     1      -1.432   3.025  25.974  0.00  0.00    -0.003 A 
BRANCH  17  20
ATOM     20  C   UNL     1      -1.463   5.018  25.083  0.00  0.00    +0.419 C 
ATOM     21  F   UNL     1      -1.697   5.790  24.908  0.00  0.00    -0.166 F 
ATOM     22  F   UNL     1      -2.250   4.771  25.043  0.00  0.00    -0.166 F 
ATOM     23  F   UNL     1      -0.678   5.264  25.123  0.00  0.00    -0.166 F 
ENDBRANCH  17  20
ENDBRANCH  13  14
ENDBRANCH  12  13
TORSDOF 4
ENDMDL
