MODEL 1
REMARK VINA RESULT:     -10.3      0.000      0.000
REMARK  Name = 
REMARK  7 active torsions:
REMARK  status: ('A' for Active; 'I' for Inactive)
REMARK    1  A    between atoms: O_2  and  C_3
REMARK    2  A    between atoms: C_7  and  C_8
REMARK    3  A    between atoms: C_8  and  N_9
REMARK    4  A    between atoms: N_9  and  C_10
REMARK    5  A    between atoms: C_10  and  C_11
REMARK    6  A    between atoms: C_11  and  C_12
REMARK    7  A    between atoms: C_15  and  C_17
REMARK                            x       y       z     vdW  Elec       q    Type
REMARK                         _______ _______ _______ _____ _____    ______ ____
ROOT
ATOM     10  C   UNL     1      -4.637   2.021  24.810  0.00  0.00    +0.120 C 
ATOM     21  C   UNL     1      -5.312   1.745  25.197  0.00  0.00    +0.161 C 
ATOM     22  O   UNL     1      -5.690   2.462  25.051  0.00  0.00    -0.351 OA
ATOM     23  C   UNL     1      -5.016   2.740  24.664  0.00  0.00    +0.161 C 
ENDROOT
BRANCH  10   9
ATOM      9  N   UNL     1      -4.258   1.303  24.957  0.00  0.00    -0.211 NA
BRANCH   9   8
ATOM      8  C   UNL     1      -4.672   0.594  24.877  0.00  0.00    +0.115 C 
BRANCH   8   7
ATOM      3  C   UNL     1      -3.901  -1.392  24.401  0.00  0.00    +0.138 A 
ATOM      4  C   UNL     1      -3.483  -1.566  25.091  0.00  0.00    +0.037 A 
ATOM      5  C   UNL     1      -3.462  -1.020  25.709  0.00  0.00    +0.003 A 
ATOM      6  C   UNL     1      -3.858  -0.300  25.637  0.00  0.00    -0.003 A 
ATOM      7  C   UNL     1      -4.276  -0.125  24.948  0.00  0.00    -0.002 A 
ATOM     24  C   UNL     1      -4.298  -0.671  24.329  0.00  0.00    +0.034 A 
BRANCH   3   2
ATOM      1  C   UNL     1      -3.883  -2.746  23.944  0.00  0.00    +0.252 C 
ATOM      2  O   UNL     1      -3.923  -1.937  23.782  0.00  0.00    -0.471 OA
ENDBRANCH   3   2
ENDBRANCH   8   7
ENDBRANCH   9   8
ENDBRANCH  10   9
BRANCH  10  11
ATOM     11  C   UNL     1      -3.963   2.299  24.424  0.00  0.00    +0.070 C 
BRANCH  11  12
ATOM     12  C   UNL     1      -3.451   2.818  24.807  0.00  0.00    +0.102 A 
ATOM     13  N   UNL     1      -3.602   3.212  25.517  0.00  0.00    -0.082 NA
ATOM     14  O   UNL     1      -2.942   3.673  25.698  0.00  0.00    -0.356 OA
ATOM     15  C   UNL     1      -2.384   3.563  25.101  0.00  0.00    +0.181 A 
ATOM     16  C   UNL     1      -2.698   3.035  24.551  0.00  0.00    +0.056 A 
BRANCH  15  17
ATOM     17  C   UNL     1      -1.640   3.920  25.062  0.00  0.00    +0.180 C 
ATOM     18  C   UNL     1      -0.897   4.277  25.022  0.00  0.00    +0.041 C 
ATOM     19  C   UNL     1      -1.952   4.608  25.394  0.00  0.00    +0.041 C 
ATOM     20  O   UNL     1      -1.329   3.233  24.730  0.00  0.00    -0.218 OA
ENDBRANCH  15  17
ENDBRANCH  11  12
ENDBRANCH  10  11
TORSDOF 7
ENDMDL
MODEL 2
REMARK VINA RESULT:     -10.0      0.834      4.349
REMARK  Name = 
REMARK  7 active torsions:
REMARK  status: ('A' for Active; 'I' for Inactive)
REMARK    1  A    between atoms: O_2  and  C_3
REMARK    2  A    between atoms: C_7  and  C_8
REMARK    3  A    between atoms: C_8  and  N_9
REMARK    4  A    between atoms: N_9  and  C_10
REMARK    5  A    between atoms: C_10  and  C_11
REMARK    6  A    between atoms: C_11  and  C_12
REMARK    7  A    between atoms: C_15  and  C_17
REMARK                            x       y       z     vdW  Elec       q    Type
REMARK                         _______ _______ _______ _____ _____    ______ ____
ROOT
ATOM     10  C   UNL     1      -4.659   1.956  24.920  0.00  0.00    +0.120 C 
ATOM     21  C   UNL     1      -4.995   2.536  25.401  0.00  0.00    +0.161 C 
ATOM     22  O   UNL     1      -5.746   2.243  25.232  0.00  0.00    -0.351 OA
ATOM     23  C   UNL     1      -5.413   1.663  24.750  0.00  0.00    +0.161 C 
ENDROOT
BRANCH  10   9
ATOM      9  N   UNL     1      -3.908   2.249  25.089  0.00  0.00    -0.211 NA
BRANCH   9   8
ATOM      8  C   UNL     1      -3.710   3.023  24.883  0.00  0.00    +0.115 C 
BRANCH   8   7
ATOM      3  C   UNL     1      -1.573   3.433  24.707  0.00  0.00    +0.138 A 
ATOM      4  C   UNL     1      -1.448   3.897  25.378  0.00  0.00    +0.037 A 
ATOM      5  C   UNL     1      -2.077   4.069  25.883  0.00  0.00    +0.003 A 
ATOM      6  C   UNL     1      -2.830   3.778  25.718  0.00  0.00    -0.003 A 
ATOM      7  C   UNL     1      -2.956   3.314  25.048  0.00  0.00    -0.002 A 
ATOM     24  C   UNL     1      -2.328   3.141  24.542  0.00  0.00    +0.034 A 
BRANCH   3   2
ATOM      1  C   UNL     1      -0.343   2.752  24.450  0.00  0.00    +0.252 C 
ATOM      2  O   UNL     1      -0.944   3.260  24.201  0.00  0.00    -0.471 OA
ENDBRANCH   3   2
ENDBRANCH   8   7
ENDBRANCH   9   8
ENDBRANCH  10   9
BRANCH  10  11
ATOM     11  C   UNL     1      -4.326   1.375  24.438  0.00  0.00    +0.070 C 
BRANCH  11  12
ATOM     12  C   UNL     1      -4.252   0.602  24.713  0.00  0.00    +0.102 A 
ATOM     13  N   UNL     1      -4.363   0.352  25.493  0.00  0.00    -0.082 NA
ATOM     14  O   UNL     1      -4.233  -0.462  25.519  0.00  0.00    -0.356 OA
ATOM     15  C   UNL     1      -4.043  -0.715  24.759  0.00  0.00    +0.181 A 
ATOM     16  C   UNL     1      -4.054  -0.058  24.260  0.00  0.00    +0.056 A 
BRANCH  15  17
ATOM     17  C   UNL     1      -3.871  -1.491  24.534  0.00  0.00    +0.180 C 
ATOM     18  C   UNL     1      -3.699  -2.266  24.310  0.00  0.00    +0.041 C 
ATOM     19  C   UNL     1      -3.311  -1.541  25.138  0.00  0.00    +0.041 C 
ATOM     20  O   UNL     1      -4.431  -1.440  23.931  0.00  0.00    -0.218 OA
ENDBRANCH  15  17
ENDBRANCH  11  12
ENDBRANCH  10  11
TORSDOF 7
ENDMDL
MODEL 3
REMARK VINA RESULT:      -9.3      1.839      4.874
REMARK  Name = 
REMARK  7 active torsions:
REMARK  status: ('A' for Active; 'I' for Inactive)
REMARK    1  A    between atoms: O_2  and  C_3
REMARK    2  A    between atoms: C_7  and  C_8
REMARK    3  A    between atoms: C_8  and  N_9
REMARK    4  A    between atoms: N_9  and  C_10
REMARK    5  A    between atoms: C_10  and  C_11
REMARK    6  A    between atoms: C_11  and  C_12
REMARK    7  A    between atoms: C_15  and  C_17
REMARK                            x       y       z     vdW  Elec       q    Type
REMARK                         _______ _______ _______ _____ _____    ______ ____
ROOT
ATOM     10  C   UNL     1      -1.120   1.234  24.498  0.00  0.00    +0.120 C 
ATOM     21  C   UNL     1      -0.455   1.684  24.691  0.00  0.00    +0.161 C 
ATOM     22  O   UNL     1       0.022   1.159  24.271  0.00  0.00    -0.351 OA
ATOM     23  C   UNL     1      -0.641   0.709  24.077  0.00  0.00    +0.161 C 
ENDROOT
BRANCH  10   9
ATOM      9  N   UNL     1      -1.598   1.759  24.919  0.00  0.00    -0.211 NA
BRANCH   9   8
ATOM      8  C   UNL     1      -1.640   2.551  24.693  0.00  0.00    +0.115 C 
BRANCH   8   7
ATOM      3  C   UNL     1      -3.444   3.669  25.202  0.00  0.00    +0.138 A 
ATOM      4  C   UNL     1      -3.184   4.092  25.861  0.00  0.00    +0.037 A 
ATOM      5  C   UNL     1      -2.409   4.001  26.130  0.00  0.00    +0.003 A 
ATOM      6  C   UNL     1      -1.895   3.488  25.741  0.00  0.00    -0.003 A 
ATOM      7  C   UNL     1      -2.154   3.064  25.082  0.00  0.00    -0.002 A 
ATOM     24  C   UNL     1      -2.929   3.155  24.812  0.00  0.00    +0.034 A 
BRANCH   3   2
ATOM      1  C   UNL     1      -4.851   3.536  25.414  0.00  0.00    +0.252 C 
ATOM      2  O   UNL     1      -4.219   3.759  24.932  0.00  0.00    -0.471 OA
ENDBRANCH   3   2
ENDBRANCH   8   7
ENDBRANCH   9   8
ENDBRANCH  10   9
BRANCH  10  11
ATOM     11  C   UNL     1      -1.784   0.784  24.305  0.00  0.00    +0.070 C 
BRANCH  11  12
ATOM     12  C   UNL     1      -1.942   0.085  24.712  0.00  0.00    +0.102 A 
ATOM     13  N   UNL     1      -1.576  -0.163  25.409  0.00  0.00    -0.082 NA
ATOM     14  O   UNL     1      -1.902  -0.891  25.622  0.00  0.00    -0.356 OA
ATOM     15  C   UNL     1      -2.467  -1.092  25.057  0.00  0.00    +0.181 A 
ATOM     16  C   UNL     1      -2.493  -0.489  24.494  0.00  0.00    +0.056 A 
BRANCH  15  17
ATOM     17  C   UNL     1      -2.929  -1.777  25.055  0.00  0.00    +0.180 C 
ATOM     18  C   UNL     1      -3.390  -2.461  25.053  0.00  0.00    +0.041 C 
ATOM     19  C   UNL     1      -3.489  -1.401  25.529  0.00  0.00    +0.041 C 
ATOM     20  O   UNL     1      -2.368  -2.153  24.582  0.00  0.00    -0.218 OA
ENDBRANCH  15  17
ENDBRANCH  11  12
ENDBRANCH  10  11
TORSDOF 7
ENDMDL
