MODEL 1
REMARK VINA RESULT:     -10.5      0.000      0.000
REMARK  Name = 
REMARK  7 active torsions:
REMARK  status: ('A' for Active; 'I' for Inactive)
REMARK    1  A    between atoms: C_2  and  C_4
REMARK    2  A    between atoms: C_6  and  C_7
REMARK    3  A    between atoms: C_7  and  C_8
REMARK    4  A    between atoms: N_10  and  C_11
REMARK    5  A    between atoms: C_11  and  C_12
REMARK    6  A    between atoms: C_21  and  C_22
REMARK    7  A    between atoms: C_22  and  C_23
REMARK                            x       y       z     vdW  Elec       q    Type
REMARK                         _______ _______ _______ _____ _____    ______ ____
ROOT
ATOM      4  C   UNL     1      -1.725   2.410  24.890  0.00  0.00    +0.005 C 
ATOM      5  C   UNL     1      -2.332   1.916  24.626  0.00  0.00    +0.005 C 
ATOM      6  C   UNL     1      -3.058   2.238  24.404  0.00  0.00    +0.027 C 
ATOM     18  C   UNL     1      -3.178   3.054  24.445  0.00  0.00    -0.048 C 
ATOM     19  C   UNL     1      -3.903   3.375  24.222  0.00  0.00    +0.026 C 
ATOM     20  C   UNL     1      -2.572   3.546  24.708  0.00  0.00    -0.034 C 
ATOM     21  C   UNL     1      -1.845   3.225  24.931  0.00  0.00    +0.037 C 
ENDROOT
BRANCH   4   2
ATOM      1  C   UNL     1      -0.423   1.937  24.542  0.00  0.00    +0.000 C 
ATOM      2  C   UNL     1      -0.999   2.087  25.113  0.00  0.00    +0.000 C 
ATOM      3  C   UNL     1      -0.850   1.915  25.905  0.00  0.00    +0.000 C 
ENDBRANCH   4   2
BRANCH   6   7
ATOM      7  C   UNL     1      -3.664   1.745  24.140  0.00  0.00    +0.091 C 
BRANCH   7   8
ATOM      8  C   UNL     1      -3.943   1.139  24.627  0.00  0.00    +0.242 C 
ATOM      9  O   UNL     1      -4.319   1.321  25.338  0.00  0.00    -0.273 OA
ATOM     10  N   UNL     1      -3.845   0.350  24.401  0.00  0.00    -0.200 NA
BRANCH  10  11
ATOM     11  C   UNL     1      -4.124  -0.254  24.888  0.00  0.00    +0.143 C 
BRANCH  11  12
ATOM     12  C   UNL     1      -3.971  -1.042  24.695  0.00  0.00    +0.019 A 
ATOM     13  C   UNL     1      -3.476  -1.495  25.173  0.00  0.00    +0.001 A 
ATOM     14  C   UNL     1      -3.322  -2.282  24.979  0.00  0.00    +0.020 A 
ATOM     15  C   UNL     1      -3.664  -2.615  24.307  0.00  0.00    +0.099 A 
ATOM     16  N   UNL     1      -4.159  -2.162  23.828  0.00  0.00    -0.243 NA
ATOM     17  C   UNL     1      -4.313  -1.375  24.021  0.00  0.00    +0.096 A 
ENDBRANCH  11  12
ENDBRANCH  10  11
ENDBRANCH   7   8
ENDBRANCH   6   7
BRANCH  21  22
ATOM     22  C   UNL     1      -1.239   3.718  25.195  0.00  0.00    +0.110 C 
BRANCH  22  23
ATOM     23  C   UNL     1      -1.332   4.537  25.166  0.00  0.00    +0.073 C 
ATOM     24  N   UNL     1      -1.424   5.356  25.136  0.00  0.00    -0.196 NA
ENDBRANCH  22  23
ENDBRANCH  21  22
TORSDOF 7
ENDMDL
MODEL 2
REMARK VINA RESULT:     -10.0      0.952      1.966
REMARK  Name = 
REMARK  7 active torsions:
REMARK  status: ('A' for Active; 'I' for Inactive)
REMARK    1  A    between atoms: C_2  and  C_4
REMARK    2  A    between atoms: C_6  and  C_7
REMARK    3  A    between atoms: C_7  and  C_8
REMARK    4  A    between atoms: N_10  and  C_11
REMARK    5  A    between atoms: C_11  and  C_12
REMARK    6  A    between atoms: C_21  and  C_22
REMARK    7  A    between atoms: C_22  and  C_23
REMARK                            x       y       z     vdW  Elec       q    Type
REMARK                         _______ _______ _______ _____ _____    ______ ____
ROOT
ATOM      4  C   UNL     1      -2.687   2.885  24.889  0.00  0.00    +0.005 C 
ATOM      5  C   UNL     1      -2.511   2.090  24.748  0.00  0.00    +0.005 C 
ATOM      6  C   UNL     1      -1.728   1.832  24.768  0.00  0.00    +0.027 C 
ATOM     18  C   UNL     1      -1.121   2.367  24.928  0.00  0.00    -0.048 C 
ATOM     19  C   UNL     1      -0.338   2.108  24.948  0.00  0.00    +0.026 C 
ATOM     20  C   UNL     1      -1.297   3.160  25.069  0.00  0.00    -0.034 C 
ATOM     21  C   UNL     1      -2.080   3.420  25.050  0.00  0.00    +0.037 C 
ENDROOT
BRANCH   4   2
ATOM      1  C   UNL     1      -3.888   3.245  25.574  0.00  0.00    +0.000 C 
ATOM      2  C   UNL     1      -3.470   3.143  24.869  0.00  0.00    +0.000 C 
ATOM      3  C   UNL     1      -3.835   3.298  24.147  0.00  0.00    +0.000 C 
ENDBRANCH   4   2
BRANCH   6   7
ATOM      7  C   UNL     1      -1.553   1.039  24.626  0.00  0.00    +0.091 C 
BRANCH   7   8
ATOM      8  C   UNL     1      -1.932   0.449  25.063  0.00  0.00    +0.242 C 
ATOM      9  O   UNL     1      -1.836   0.416  25.882  0.00  0.00    -0.273 OA
ATOM     10  N   UNL     1      -2.406  -0.108  24.680  0.00  0.00    -0.200 NA
BRANCH  10  11
ATOM     11  C   UNL     1      -2.784  -0.696  25.116  0.00  0.00    +0.143 C 
BRANCH  11  12
ATOM     12  C   UNL     1      -3.209  -1.288  24.728  0.00  0.00    +0.019 A 
ATOM     13  C   UNL     1      -3.898  -1.099  24.317  0.00  0.00    +0.001 A 
ATOM     14  C   UNL     1      -4.322  -1.691  23.929  0.00  0.00    +0.020 A 
ATOM     15  C   UNL     1      -4.056  -2.471  23.952  0.00  0.00    +0.099 A 
ATOM     16  N   UNL     1      -3.367  -2.660  24.363  0.00  0.00    -0.243 NA
ATOM     17  C   UNL     1      -2.943  -2.069  24.752  0.00  0.00    +0.096 A 
ENDBRANCH  11  12
ENDBRANCH  10  11
ENDBRANCH   7   8
ENDBRANCH   6   7
BRANCH  21  22
ATOM     22  C   UNL     1      -2.256   4.212  25.191  0.00  0.00    +0.110 C 
BRANCH  22  23
ATOM     23  C   UNL     1      -1.662   4.783  25.135  0.00  0.00    +0.073 C 
ATOM     24  N   UNL     1      -1.069   5.353  25.080  0.00  0.00    -0.196 NA
ENDBRANCH  22  23
ENDBRANCH  21  22
TORSDOF 7
ENDMDL
MODEL 3
REMARK VINA RESULT:     -10.0      1.530      5.178
REMARK  Name = 
REMARK  7 active torsions:
REMARK  status: ('A' for Active; 'I' for Inactive)
REMARK    1  A    between atoms: C_2  and  C_4
REMARK    2  A    between atoms: C_6  and  C_7
REMARK    3  A    between atoms: C_7  and  C_8
REMARK    4  A    between atoms: N_10  and  C_11
REMARK    5  A    between atoms: C_11  and  C_12
REMARK    6  A    between atoms: C_21  and  C_22
REMARK    7  A    between atoms: C_22  and  C_23
REMARK                            x       y       z     vdW  Elec       q    Type
REMARK                         _______ _______ _______ _____ _____    ______ ____
ROOT
ATOM      4  C   UNL     1      -3.148  -0.266  24.743  0.00  0.00    +0.005 C 
ATOM      5  C   UNL     1      -2.512   0.260  24.743  0.00  0.00    +0.005 C 
ATOM      6  C   UNL     1      -1.740  -0.027  24.724  0.00  0.00    +0.027 C 
ATOM     18  C   UNL     1      -1.602  -0.840  24.705  0.00  0.00    -0.048 C 
ATOM     19  C   UNL     1      -0.829  -1.127  24.687  0.00  0.00    +0.026 C 
ATOM     20  C   UNL     1      -2.237  -1.366  24.705  0.00  0.00    -0.034 C 
ATOM     21  C   UNL     1      -3.010  -1.080  24.724  0.00  0.00    +0.037 C 
ENDROOT
BRANCH   4   2
ATOM      1  C   UNL     1      -4.316   0.094  25.483  0.00  0.00    +0.000 C 
ATOM      2  C   UNL     1      -3.921   0.021  24.762  0.00  0.00    +0.000 C 
ATOM      3  C   UNL     1      -4.299   0.236  24.062  0.00  0.00    +0.000 C 
ENDBRANCH   4   2
BRANCH   6   7
ATOM      7  C   UNL     1      -1.105   0.499  24.724  0.00  0.00    +0.091 C 
BRANCH   7   8
ATOM      8  C   UNL     1      -1.049   1.078  25.311  0.00  0.00    +0.242 C 
ATOM      9  O   UNL     1      -0.922   0.858  26.096  0.00  0.00    -0.273 OA
ATOM     10  N   UNL     1      -1.120   1.876  25.112  0.00  0.00    -0.200 NA
BRANCH  10  11
ATOM     11  C   UNL     1      -1.064   2.453  25.698  0.00  0.00    +0.143 C 
BRANCH  11  12
ATOM     12  C   UNL     1      -1.205   3.244  25.512  0.00  0.00    +0.019 A 
ATOM     13  C   UNL     1      -1.916   3.599  25.730  0.00  0.00    +0.001 A 
ATOM     14  C   UNL     1      -2.057   4.391  25.543  0.00  0.00    +0.020 A 
ATOM     15  C   UNL     1      -1.485   4.826  25.137  0.00  0.00    +0.099 A 
ATOM     16  N   UNL     1      -0.774   4.471  24.919  0.00  0.00    -0.243 NA
ATOM     17  C   UNL     1      -0.633   3.680  25.106  0.00  0.00    +0.096 A 
ENDBRANCH  11  12
ENDBRANCH  10  11
ENDBRANCH   7   8
ENDBRANCH   6   7
BRANCH  21  22
ATOM     22  C   UNL     1      -3.645  -1.605  24.724  0.00  0.00    +0.110 C 
BRANCH  22  23
ATOM     23  C   UNL     1      -3.510  -2.415  24.643  0.00  0.00    +0.073 C 
ATOM     24  N   UNL     1      -3.376  -3.225  24.561  0.00  0.00    -0.196 NA
ENDBRANCH  22  23
ENDBRANCH  21  22
TORSDOF 7
ENDMDL
MODEL 4
REMARK VINA RESULT:      -9.9      1.226      4.787
REMARK  Name = 
REMARK  7 active torsions:
REMARK  status: ('A' for Active; 'I' for Inactive)
REMARK    1  A    between atoms: C_2  and  C_4
REMARK    2  A    between atoms: C_6  and  C_7
REMARK    3  A    between atoms: C_7  and  C_8
REMARK    4  A    between atoms: N_10  and  C_11
REMARK    5  A    between atoms: C_11  and  C_12
REMARK    6  A    between atoms: C_21  and  C_22
REMARK    7  A    between atoms: C_22  and  C_23
REMARK                            x       y       z     vdW  Elec       q    Type
REMARK                         _______ _______ _______ _____ _____    ______ ____
ROOT
ATOM      4  C   UNL     1      -2.449  -0.581  25.013  0.00  0.00    +0.005 C 
ATOM      5  C   UNL     1      -2.703   0.204  24.994  0.00  0.00    +0.005 C 
ATOM      6  C   UNL     1      -3.494   0.377  24.838  0.00  0.00    +0.027 C 
ATOM     18  C   UNL     1      -4.031  -0.234  24.701  0.00  0.00    -0.048 C 
ATOM     19  C   UNL     1      -4.822  -0.060  24.545  0.00  0.00    +0.026 C 
ATOM     20  C   UNL     1      -3.777  -1.018  24.721  0.00  0.00    -0.034 C 
ATOM     21  C   UNL     1      -2.986  -1.192  24.877  0.00  0.00    +0.037 C 
ENDROOT
BRANCH   4   2
ATOM      1  C   UNL     1      -1.127  -0.858  24.545  0.00  0.00    +0.000 C 
ATOM      2  C   UNL     1      -1.657  -0.754  25.170  0.00  0.00    +0.000 C 
ATOM      3  C   UNL     1      -1.396  -0.823  25.948  0.00  0.00    +0.000 C 
ENDBRANCH   4   2
BRANCH   6   7
ATOM      7  C   UNL     1      -3.747   1.162  24.818  0.00  0.00    +0.091 C 
BRANCH   7   8
ATOM      8  C   UNL     1      -3.337   1.716  24.364  0.00  0.00    +0.242 C 
ATOM      9  O   UNL     1      -3.313   1.641  23.543  0.00  0.00    -0.273 OA
ATOM     10  N   UNL     1      -2.950   2.346  24.732  0.00  0.00    -0.200 NA
BRANCH  10  11
ATOM     11  C   UNL     1      -2.540   2.900  24.279  0.00  0.00    +0.143 C 
BRANCH  11  12
ATOM     12  C   UNL     1      -2.115   3.501  24.649  0.00  0.00    +0.019 A 
ATOM     13  C   UNL     1      -1.291   3.492  24.637  0.00  0.00    +0.001 A 
ATOM     14  C   UNL     1      -0.865   4.094  25.008  0.00  0.00    +0.020 A 
ATOM     15  C   UNL     1      -1.266   4.705  25.391  0.00  0.00    +0.099 A 
ATOM     16  N   UNL     1      -2.090   4.715  25.403  0.00  0.00    -0.243 NA
ATOM     17  C   UNL     1      -2.515   4.113  25.033  0.00  0.00    +0.096 A 
ENDBRANCH  11  12
ENDBRANCH  10  11
ENDBRANCH   7   8
ENDBRANCH   6   7
BRANCH  21  22
ATOM     22  C   UNL     1      -2.732  -1.976  24.897  0.00  0.00    +0.110 C 
BRANCH  22  23
ATOM     23  C   UNL     1      -3.237  -2.579  24.648  0.00  0.00    +0.073 C 
ATOM     24  N   UNL     1      -3.741  -3.183  24.400  0.00  0.00    -0.196 NA
ENDBRANCH  22  23
ENDBRANCH  21  22
TORSDOF 7
ENDMDL
MODEL 5
REMARK VINA RESULT:      -9.6      2.017      4.208
REMARK  Name = 
REMARK  7 active torsions:
REMARK  status: ('A' for Active; 'I' for Inactive)
REMARK    1  A    between atoms: C_2  and  C_4
REMARK    2  A    between atoms: C_6  and  C_7
REMARK    3  A    between atoms: C_7  and  C_8
REMARK    4  A    between atoms: N_10  and  C_11
REMARK    5  A    between atoms: C_11  and  C_12
REMARK    6  A    between atoms: C_21  and  C_22
REMARK    7  A    between atoms: C_22  and  C_23
REMARK                            x       y       z     vdW  Elec       q    Type
REMARK                         _______ _______ _______ _____ _____    ______ ____
ROOT
ATOM      4  C   UNL     1      -1.813  -0.076  25.009  0.00  0.00    +0.005 C 
ATOM      5  C   UNL     1      -2.621   0.063  25.113  0.00  0.00    +0.005 C 
ATOM      6  C   UNL     1      -3.136  -0.571  25.226  0.00  0.00    +0.027 C 
ATOM     18  C   UNL     1      -2.846  -1.343  25.236  0.00  0.00    -0.048 C 
ATOM     19  C   UNL     1      -3.362  -1.976  25.349  0.00  0.00    +0.026 C 
ATOM     20  C   UNL     1      -2.040  -1.481  25.132  0.00  0.00    -0.034 C 
ATOM     21  C   UNL     1      -1.523  -0.848  25.019  0.00  0.00    +0.037 C 
ENDROOT
BRANCH   4   2
ATOM      1  C   UNL     1      -1.005   0.972  25.548  0.00  0.00    +0.000 C 
ATOM      2  C   UNL     1      -1.298   0.558  24.896  0.00  0.00    +0.000 C 
ATOM      3  C   UNL     1      -1.075   0.778  24.134  0.00  0.00    +0.000 C 
ENDBRANCH   4   2
BRANCH   6   7
ATOM      7  C   UNL     1      -3.943  -0.431  25.329  0.00  0.00    +0.091 C 
BRANCH   7   8
ATOM      8  C   UNL     1      -4.324   0.140  24.871  0.00  0.00    +0.242 C 
ATOM      9  O   UNL     1      -4.452   0.007  24.067  0.00  0.00    -0.273 OA
ATOM     10  N   UNL     1      -4.578   0.845  25.218  0.00  0.00    -0.200 NA
BRANCH  10  11
ATOM     11  C   UNL     1      -4.959   1.416  24.760  0.00  0.00    +0.143 C 
BRANCH  11  12
ATOM     12  C   UNL     1      -5.074   2.175  25.061  0.00  0.00    +0.019 A 
ATOM     13  C   UNL     1      -4.621   2.803  24.779  0.00  0.00    +0.001 A 
ATOM     14  C   UNL     1      -4.737   3.563  25.081  0.00  0.00    +0.020 A 
ATOM     15  C   UNL     1      -5.305   3.693  25.664  0.00  0.00    +0.099 A 
ATOM     16  N   UNL     1      -5.757   3.065  25.947  0.00  0.00    -0.243 NA
ATOM     17  C   UNL     1      -5.642   2.305  25.646  0.00  0.00    +0.096 A 
ENDBRANCH  11  12
ENDBRANCH  10  11
ENDBRANCH   7   8
ENDBRANCH   6   7
BRANCH  21  22
ATOM     22  C   UNL     1      -0.717  -0.986  24.916  0.00  0.00    +0.110 C 
BRANCH  22  23
ATOM     23  C   UNL     1      -0.383  -1.693  25.180  0.00  0.00    +0.073 C 
ATOM     24  N   UNL     1      -0.048  -2.399  25.445  0.00  0.00    -0.196 NA
ENDBRANCH  22  23
ENDBRANCH  21  22
TORSDOF 7
ENDMDL
MODEL 6
REMARK VINA RESULT:      -9.4      1.711      2.471
REMARK  Name = 
REMARK  7 active torsions:
REMARK  status: ('A' for Active; 'I' for Inactive)
REMARK    1  A    between atoms: C_2  and  C_4
REMARK    2  A    between atoms: C_6  and  C_7
REMARK    3  A    between atoms: C_7  and  C_8
REMARK    4  A    between atoms: N_10  and  C_11
REMARK    5  A    between atoms: C_11  and  C_12
REMARK    6  A    between atoms: C_21  and  C_22
REMARK    7  A    between atoms: C_22  and  C_23
REMARK                            x       y       z     vdW  Elec       q    Type
REMARK                         _______ _______ _______ _____ _____    ______ ____
ROOT
ATOM      4  C   UNL     1      -4.016   2.625  24.937  0.00  0.00    +0.005 C 
ATOM      5  C   UNL     1      -4.031   1.814  24.781  0.00  0.00    +0.005 C 
ATOM      6  C   UNL     1      -4.746   1.403  24.806  0.00  0.00    +0.027 C 
ATOM     18  C   UNL     1      -5.446   1.802  24.986  0.00  0.00    -0.048 C 
ATOM     19  C   UNL     1      -6.160   1.390  25.011  0.00  0.00    +0.026 C 
ATOM     20  C   UNL     1      -5.430   2.611  25.141  0.00  0.00    -0.034 C 
ATOM     21  C   UNL     1      -4.716   3.024  25.117  0.00  0.00    +0.037 C 
ENDROOT
BRANCH   4   2
ATOM      1  C   UNL     1      -3.016   3.322  24.192  0.00  0.00    +0.000 C 
ATOM      2  C   UNL     1      -3.302   3.036  24.911  0.00  0.00    +0.000 C 
ATOM      3  C   UNL     1      -2.873   3.160  25.604  0.00  0.00    +0.000 C 
ENDBRANCH   4   2
BRANCH   6   7
ATOM      7  C   UNL     1      -4.760   0.593  24.651  0.00  0.00    +0.091 C 
BRANCH   7   8
ATOM      8  C   UNL     1      -4.345   0.073  25.140  0.00  0.00    +0.242 C 
ATOM      9  O   UNL     1      -4.463   0.090  25.956  0.00  0.00    -0.273 OA
ATOM     10  N   UNL     1      -3.812  -0.465  24.810  0.00  0.00    -0.200 NA
BRANCH  10  11
ATOM     11  C   UNL     1      -3.397  -0.985  25.298  0.00  0.00    +0.143 C 
BRANCH  11  12
ATOM     12  C   UNL     1      -2.879  -1.535  24.968  0.00  0.00    +0.019 A 
ATOM     13  C   UNL     1      -3.163  -2.261  24.702  0.00  0.00    +0.001 A 
ATOM     14  C   UNL     1      -2.645  -2.812  24.371  0.00  0.00    +0.020 A 
ATOM     15  C   UNL     1      -1.842  -2.634  24.306  0.00  0.00    +0.099 A 
ATOM     16  N   UNL     1      -1.558  -1.907  24.572  0.00  0.00    -0.243 NA
ATOM     17  C   UNL     1      -2.075  -1.357  24.903  0.00  0.00    +0.096 A 
ENDBRANCH  11  12
ENDBRANCH  10  11
ENDBRANCH   7   8
ENDBRANCH   6   7
BRANCH  21  22
ATOM     22  C   UNL     1      -4.701   3.833  25.271  0.00  0.00    +0.110 C 
BRANCH  22  23
ATOM     23  C   UNL     1      -5.392   4.222  25.499  0.00  0.00    +0.073 C 
ATOM     24  N   UNL     1      -6.082   4.612  25.727  0.00  0.00    -0.196 NA
ENDBRANCH  22  23
ENDBRANCH  21  22
TORSDOF 7
ENDMDL
