MODEL 1
REMARK VINA RESULT:     -11.5      0.000      0.000
REMARK  Name = 
REMARK  6 active torsions:
REMARK  status: ('A' for Active; 'I' for Inactive)
REMARK    1  A    between atoms: C_2  and  C_3
REMARK    2  A    between atoms: C_5  and  C_6
REMARK    3  A    between atoms: C_6  and  N_7
REMARK    4  A    between atoms: C_8  and  C_10
REMARK    5  A    between atoms: C_19  and  N_22
REMARK    6  A    between atoms: N_25  and  C_28
REMARK                            x       y       z     vdW  Elec       q    Type
REMARK                         _______ _______ _______ _____ _____    ______ ____
ROOT
ATOM      3  C   UNL     1      -5.864   2.188  25.687  0.00  0.00    +0.180 C 
ATOM      4  O   UNL     1      -5.523   1.580  25.245  0.00  0.00    -0.350 OA
ATOM      5  C   UNL     1      -4.764   1.818  25.028  0.00  0.00    +0.154 C 
ATOM     19  C   UNL     1      -4.636   2.572  25.335  0.00  0.00    +0.120 C 
ATOM     20  C   UNL     1      -5.316   2.801  25.742  0.00  0.00    +0.198 C 
ATOM     21  O   UNL     1      -5.428   3.517  26.136  0.00  0.00    -0.219 OA
ENDROOT
BRANCH  19  22
ATOM     22  N   UNL     1      -3.949   3.021  25.250  0.00  0.00    -0.267 NA
ATOM     23  C   UNL     1      -3.374   3.010  25.842  0.00  0.00    +0.094 C 
ATOM     24  C   UNL     1      -2.687   3.458  25.759  0.00  0.00    +0.108 C 
ATOM     25  N   UNL     1      -2.574   3.918  25.083  0.00  0.00    -0.305 N 
ATOM     26  C   UNL     1      -3.148   3.929  24.490  0.00  0.00    +0.108 C 
ATOM     27  C   UNL     1      -3.836   3.480  24.574  0.00  0.00    +0.094 C 
BRANCH  25  28
ATOM     28  C   UNL     1      -1.886   4.366  24.999  0.00  0.00    +0.048 A 
ATOM     29  C   UNL     1      -1.172   3.995  24.817  0.00  0.00    +0.015 A 
ATOM     30  C   UNL     1      -0.484   4.444  24.733  0.00  0.00    +0.001 A 
ATOM     31  C   UNL     1      -0.511   5.263  24.831  0.00  0.00    +0.000 A 
ATOM     32  C   UNL     1      -1.225   5.633  25.013  0.00  0.00    +0.001 A 
ATOM     33  C   UNL     1      -1.913   5.185  25.097  0.00  0.00    +0.015 A 
ENDBRANCH  25  28
ENDBRANCH  19  22
BRANCH   3   2
ATOM      1  O   UNL     1      -6.839   1.584  26.540  0.00  0.00    -0.218 OA
ATOM      2  C   UNL     1      -6.621   2.182  26.015  0.00  0.00    +0.214 C 
ENDBRANCH   3   2
BRANCH   5   6
ATOM      6  C   UNL     1      -4.227   1.379  24.582  0.00  0.00    +0.146 C 
BRANCH   6   7
ATOM      7  N   UNL     1      -4.228   0.554  24.629  0.00  0.00    -0.199 NA
ATOM      8  C   UNL     1      -3.764   0.111  24.111  0.00  0.00    +0.265 C 
ATOM      9  O   UNL     1      -3.299   0.492  23.546  0.00  0.00    -0.268 OA
BRANCH   8  10
ATOM     10  C   UNL     1      -3.765  -0.712  24.158  0.00  0.00    +0.057 A 
ATOM     11  C   UNL     1      -3.162  -1.103  24.563  0.00  0.00    +0.025 A 
ATOM     12  C   UNL     1      -3.163  -1.926  24.611  0.00  0.00    +0.101 A 
ATOM     13  C   UNL     1      -3.767  -2.359  24.253  0.00  0.00    +0.101 A 
ATOM     14  C   UNL     1      -4.371  -1.968  23.848  0.00  0.00    +0.021 A 
ATOM     15  C   UNL     1      -4.369  -1.145  23.801  0.00  0.00    +0.006 A 
ATOM     16  N   UNL     1      -3.624  -3.159  24.391  0.00  0.00    -0.222 NA
ATOM     17  C   UNL     1      -2.931  -3.222  24.834  0.00  0.00    +0.199 A 
ATOM     18  N   UNL     1      -2.646  -2.459  24.969  0.00  0.00    -0.222 NA
ENDBRANCH   8  10
ENDBRANCH   6   7
ENDBRANCH   5   6
TORSDOF 6
ENDMDL
MODEL 2
REMARK VINA RESULT:     -10.3      2.471      4.037
REMARK  Name = 
REMARK  6 active torsions:
REMARK  status: ('A' for Active; 'I' for Inactive)
REMARK    1  A    between atoms: C_2  and  C_3
REMARK    2  A    between atoms: C_5  and  C_6
REMARK    3  A    between atoms: C_6  and  N_7
REMARK    4  A    between atoms: C_8  and  C_10
REMARK    5  A    between atoms: C_19  and  N_22
REMARK    6  A    between atoms: N_25  and  C_28
REMARK                            x       y       z     vdW  Elec       q    Type
REMARK                         _______ _______ _______ _____ _____    ______ ____
ROOT
ATOM      3  C   UNL     1       0.854   0.172  23.513  0.00  0.00    +0.180 C 
ATOM      4  O   UNL     1       0.271  -0.249  23.919  0.00  0.00    -0.350 OA
ATOM      5  C   UNL     1      -0.234   0.296  24.275  0.00  0.00    +0.154 C 
ATOM     19  C   UNL     1       0.035   1.053  24.091  0.00  0.00    +0.120 C 
ATOM     20  C   UNL     1       0.708   0.977  23.620  0.00  0.00    +0.198 C 
ATOM     21  O   UNL     1       1.156   1.595  23.310  0.00  0.00    -0.219 OA
ENDROOT
BRANCH  19  22
ATOM     22  N   UNL     1      -0.307   1.763  24.334  0.00  0.00    -0.267 NA
ATOM     23  C   UNL     1      -0.878   2.128  23.863  0.00  0.00    +0.094 C 
ATOM     24  C   UNL     1      -1.220   2.838  24.105  0.00  0.00    +0.108 C 
ATOM     25  N   UNL     1      -0.992   3.183  24.819  0.00  0.00    -0.305 N 
ATOM     26  C   UNL     1      -0.422   2.819  25.290  0.00  0.00    +0.108 C 
ATOM     27  C   UNL     1      -0.079   2.109  25.048  0.00  0.00    +0.094 C 
BRANCH  25  28
ATOM     28  C   UNL     1      -1.335   3.894  25.061  0.00  0.00    +0.048 A 
ATOM     29  C   UNL     1      -0.980   4.612  24.862  0.00  0.00    +0.015 A 
ATOM     30  C   UNL     1      -1.323   5.322  25.105  0.00  0.00    +0.001 A 
ATOM     31  C   UNL     1      -2.020   5.315  25.545  0.00  0.00    +0.000 A 
ATOM     32  C   UNL     1      -2.375   4.597  25.744  0.00  0.00    +0.001 A 
ATOM     33  C   UNL     1      -2.032   3.886  25.502  0.00  0.00    +0.015 A 
ENDBRANCH  25  28
ENDBRANCH  19  22
BRANCH   3   2
ATOM      1  O   UNL     1       1.315  -0.577  22.387  0.00  0.00    -0.218 OA
ATOM      2  C   UNL     1       1.473  -0.156  23.078  0.00  0.00    +0.214 C 
ENDBRANCH   3   2
BRANCH   5   6
ATOM      6  C   UNL     1      -0.894   0.115  24.736  0.00  0.00    +0.146 C 
BRANCH   6   7
ATOM      7  N   UNL     1      -1.405  -0.491  24.506  0.00  0.00    -0.199 NA
ATOM      8  C   UNL     1      -1.960  -0.788  25.040  0.00  0.00    +0.265 C 
ATOM      9  O   UNL     1      -2.005  -0.478  25.803  0.00  0.00    -0.268 OA
BRANCH   8  10
ATOM     10  C   UNL     1      -2.470  -1.393  24.810  0.00  0.00    +0.057 A 
ATOM     11  C   UNL     1      -3.173  -1.214  24.418  0.00  0.00    +0.025 A 
ATOM     12  C   UNL     1      -3.684  -1.820  24.187  0.00  0.00    +0.101 A 
ATOM     13  C   UNL     1      -3.491  -2.605  24.349  0.00  0.00    +0.101 A 
ATOM     14  C   UNL     1      -2.787  -2.785  24.742  0.00  0.00    +0.021 A 
ATOM     15  C   UNL     1      -2.277  -2.179  24.972  0.00  0.00    +0.006 A 
ATOM     16  N   UNL     1      -4.097  -3.082  24.058  0.00  0.00    -0.222 NA
ATOM     17  C   UNL     1      -4.665  -2.592  23.716  0.00  0.00    +0.199 A 
ATOM     18  N   UNL     1      -4.409  -1.812  23.796  0.00  0.00    -0.222 NA
ENDBRANCH   8  10
ENDBRANCH   6   7
ENDBRANCH   5   6
TORSDOF 6
ENDMDL
MODEL 3
REMARK VINA RESULT:     -10.1      1.109      5.471
REMARK  Name = 
REMARK  6 active torsions:
REMARK  status: ('A' for Active; 'I' for Inactive)
REMARK    1  A    between atoms: C_2  and  C_3
REMARK    2  A    between atoms: C_5  and  C_6
REMARK    3  A    between atoms: C_6  and  N_7
REMARK    4  A    between atoms: C_8  and  C_10
REMARK    5  A    between atoms: C_19  and  N_22
REMARK    6  A    between atoms: N_25  and  C_28
REMARK                            x       y       z     vdW  Elec       q    Type
REMARK                         _______ _______ _______ _____ _____    ______ ____
ROOT
ATOM      3  C   UNL     1      -5.320   2.502  25.278  0.00  0.00    +0.180 C 
ATOM      4  O   UNL     1      -4.523   2.713  25.323  0.00  0.00    -0.350 OA
ATOM      5  C   UNL     1      -4.072   2.035  25.198  0.00  0.00    +0.154 C 
ATOM     19  C   UNL     1      -4.588   1.404  25.075  0.00  0.00    +0.120 C 
ATOM     20  C   UNL     1      -5.360   1.692  25.125  0.00  0.00    +0.198 C 
ATOM     21  O   UNL     1      -6.049   1.250  25.036  0.00  0.00    -0.219 OA
ENDROOT
BRANCH  19  22
ATOM     22  N   UNL     1      -4.373   0.621  24.929  0.00  0.00    -0.267 NA
ATOM     23  C   UNL     1      -4.285   0.094  25.557  0.00  0.00    +0.094 C 
ATOM     24  C   UNL     1      -4.069  -0.689  25.412  0.00  0.00    +0.108 C 
ATOM     25  N   UNL     1      -3.942  -0.945  24.638  0.00  0.00    -0.305 N 
ATOM     26  C   UNL     1      -4.029  -0.418  24.010  0.00  0.00    +0.108 C 
ATOM     27  C   UNL     1      -4.245   0.366  24.155  0.00  0.00    +0.094 C 
BRANCH  25  28
ATOM     28  C   UNL     1      -3.726  -1.728  24.493  0.00  0.00    +0.048 A 
ATOM     29  C   UNL     1      -3.011  -2.019  24.784  0.00  0.00    +0.015 A 
ATOM     30  C   UNL     1      -2.796  -2.803  24.638  0.00  0.00    +0.001 A 
ATOM     31  C   UNL     1      -3.295  -3.294  24.202  0.00  0.00    +0.000 A 
ATOM     32  C   UNL     1      -4.010  -3.002  23.911  0.00  0.00    +0.001 A 
ATOM     33  C   UNL     1      -4.225  -2.219  24.057  0.00  0.00    +0.015 A 
ENDBRANCH  25  28
ENDBRANCH  19  22
BRANCH   3   2
ATOM      1  O   UNL     1      -5.868   3.727  25.767  0.00  0.00    -0.218 OA
ATOM      2  C   UNL     1      -5.962   3.010  25.369  0.00  0.00    +0.214 C 
ENDBRANCH   3   2
BRANCH   5   6
ATOM      6  C   UNL     1      -3.248   1.994  25.196  0.00  0.00    +0.146 C 
BRANCH   6   7
ATOM      7  N   UNL     1      -2.802   2.674  25.052  0.00  0.00    -0.199 NA
ATOM      8  C   UNL     1      -1.987   2.667  25.180  0.00  0.00    +0.265 C 
ATOM      9  O   UNL     1      -1.618   1.980  25.452  0.00  0.00    -0.268 OA
BRANCH   8  10
ATOM     10  C   UNL     1      -1.541   3.345  25.036  0.00  0.00    +0.057 A 
ATOM     11  C   UNL     1      -1.857   4.089  25.201  0.00  0.00    +0.025 A 
ATOM     12  C   UNL     1      -1.411   4.768  25.057  0.00  0.00    +0.101 A 
ATOM     13  C   UNL     1      -0.649   4.703  24.748  0.00  0.00    +0.101 A 
ATOM     14  C   UNL     1      -0.332   3.959  24.583  0.00  0.00    +0.021 A 
ATOM     15  C   UNL     1      -0.779   3.280  24.727  0.00  0.00    +0.006 A 
ATOM     16  N   UNL     1      -0.342   5.464  24.664  0.00  0.00    -0.222 NA
ATOM     17  C   UNL     1      -0.914   5.999  24.921  0.00  0.00    +0.199 A 
ATOM     18  N   UNL     1      -1.575   5.569  25.164  0.00  0.00    -0.222 NA
ENDBRANCH   8  10
ENDBRANCH   6   7
ENDBRANCH   5   6
TORSDOF 6
ENDMDL
MODEL 4
REMARK VINA RESULT:      -9.0      2.196      3.786
REMARK  Name = 
REMARK  6 active torsions:
REMARK  status: ('A' for Active; 'I' for Inactive)
REMARK    1  A    between atoms: C_2  and  C_3
REMARK    2  A    between atoms: C_5  and  C_6
REMARK    3  A    between atoms: C_6  and  N_7
REMARK    4  A    between atoms: C_8  and  C_10
REMARK    5  A    between atoms: C_19  and  N_22
REMARK    6  A    between atoms: N_25  and  C_28
REMARK                            x       y       z     vdW  Elec       q    Type
REMARK                         _______ _______ _______ _____ _____    ______ ____
ROOT
ATOM      3  C   UNL     1       0.147   1.914  24.291  0.00  0.00    +0.180 C 
ATOM      4  O   UNL     1      -0.043   1.230  24.712  0.00  0.00    -0.350 OA
ATOM      5  C   UNL     1      -0.821   1.302  24.975  0.00  0.00    +0.154 C 
ATOM     19  C   UNL     1      -1.112   2.029  24.718  0.00  0.00    +0.120 C 
ATOM     20  C   UNL     1      -0.513   2.408  24.295  0.00  0.00    +0.198 C 
ATOM     21  O   UNL     1      -0.566   3.149  23.939  0.00  0.00    -0.219 OA
ENDROOT
BRANCH  19  22
ATOM     22  N   UNL     1      -1.868   2.327  24.858  0.00  0.00    -0.267 NA
ATOM     23  C   UNL     1      -2.461   2.228  24.293  0.00  0.00    +0.094 C 
ATOM     24  C   UNL     1      -3.217   2.526  24.432  0.00  0.00    +0.108 C 
ATOM     25  N   UNL     1      -3.381   2.922  25.137  0.00  0.00    -0.305 N 
ATOM     26  C   UNL     1      -2.789   3.021  25.702  0.00  0.00    +0.108 C 
ATOM     27  C   UNL     1      -2.032   2.723  25.563  0.00  0.00    +0.094 C 
BRANCH  25  28
ATOM     28  C   UNL     1      -4.138   3.220  25.276  0.00  0.00    +0.048 A 
ATOM     29  C   UNL     1      -4.762   2.704  25.434  0.00  0.00    +0.015 A 
ATOM     30  C   UNL     1      -5.519   3.002  25.574  0.00  0.00    +0.001 A 
ATOM     31  C   UNL     1      -5.651   3.816  25.555  0.00  0.00    +0.000 A 
ATOM     32  C   UNL     1      -5.028   4.332  25.397  0.00  0.00    +0.001 A 
ATOM     33  C   UNL     1      -4.271   4.034  25.257  0.00  0.00    +0.015 A 
ENDBRANCH  25  28
ENDBRANCH  19  22
BRANCH   3   2
ATOM      1  O   UNL     1       1.465   1.502  23.922  0.00  0.00    -0.218 OA
ATOM      2  C   UNL     1       0.871   2.075  23.930  0.00  0.00    +0.214 C 
ENDBRANCH   3   2
BRANCH   5   6
ATOM      6  C   UNL     1      -1.236   0.743  25.419  0.00  0.00    +0.146 C 
BRANCH   6   7
ATOM      7  N   UNL     1      -1.536   0.066  25.053  0.00  0.00    -0.199 NA
ATOM      8  C   UNL     1      -1.728  -0.596  25.506  0.00  0.00    +0.265 C 
ATOM      9  O   UNL     1      -1.619  -0.582  26.324  0.00  0.00    -0.268 OA
BRANCH   8  10
ATOM     10  C   UNL     1      -2.028  -1.272  25.141  0.00  0.00    +0.057 A 
ATOM     11  C   UNL     1      -2.841  -1.356  25.034  0.00  0.00    +0.025 A 
ATOM     12  C   UNL     1      -3.142  -2.033  24.669  0.00  0.00    +0.101 A 
ATOM     13  C   UNL     1      -2.628  -2.624  24.411  0.00  0.00    +0.101 A 
ATOM     14  C   UNL     1      -1.814  -2.540  24.518  0.00  0.00    +0.021 A 
ATOM     15  C   UNL     1      -1.514  -1.864  24.883  0.00  0.00    +0.006 A 
ATOM     16  N   UNL     1      -3.080  -3.224  24.072  0.00  0.00    -0.222 NA
ATOM     17  C   UNL     1      -3.874  -3.004  24.121  0.00  0.00    +0.199 A 
ATOM     18  N   UNL     1      -3.911  -2.268  24.490  0.00  0.00    -0.222 NA
ENDBRANCH   8  10
ENDBRANCH   6   7
ENDBRANCH   5   6
TORSDOF 6
ENDMDL
MODEL 5
REMARK VINA RESULT:      -8.9      2.825      6.697
REMARK  Name = 
REMARK  6 active torsions:
REMARK  status: ('A' for Active; 'I' for Inactive)
REMARK    1  A    between atoms: C_2  and  C_3
REMARK    2  A    between atoms: C_5  and  C_6
REMARK    3  A    between atoms: C_6  and  N_7
REMARK    4  A    between atoms: C_8  and  C_10
REMARK    5  A    between atoms: C_19  and  N_22
REMARK    6  A    between atoms: N_25  and  C_28
REMARK                            x       y       z     vdW  Elec       q    Type
REMARK                         _______ _______ _______ _____ _____    ______ ____
ROOT
ATOM      3  C   UNL     1       1.294   0.660  23.361  0.00  0.00    +0.180 C 
ATOM      4  O   UNL     1       1.071   1.211  23.933  0.00  0.00    -0.350 OA
ATOM      5  C   UNL     1       0.388   0.933  24.301  0.00  0.00    +0.154 C 
ATOM     19  C   UNL     1       0.189   0.211  23.958  0.00  0.00    +0.120 C 
ATOM     20  C   UNL     1       0.749   0.041  23.376  0.00  0.00    +0.198 C 
ATOM     21  O   UNL     1       0.763  -0.628  22.895  0.00  0.00    -0.219 OA
ENDROOT
BRANCH  19  22
ATOM     22  N   UNL     1      -0.457  -0.262  24.159  0.00  0.00    -0.267 NA
ATOM     23  C   UNL     1      -1.191  -0.128  23.807  0.00  0.00    +0.094 C 
ATOM     24  C   UNL     1      -1.837  -0.599  24.007  0.00  0.00    +0.108 C 
ATOM     25  N   UNL     1      -1.749  -1.206  24.560  0.00  0.00    -0.305 N 
ATOM     26  C   UNL     1      -1.016  -1.340  24.912  0.00  0.00    +0.108 C 
ATOM     27  C   UNL     1      -0.369  -0.868  24.711  0.00  0.00    +0.094 C 
BRANCH  25  28
ATOM     28  C   UNL     1      -2.396  -1.678  24.760  0.00  0.00    +0.048 A 
ATOM     29  C   UNL     1      -2.932  -1.421  25.332  0.00  0.00    +0.015 A 
ATOM     30  C   UNL     1      -3.579  -1.893  25.533  0.00  0.00    +0.001 A 
ATOM     31  C   UNL     1      -3.688  -2.621  25.161  0.00  0.00    +0.000 A 
ATOM     32  C   UNL     1      -3.152  -2.879  24.590  0.00  0.00    +0.001 A 
ATOM     33  C   UNL     1      -2.506  -2.406  24.389  0.00  0.00    +0.015 A 
ENDBRANCH  25  28
ENDBRANCH  19  22
BRANCH   3   2
ATOM      1  O   UNL     1       2.632   1.101  23.120  0.00  0.00    -0.218 OA
ATOM      2  C   UNL     1       1.948   0.718  22.862  0.00  0.00    +0.214 C 
ENDBRANCH   3   2
BRANCH   5   6
ATOM      6  C   UNL     1      -0.025   1.311  24.907  0.00  0.00    +0.146 C 
BRANCH   6   7
ATOM      7  N   UNL     1      -0.291   2.086  24.804  0.00  0.00    -0.199 NA
ATOM      8  C   UNL     1      -0.522   2.533  25.458  0.00  0.00    +0.265 C 
ATOM      9  O   UNL     1      -0.487   2.205  26.214  0.00  0.00    -0.268 OA
BRANCH   8  10
ATOM     10  C   UNL     1      -0.788   3.306  25.355  0.00  0.00    +0.057 A 
ATOM     11  C   UNL     1      -1.552   3.514  25.585  0.00  0.00    +0.025 A 
ATOM     12  C   UNL     1      -1.819   4.288  25.482  0.00  0.00    +0.101 A 
ATOM     13  C   UNL     1      -1.321   4.855  25.149  0.00  0.00    +0.101 A 
ATOM     14  C   UNL     1      -0.555   4.647  24.918  0.00  0.00    +0.021 A 
ATOM     15  C   UNL     1      -0.290   3.873  25.021  0.00  0.00    +0.006 A 
ATOM     16  N   UNL     1      -1.732   5.568  25.116  0.00  0.00    -0.222 NA
ATOM     17  C   UNL     1      -2.485   5.443  25.428  0.00  0.00    +0.199 A 
ATOM     18  N   UNL     1      -2.538   4.652  25.655  0.00  0.00    -0.222 NA
ENDBRANCH   8  10
ENDBRANCH   6   7
ENDBRANCH   5   6
TORSDOF 6
ENDMDL
MODEL 6
REMARK VINA RESULT:      -8.9      4.069      6.200
REMARK  Name = 
REMARK  6 active torsions:
REMARK  status: ('A' for Active; 'I' for Inactive)
REMARK    1  A    between atoms: C_2  and  C_3
REMARK    2  A    between atoms: C_5  and  C_6
REMARK    3  A    between atoms: C_6  and  N_7
REMARK    4  A    between atoms: C_8  and  C_10
REMARK    5  A    between atoms: C_19  and  N_22
REMARK    6  A    between atoms: N_25  and  C_28
REMARK                            x       y       z     vdW  Elec       q    Type
REMARK                         _______ _______ _______ _____ _____    ______ ____
ROOT
ATOM      3  C   UNL     1      -0.288   2.087  25.358  0.00  0.00    +0.180 C 
ATOM      4  O   UNL     1       0.190   1.757  24.771  0.00  0.00    -0.350 OA
ATOM      5  C   UNL     1      -0.198   1.095  24.470  0.00  0.00    +0.154 C 
ATOM     19  C   UNL     1      -0.914   1.014  24.870  0.00  0.00    +0.120 C 
ATOM     20  C   UNL     1      -0.970   1.628  25.419  0.00  0.00    +0.198 C 
ATOM     21  O   UNL     1      -1.597   1.759  25.938  0.00  0.00    -0.219 OA
ENDROOT
BRANCH  19  22
ATOM     22  N   UNL     1      -1.477   0.425  24.745  0.00  0.00    -0.267 NA
ATOM     23  C   UNL     1      -2.086   0.545  24.201  0.00  0.00    +0.094 C 
ATOM     24  C   UNL     1      -2.649  -0.044  24.075  0.00  0.00    +0.108 C 
ATOM     25  N   UNL     1      -2.604  -0.754  24.492  0.00  0.00    -0.305 N 
ATOM     26  C   UNL     1      -1.996  -0.875  25.036  0.00  0.00    +0.108 C 
ATOM     27  C   UNL     1      -1.432  -0.285  25.162  0.00  0.00    +0.094 C 
BRANCH  25  28
ATOM     28  C   UNL     1      -3.168  -1.343  24.366  0.00  0.00    +0.048 A 
ATOM     29  C   UNL     1      -3.003  -2.123  24.579  0.00  0.00    +0.015 A 
ATOM     30  C   UNL     1      -3.567  -2.712  24.453  0.00  0.00    +0.001 A 
ATOM     31  C   UNL     1      -4.295  -2.522  24.115  0.00  0.00    +0.000 A 
ATOM     32  C   UNL     1      -4.459  -1.742  23.902  0.00  0.00    +0.001 A 
ATOM     33  C   UNL     1      -3.896  -1.152  24.028  0.00  0.00    +0.015 A 
ENDBRANCH  25  28
ENDBRANCH  19  22
BRANCH   3   2
ATOM      1  O   UNL     1       0.560   2.773  26.281  0.00  0.00    -0.218 OA
ATOM      2  C   UNL     1      -0.113   2.758  25.804  0.00  0.00    +0.214 C 
ENDBRANCH   3   2
BRANCH   5   6
ATOM      6  C   UNL     1       0.082   0.599  23.873  0.00  0.00    +0.146 C 
BRANCH   6   7
ATOM      7  N   UNL     1       0.857   0.680  23.599  0.00  0.00    -0.199 NA
ATOM      8  C   UNL     1       1.166   0.129  23.069  0.00  0.00    +0.265 C 
ATOM      9  O   UNL     1       0.701  -0.503  22.813  0.00  0.00    -0.268 OA
BRANCH   8  10
ATOM     10  C   UNL     1       1.940   0.210  22.795  0.00  0.00    +0.057 A 
ATOM     11  C   UNL     1       2.521   0.525  23.287  0.00  0.00    +0.025 A 
ATOM     12  C   UNL     1       3.295   0.606  23.014  0.00  0.00    +0.101 A 
ATOM     13  C   UNL     1       3.488   0.371  22.247  0.00  0.00    +0.101 A 
ATOM     14  C   UNL     1       2.906   0.055  21.753  0.00  0.00    +0.021 A 
ATOM     15  C   UNL     1       2.132  -0.025  22.028  0.00  0.00    +0.006 A 
ATOM     16  N   UNL     1       4.291   0.516  22.130  0.00  0.00    -0.222 NA
ATOM     17  C   UNL     1       4.595   0.841  22.824  0.00  0.00    +0.199 A 
ATOM     18  N   UNL     1       3.979   0.896  23.370  0.00  0.00    -0.222 NA
ENDBRANCH   8  10
ENDBRANCH   6   7
ENDBRANCH   5   6
TORSDOF 6
ENDMDL
MODEL 7
REMARK VINA RESULT:      -8.8      3.319      4.959
REMARK  Name = 
REMARK  6 active torsions:
REMARK  status: ('A' for Active; 'I' for Inactive)
REMARK    1  A    between atoms: C_2  and  C_3
REMARK    2  A    between atoms: C_5  and  C_6
REMARK    3  A    between atoms: C_6  and  N_7
REMARK    4  A    between atoms: C_8  and  C_10
REMARK    5  A    between atoms: C_19  and  N_22
REMARK    6  A    between atoms: N_25  and  C_28
REMARK                            x       y       z     vdW  Elec       q    Type
REMARK                         _______ _______ _______ _____ _____    ______ ____
ROOT
ATOM      3  C   UNL     1      -2.023  -1.719  24.574  0.00  0.00    +0.180 C 
ATOM      4  O   UNL     1      -1.343  -1.293  24.379  0.00  0.00    -0.350 OA
ATOM      5  C   UNL     1      -1.535  -0.491  24.387  0.00  0.00    +0.154 C 
ATOM     19  C   UNL     1      -2.332  -0.421  24.586  0.00  0.00    +0.120 C 
ATOM     20  C   UNL     1      -2.634  -1.180  24.701  0.00  0.00    +0.198 C 
ATOM     21  O   UNL     1      -3.409  -1.368  24.908  0.00  0.00    -0.219 OA
ENDROOT
BRANCH  19  22
ATOM     22  N   UNL     1      -2.755   0.284  24.657  0.00  0.00    -0.267 NA
ATOM     23  C   UNL     1      -2.748   0.698  25.371  0.00  0.00    +0.094 C 
ATOM     24  C   UNL     1      -3.170   1.402  25.443  0.00  0.00    +0.108 C 
ATOM     25  N   UNL     1      -3.601   1.693  24.802  0.00  0.00    -0.305 N 
ATOM     26  C   UNL     1      -3.609   1.279  24.089  0.00  0.00    +0.108 C 
ATOM     27  C   UNL     1      -3.186   0.574  24.016  0.00  0.00    +0.094 C 
BRANCH  25  28
ATOM     28  C   UNL     1      -4.024   2.398  24.875  0.00  0.00    +0.048 A 
ATOM     29  C   UNL     1      -3.707   3.100  24.581  0.00  0.00    +0.015 A 
ATOM     30  C   UNL     1      -4.130   3.805  24.653  0.00  0.00    +0.001 A 
ATOM     31  C   UNL     1      -4.869   3.807  25.019  0.00  0.00    +0.000 A 
ATOM     32  C   UNL     1      -5.186   3.105  25.313  0.00  0.00    +0.001 A 
ATOM     33  C   UNL     1      -4.763   2.399  25.240  0.00  0.00    +0.015 A 
ENDBRANCH  25  28
ENDBRANCH  19  22
BRANCH   3   2
ATOM      1  O   UNL     1      -1.672  -3.020  24.097  0.00  0.00    -0.218 OA
ATOM      2  C   UNL     1      -2.080  -2.540  24.630  0.00  0.00    +0.214 C 
ENDBRANCH   3   2
BRANCH   5   6
ATOM      6  C   UNL     1      -1.020   0.132  24.224  0.00  0.00    +0.146 C 
BRANCH   6   7
ATOM      7  N   UNL     1      -0.306  -0.013  23.836  0.00  0.00    -0.199 NA
ATOM      8  C   UNL     1       0.218   0.607  23.690  0.00  0.00    +0.265 C 
ATOM      9  O   UNL     1       0.028   1.373  23.934  0.00  0.00    -0.268 OA
BRANCH   8  10
ATOM     10  C   UNL     1       0.931   0.462  23.302  0.00  0.00    +0.057 A 
ATOM     11  C   UNL     1       1.607   0.886  23.509  0.00  0.00    +0.025 A 
ATOM     12  C   UNL     1       2.320   0.741  23.121  0.00  0.00    +0.101 A 
ATOM     13  C   UNL     1       2.357   0.171  22.525  0.00  0.00    +0.101 A 
ATOM     14  C   UNL     1       1.680  -0.253  22.317  0.00  0.00    +0.021 A 
ATOM     15  C   UNL     1       0.967  -0.107  22.706  0.00  0.00    +0.006 A 
ATOM     16  N   UNL     1       3.131   0.148  22.241  0.00  0.00    -0.222 NA
ATOM     17  C   UNL     1       3.573   0.703  22.661  0.00  0.00    +0.199 A 
ATOM     18  N   UNL     1       3.072   1.069  23.204  0.00  0.00    -0.222 NA
ENDBRANCH   8  10
ENDBRANCH   6   7
ENDBRANCH   5   6
TORSDOF 6
ENDMDL
MODEL 8
REMARK VINA RESULT:      -8.7      2.284      5.169
REMARK  Name = 
REMARK  6 active torsions:
REMARK  status: ('A' for Active; 'I' for Inactive)
REMARK    1  A    between atoms: C_2  and  C_3
REMARK    2  A    between atoms: C_5  and  C_6
REMARK    3  A    between atoms: C_6  and  N_7
REMARK    4  A    between atoms: C_8  and  C_10
REMARK    5  A    between atoms: C_19  and  N_22
REMARK    6  A    between atoms: N_25  and  C_28
REMARK                            x       y       z     vdW  Elec       q    Type
REMARK                         _______ _______ _______ _____ _____    ______ ____
ROOT
ATOM      3  C   UNL     1      -0.594   3.609  24.655  0.00  0.00    +0.180 C 
ATOM      4  O   UNL     1      -1.374   3.599  24.385  0.00  0.00    -0.350 OA
ATOM      5  C   UNL     1      -1.619   2.813  24.348  0.00  0.00    +0.154 C 
ATOM     19  C   UNL     1      -0.993   2.337  24.594  0.00  0.00    +0.120 C 
ATOM     20  C   UNL     1      -0.358   2.829  24.784  0.00  0.00    +0.198 C 
ATOM     21  O   UNL     1       0.381   2.586  25.055  0.00  0.00    -0.219 OA
ENDROOT
BRANCH  19  22
ATOM     22  N   UNL     1      -0.997   1.514  24.643  0.00  0.00    -0.267 NA
ATOM     23  C   UNL     1      -1.167   1.144  25.360  0.00  0.00    +0.094 C 
ATOM     24  C   UNL     1      -1.172   0.321  25.410  0.00  0.00    +0.108 C 
ATOM     25  N   UNL     1      -1.006  -0.133  24.742  0.00  0.00    -0.305 N 
ATOM     26  C   UNL     1      -0.836   0.235  24.024  0.00  0.00    +0.108 C 
ATOM     27  C   UNL     1      -0.831   1.059  23.974  0.00  0.00    +0.094 C 
BRANCH  25  28
ATOM     28  C   UNL     1      -1.011  -0.957  24.792  0.00  0.00    +0.048 A 
ATOM     29  C   UNL     1      -1.682  -1.380  24.564  0.00  0.00    +0.015 A 
ATOM     30  C   UNL     1      -1.686  -2.203  24.613  0.00  0.00    +0.001 A 
ATOM     31  C   UNL     1      -1.020  -2.604  24.891  0.00  0.00    +0.000 A 
ATOM     32  C   UNL     1      -0.350  -2.181  25.119  0.00  0.00    +0.001 A 
ATOM     33  C   UNL     1      -0.345  -1.357  25.070  0.00  0.00    +0.015 A 
ENDBRANCH  25  28
ENDBRANCH  19  22
BRANCH   3   2
ATOM      1  O   UNL     1      -0.486   5.027  24.799  0.00  0.00    -0.218 OA
ATOM      2  C   UNL     1      -0.132   4.282  24.774  0.00  0.00    +0.214 C 
ENDBRANCH   3   2
BRANCH   5   6
ATOM      6  C   UNL     1      -2.362   2.548  24.106  0.00  0.00    +0.146 C 
BRANCH   6   7
ATOM      7  N   UNL     1      -3.017   2.647  24.600  0.00  0.00    -0.199 NA
ATOM      8  C   UNL     1      -3.779   2.615  24.286  0.00  0.00    +0.265 C 
ATOM      9  O   UNL     1      -3.887   2.482  23.479  0.00  0.00    -0.268 OA
BRANCH   8  10
ATOM     10  C   UNL     1      -4.432   2.714  24.779  0.00  0.00    +0.057 A 
ATOM     11  C   UNL     1      -4.835   2.055  25.068  0.00  0.00    +0.025 A 
ATOM     12  C   UNL     1      -5.489   2.154  25.562  0.00  0.00    +0.101 A 
ATOM     13  C   UNL     1      -5.739   2.913  25.766  0.00  0.00    +0.101 A 
ATOM     14  C   UNL     1      -5.336   3.573  25.477  0.00  0.00    +0.021 A 
ATOM     15  C   UNL     1      -4.683   3.473  24.983  0.00  0.00    +0.006 A 
ATOM     16  N   UNL     1      -6.397   2.841  26.258  0.00  0.00    -0.222 NA
ATOM     17  C   UNL     1      -6.552   2.037  26.359  0.00  0.00    +0.199 A 
ATOM     18  N   UNL     1      -5.991   1.614  25.928  0.00  0.00    -0.222 NA
ENDBRANCH   8  10
ENDBRANCH   6   7
ENDBRANCH   5   6
TORSDOF 6
ENDMDL
