REMARK  Name = 
REMARK  2 active torsions:
REMARK  status: ('A' for Active; 'I' for Inactive)
REMARK    1  A    between atoms: C_4  and  C_14
REMARK    2  A    between atoms: C_5  and  N_8
REMARK                            x       y       z     vdW  Elec       q    Type
REMARK                         _______ _______ _______ _____ _____    ______ ____
ROOT
ATOM      1  O   UNL     1       0.715  -0.412   0.000  0.00  0.00    -0.220 OA
ATOM      2  C   UNL     1       0.715  -1.238   0.000  0.00  0.00    +0.184 C 
ATOM      3  C   UNL     1       1.382  -1.722   0.000  0.00  0.00    +0.041 C 
ATOM      4  C   UNL     1       1.127  -2.507   0.000  0.00  0.00    +0.042 C 
ATOM      5  C   UNL     1       0.302  -2.507   0.000  0.00  0.00    +0.095 C 
ATOM      6  C   UNL     1       0.047  -1.722   0.000  0.00  0.00    +0.197 C 
ATOM      7  O   UNL     1      -0.738  -1.468   0.000  0.00  0.00    -0.219 OA
ENDROOT
BRANCH   5   8
ATOM      8  N   UNL     1      -0.183  -3.175   0.000  0.00  0.00    -0.271 NA
ATOM      9  C   UNL     1       0.153  -3.928   0.000  0.00  0.00    +0.072 C 
ATOM     10  C   UNL     1      -0.332  -4.596   0.000  0.00  0.00    +0.017 C 
ATOM     11  C   UNL     1      -1.153  -4.509   0.000  0.00  0.00    +0.003 C 
ATOM     12  C   UNL     1      -1.488  -3.756   0.000  0.00  0.00    +0.017 C 
ATOM     13  C   UNL     1      -1.003  -3.088   0.000  0.00  0.00    +0.072 C 
ENDBRANCH   5   8
BRANCH   4  14
ATOM     14  C   UNL     1       1.612  -3.175   0.000  0.00  0.00    -0.021 A 
ATOM     15  C   UNL     1       2.432  -3.088   0.000  0.00  0.00    -0.004 A 
ATOM     16  C   UNL     1       2.917  -3.756   0.000  0.00  0.00    -0.000 A 
ATOM     17  C   UNL     1       2.582  -4.509   0.000  0.00  0.00    -0.000 A 
ATOM     18  C   UNL     1       1.761  -4.596   0.000  0.00  0.00    -0.000 A 
ATOM     19  C   UNL     1       1.276  -3.928   0.000  0.00  0.00    -0.004 A 
ENDBRANCH   4  14
TORSDOF 2
