REMARK  Name = 
REMARK  7 active torsions:
REMARK  status: ('A' for Active; 'I' for Inactive)
REMARK    1  A    between atoms: N_2  and  C_4
REMARK    2  A    between atoms: C_4  and  C_5
REMARK    3  A    between atoms: N_7  and  C_10
REMARK    4  A    between atoms: C_14  and  O_18
REMARK    5  A    between atoms: O_18  and  C_19
REMARK    6  A    between atoms: N_21  and  C_22
REMARK    7  A    between atoms: C_25  and  C_28
REMARK                            x       y       z     vdW  Elec       q    Type
REMARK                         _______ _______ _______ _____ _____    ______ ____
ROOT
ATOM     10  C   UNL     1       1.270  -0.922   0.000  0.00  0.00    +0.166 C 
ATOM     11  C   UNL     1       0.785  -0.255   0.000  0.00  0.00    +0.169 C 
ATOM     12  O   UNL     1       1.270   0.412   0.000  0.00  0.00    -0.348 OA
ATOM     13  C   UNL     1       2.054   0.158   0.000  0.00  0.00    +0.187 C 
ATOM     14  C   UNL     1       2.839   0.412   0.000  0.00  0.00    +0.229 C 
ATOM     15  C   UNL     1       3.324  -0.255   0.000  0.00  0.00    +0.188 C 
ATOM     16  O   UNL     1       2.839  -0.922   0.000  0.00  0.00    -0.348 OA
ATOM     17  C   UNL     1       2.054  -0.667   0.000  0.00  0.00    +0.171 C 
ENDROOT
BRANCH  10   7
ATOM      5  C   UNL     1       0.230  -2.787   0.000  0.00  0.00    +0.117 A 
ATOM      6  C   UNL     1       0.230  -1.962   0.000  0.00  0.00    +0.115 A 
ATOM      7  N   UNL     1       1.015  -1.707   0.000  0.00  0.00    -0.227 N 
ATOM      8  N   UNL     1       1.500  -2.374   0.000  0.00  0.00    -0.064 NA
ATOM      9  N   UNL     1       1.015  -3.042   0.000  0.00  0.00    -0.132 NA
BRANCH   5   4
ATOM      4  C   UNL     1      -0.438  -3.272   0.000  0.00  0.00    +0.122 C 
BRANCH   4   2
ATOM      1  C   UNL     1      -1.019  -4.577   0.000  0.00  0.00    +0.090 C 
ATOM      2  N   UNL     1      -0.351  -4.092   0.000  0.00  0.00    -0.265 NA
ATOM      3  C   UNL     1       0.403  -4.428   0.000  0.00  0.00    +0.090 C 
ENDBRANCH   4   2
ENDBRANCH   5   4
ENDBRANCH  10   7
BRANCH  14  18
ATOM     18  O   UNL     1       3.094   1.197   0.000  0.00  0.00    -0.432 OA
BRANCH  18  19
ATOM     19  C   UNL     1       3.901   1.369   0.000  0.00  0.00    +0.425 C 
ATOM     20  O   UNL     1       4.453   0.756   0.000  0.00  0.00    -0.224 OA
ATOM     21  N   UNL     1       4.156   2.153   0.000  0.00  0.00    -0.142 NA
BRANCH  21  22
ATOM     22  C   UNL     1       4.963   2.325   0.000  0.00  0.00    +0.077 A 
ATOM     23  C   UNL     1       5.218   3.109   0.000  0.00  0.00    +0.016 A 
ATOM     24  C   UNL     1       6.024   3.281   0.000  0.00  0.00    -0.003 A 
ATOM     25  C   UNL     1       6.577   2.668   0.000  0.00  0.00    -0.023 A 
ATOM     26  C   UNL     1       6.322   1.883   0.000  0.00  0.00    -0.003 A 
ATOM     27  C   UNL     1       5.515   1.712   0.000  0.00  0.00    +0.016 A 
BRANCH  25  28
ATOM     28  C   UNL     1       7.383   2.839   0.000  0.00  0.00    +0.019 C 
ATOM     29  C   UNL     1       8.191   3.011   0.000  0.00  0.00    +0.004 C 
ATOM     30  C   UNL     1       7.555   2.032   0.000  0.00  0.00    +0.004 C 
ATOM     31  C   UNL     1       7.212   3.646   0.000  0.00  0.00    +0.004 C 
ENDBRANCH  25  28
ENDBRANCH  21  22
ENDBRANCH  18  19
ENDBRANCH  14  18
TORSDOF 7
