MODEL 1
REMARK VINA RESULT:     -12.2      0.000      0.000
REMARK  Name = 
REMARK  5 active torsions:
REMARK  status: ('A' for Active; 'I' for Inactive)
REMARK    1  A    between atoms: O_2  and  C_3
REMARK    2  A    between atoms: C_6  and  C_9
REMARK    3  A    between atoms: C_15  and  N_16
REMARK    4  A    between atoms: N_16  and  C_17
REMARK    5  A    between atoms: C_17  and  C_18
REMARK                            x       y       z     vdW  Elec       q    Type
REMARK                         _______ _______ _______ _____ _____    ______ ____
ROOT
ATOM      9  C   UNL     1      -4.407   0.616  24.812  0.00  0.00    +0.044 C 
ATOM     10  C   UNL     1      -5.168   0.890  24.976  0.00  0.00    +0.041 C 
ATOM     11  C   UNL     1      -5.171   1.709  24.873  0.00  0.00    +0.184 C 
ATOM     12  O   UNL     1      -5.820   2.209  24.979  0.00  0.00    -0.220 OA
ATOM     13  C   UNL     1      -4.413   1.941  24.646  0.00  0.00    +0.198 C 
ATOM     14  O   UNL     1      -4.169   2.713  24.485  0.00  0.00    -0.219 OA
ATOM     15  C   UNL     1      -3.940   1.266  24.609  0.00  0.00    +0.110 C 
ENDROOT
BRANCH   9   6
ATOM      3  C   UNL     1      -3.656  -1.740  24.914  0.00  0.00    +0.139 A 
ATOM      4  C   UNL     1      -3.948  -1.430  24.207  0.00  0.00    +0.037 A 
ATOM      5  C   UNL     1      -4.199  -0.645  24.173  0.00  0.00    -0.001 A 
ATOM      6  C   UNL     1      -4.156  -0.169  24.846  0.00  0.00    -0.021 A 
ATOM      7  C   UNL     1      -3.864  -0.479  25.552  0.00  0.00    -0.001 A 
ATOM      8  C   UNL     1      -3.614  -1.265  25.586  0.00  0.00    +0.037 A 
BRANCH   3   2
ATOM      1  C   UNL     1      -2.699  -2.749  24.585  0.00  0.00    +0.252 C 
ATOM      2  O   UNL     1      -3.405  -2.526  24.947  0.00  0.00    -0.471 OA
ENDBRANCH   3   2
ENDBRANCH   9   6
BRANCH  15  16
ATOM     16  N   UNL     1      -3.142   1.244  24.403  0.00  0.00    -0.212 NA
BRANCH  16  17
ATOM     17  C   UNL     1      -2.634   1.842  24.656  0.00  0.00    +0.117 C 
BRANCH  17  18
ATOM     18  C   UNL     1      -1.818   1.754  24.573  0.00  0.00    +0.014 A 
ATOM     19  C   UNL     1      -1.433   1.351  23.964  0.00  0.00    +0.073 A 
ATOM     20  N   UNL     1      -0.621   1.401  24.100  0.00  0.00    -0.324 N 
ATOM     21  C   UNL     1      -0.030   1.074  23.625  0.00  0.00    +0.130 C 
ATOM     22  C   UNL     1      -0.504   1.834  24.791  0.00  0.00    +0.060 A 
ATOM     23  C   UNL     1      -1.244   2.052  25.084  0.00  0.00    +0.015 A 
ATOM     24  C   UNL     1      -1.298   2.494  25.778  0.00  0.00    +0.001 A 
ATOM     25  C   UNL     1      -0.614   2.718  26.180  0.00  0.00    +0.000 A 
ATOM     26  C   UNL     1       0.126   2.500  25.887  0.00  0.00    +0.001 A 
ATOM     27  C   UNL     1       0.182   2.058  25.193  0.00  0.00    +0.017 A 
ENDBRANCH  17  18
ENDBRANCH  16  17
ENDBRANCH  15  16
TORSDOF 5
ENDMDL
MODEL 2
REMARK VINA RESULT:     -11.9      1.418      4.010
REMARK  Name = 
REMARK  5 active torsions:
REMARK  status: ('A' for Active; 'I' for Inactive)
REMARK    1  A    between atoms: O_2  and  C_3
REMARK    2  A    between atoms: C_6  and  C_9
REMARK    3  A    between atoms: C_15  and  N_16
REMARK    4  A    between atoms: N_16  and  C_17
REMARK    5  A    between atoms: C_17  and  C_18
REMARK                            x       y       z     vdW  Elec       q    Type
REMARK                         _______ _______ _______ _____ _____    ______ ____
ROOT
ATOM      9  C   UNL     1      -3.810   2.377  24.761  0.00  0.00    +0.044 C 
ATOM     10  C   UNL     1      -4.360   2.990  24.710  0.00  0.00    +0.041 C 
ATOM     11  C   UNL     1      -5.088   2.701  24.971  0.00  0.00    +0.184 C 
ATOM     12  O   UNL     1      -5.792   3.129  25.012  0.00  0.00    -0.220 OA
ATOM     13  C   UNL     1      -4.988   1.911  25.183  0.00  0.00    +0.198 C 
ATOM     14  O   UNL     1      -5.575   1.408  25.473  0.00  0.00    -0.219 OA
ATOM     15  C   UNL     1      -4.198   1.709  25.053  0.00  0.00    +0.110 C 
ENDROOT
BRANCH   9   6
ATOM      3  C   UNL     1      -1.417   2.513  24.146  0.00  0.00    +0.139 A 
ATOM      4  C   UNL     1      -1.978   2.309  23.577  0.00  0.00    +0.037 A 
ATOM      5  C   UNL     1      -2.776   2.263  23.782  0.00  0.00    -0.001 A 
ATOM      6  C   UNL     1      -3.012   2.422  24.556  0.00  0.00    -0.021 A 
ATOM      7  C   UNL     1      -2.451   2.627  25.125  0.00  0.00    -0.001 A 
ATOM      8  C   UNL     1      -1.653   2.672  24.919  0.00  0.00    +0.037 A 
BRANCH   3   2
ATOM      1  C   UNL     1      -0.059   2.120  24.358  0.00  0.00    +0.252 C 
ATOM      2  O   UNL     1      -0.618   2.559  23.940  0.00  0.00    -0.471 OA
ENDBRANCH   3   2
ENDBRANCH   9   6
BRANCH  15  16
ATOM     16  N   UNL     1      -3.857   0.972  25.192  0.00  0.00    -0.212 NA
BRANCH  16  17
ATOM     17  C   UNL     1      -4.261   0.284  24.983  0.00  0.00    +0.117 C 
BRANCH  17  18
ATOM     18  C   UNL     1      -3.944  -0.454  25.167  0.00  0.00    +0.014 A 
ATOM     19  C   UNL     1      -3.534  -0.647  25.857  0.00  0.00    +0.073 A 
ATOM     20  N   UNL     1      -3.317  -1.442  25.811  0.00  0.00    -0.324 N 
ATOM     21  C   UNL     1      -2.898  -1.864  26.383  0.00  0.00    +0.130 C 
ATOM     22  C   UNL     1      -3.591  -1.739  25.093  0.00  0.00    +0.060 A 
ATOM     23  C   UNL     1      -3.978  -1.129  24.695  0.00  0.00    +0.015 A 
ATOM     24  C   UNL     1      -4.313  -1.268  23.953  0.00  0.00    +0.001 A 
ATOM     25  C   UNL     1      -4.260  -2.016  23.610  0.00  0.00    +0.000 A 
ATOM     26  C   UNL     1      -3.873  -2.626  24.008  0.00  0.00    +0.001 A 
ATOM     27  C   UNL     1      -3.538  -2.488  24.749  0.00  0.00    +0.017 A 
ENDBRANCH  17  18
ENDBRANCH  16  17
ENDBRANCH  15  16
TORSDOF 5
ENDMDL
MODEL 3
REMARK VINA RESULT:     -11.3      2.198      3.988
REMARK  Name = 
REMARK  5 active torsions:
REMARK  status: ('A' for Active; 'I' for Inactive)
REMARK    1  A    between atoms: O_2  and  C_3
REMARK    2  A    between atoms: C_6  and  C_9
REMARK    3  A    between atoms: C_15  and  N_16
REMARK    4  A    between atoms: N_16  and  C_17
REMARK    5  A    between atoms: C_17  and  C_18
REMARK                            x       y       z     vdW  Elec       q    Type
REMARK                         _______ _______ _______ _____ _____    ______ ____
ROOT
ATOM      9  C   UNL     1      -3.854   2.362  23.885  0.00  0.00    +0.044 C 
ATOM     10  C   UNL     1      -3.770   2.880  23.248  0.00  0.00    +0.041 C 
ATOM     11  C   UNL     1      -3.175   2.586  22.757  0.00  0.00    +0.184 C 
ATOM     12  O   UNL     1      -2.910   2.931  22.056  0.00  0.00    -0.220 OA
ATOM     13  C   UNL     1      -2.892   1.886  23.090  0.00  0.00    +0.198 C 
ATOM     14  O   UNL     1      -2.294   1.409  22.781  0.00  0.00    -0.219 OA
ATOM     15  C   UNL     1      -3.312   1.748  23.788  0.00  0.00    +0.110 C 
ENDROOT
BRANCH   9   6
ATOM      3  C   UNL     1      -5.454   2.607  25.757  0.00  0.00    +0.139 A 
ATOM      4  C   UNL     1      -5.670   2.183  25.083  0.00  0.00    +0.037 A 
ATOM      5  C   UNL     1      -5.137   2.102  24.458  0.00  0.00    -0.001 A 
ATOM      6  C   UNL     1      -4.387   2.444  24.509  0.00  0.00    -0.021 A 
ATOM      7  C   UNL     1      -4.172   2.867  25.183  0.00  0.00    -0.001 A 
ATOM      8  C   UNL     1      -4.705   2.948  25.807  0.00  0.00    +0.037 A 
BRANCH   3   2
ATOM      1  C   UNL     1      -6.403   2.031  26.657  0.00  0.00    +0.252 C 
ATOM      2  O   UNL     1      -5.988   2.688  26.382  0.00  0.00    -0.471 OA
ENDBRANCH   3   2
ENDBRANCH   9   6
BRANCH  15  16
ATOM     16  N   UNL     1      -3.207   1.108  24.297  0.00  0.00    -0.212 NA
BRANCH  16  17
ATOM     17  C   UNL     1      -3.150   0.343  23.993  0.00  0.00    +0.117 C 
BRANCH  17  18
ATOM     18  C   UNL     1      -3.000  -0.291  24.498  0.00  0.00    +0.014 A 
ATOM     19  C   UNL     1      -2.494  -0.284  25.150  0.00  0.00    +0.073 A 
ATOM     20  N   UNL     1      -2.512  -1.032  25.495  0.00  0.00    -0.324 N 
ATOM     21  C   UNL     1      -2.086  -1.269  26.162  0.00  0.00    +0.130 C 
ATOM     22  C   UNL     1      -3.028  -1.503  25.057  0.00  0.00    +0.060 A 
ATOM     23  C   UNL     1      -3.330  -1.045  24.441  0.00  0.00    +0.015 A 
ATOM     24  C   UNL     1      -3.867  -1.374  23.908  0.00  0.00    +0.001 A 
ATOM     25  C   UNL     1      -4.102  -2.160  23.990  0.00  0.00    +0.000 A 
ATOM     26  C   UNL     1      -3.800  -2.618  24.606  0.00  0.00    +0.001 A 
ATOM     27  C   UNL     1      -3.263  -2.290  25.140  0.00  0.00    +0.017 A 
ENDBRANCH  17  18
ENDBRANCH  16  17
ENDBRANCH  15  16
TORSDOF 5
ENDMDL
MODEL 4
REMARK VINA RESULT:     -11.2      2.041      3.658
REMARK  Name = 
REMARK  5 active torsions:
REMARK  status: ('A' for Active; 'I' for Inactive)
REMARK    1  A    between atoms: O_2  and  C_3
REMARK    2  A    between atoms: C_6  and  C_9
REMARK    3  A    between atoms: C_15  and  N_16
REMARK    4  A    between atoms: N_16  and  C_17
REMARK    5  A    between atoms: C_17  and  C_18
REMARK                            x       y       z     vdW  Elec       q    Type
REMARK                         _______ _______ _______ _____ _____    ______ ____
ROOT
ATOM      9  C   UNL     1      -2.454   3.645  25.033  0.00  0.00    +0.044 C 
ATOM     10  C   UNL     1      -2.266   4.448  25.000  0.00  0.00    +0.041 C 
ATOM     11  C   UNL     1      -1.462   4.528  25.167  0.00  0.00    +0.184 C 
ATOM     12  O   UNL     1      -1.041   5.238  25.193  0.00  0.00    -0.220 OA
ATOM     13  C   UNL     1      -1.153   3.776  25.303  0.00  0.00    +0.198 C 
ATOM     14  O   UNL     1      -0.369   3.600  25.490  0.00  0.00    -0.219 OA
ATOM     15  C   UNL     1      -1.766   3.230  25.220  0.00  0.00    +0.110 C 
ENDROOT
BRANCH   9   6
ATOM      3  C   UNL     1      -4.688   2.657  24.637  0.00  0.00    +0.139 A 
ATOM      4  C   UNL     1      -4.162   2.751  24.009  0.00  0.00    +0.037 A 
ATOM      5  C   UNL     1      -3.417   3.081  24.141  0.00  0.00    -0.001 A 
ATOM      6  C   UNL     1      -3.199   3.316  24.901  0.00  0.00    -0.021 A 
ATOM      7  C   UNL     1      -3.725   3.221  25.529  0.00  0.00    -0.001 A 
ATOM      8  C   UNL     1      -4.470   2.892  25.397  0.00  0.00    +0.037 A 
BRANCH   3   2
ATOM      1  C   UNL     1      -5.811   1.906  25.106  0.00  0.00    +0.252 C 
ATOM      2  O   UNL     1      -5.434   2.327  24.505  0.00  0.00    -0.471 OA
ENDBRANCH   3   2
ENDBRANCH   9   6
BRANCH  15  16
ATOM     16  N   UNL     1      -1.703   2.413  25.309  0.00  0.00    -0.212 NA
BRANCH  16  17
ATOM     17  C   UNL     1      -1.028   2.019  25.043  0.00  0.00    +0.117 C 
BRANCH  17  18
ATOM     18  C   UNL     1      -0.985   1.197  25.088  0.00  0.00    +0.014 A 
ATOM     19  C   UNL     1      -1.329   0.724  25.670  0.00  0.00    +0.073 A 
ATOM     20  N   UNL     1      -1.147  -0.062  25.500  0.00  0.00    -0.324 N 
ATOM     21  C   UNL     1      -1.380  -0.720  25.940  0.00  0.00    +0.130 C 
ATOM     22  C   UNL     1      -0.692  -0.076  24.813  0.00  0.00    +0.060 A 
ATOM     23  C   UNL     1      -0.592   0.703  24.558  0.00  0.00    +0.015 A 
ATOM     24  C   UNL     1      -0.155   0.860  23.876  0.00  0.00    +0.001 A 
ATOM     25  C   UNL     1       0.182   0.240  23.449  0.00  0.00    +0.000 A 
ATOM     26  C   UNL     1       0.082  -0.538  23.704  0.00  0.00    +0.001 A 
ATOM     27  C   UNL     1      -0.355  -0.697  24.385  0.00  0.00    +0.017 A 
ENDBRANCH  17  18
ENDBRANCH  16  17
ENDBRANCH  15  16
TORSDOF 5
ENDMDL
MODEL 5
REMARK VINA RESULT:     -11.1      1.742      3.624
REMARK  Name = 
REMARK  5 active torsions:
REMARK  status: ('A' for Active; 'I' for Inactive)
REMARK    1  A    between atoms: O_2  and  C_3
REMARK    2  A    between atoms: C_6  and  C_9
REMARK    3  A    between atoms: C_15  and  N_16
REMARK    4  A    between atoms: N_16  and  C_17
REMARK    5  A    between atoms: C_17  and  C_18
REMARK                            x       y       z     vdW  Elec       q    Type
REMARK                         _______ _______ _______ _____ _____    ______ ____
ROOT
ATOM      9  C   UNL     1      -4.090   2.749  25.070  0.00  0.00    +0.044 C 
ATOM     10  C   UNL     1      -4.893   2.833  25.239  0.00  0.00    +0.041 C 
ATOM     11  C   UNL     1      -5.267   2.118  25.064  0.00  0.00    +0.184 C 
ATOM     12  O   UNL     1      -6.072   1.958  25.151  0.00  0.00    -0.220 OA
ATOM     13  C   UNL     1      -4.696   1.593  24.787  0.00  0.00    +0.198 C 
ATOM     14  O   UNL     1      -4.827   0.814  24.547  0.00  0.00    -0.219 OA
ATOM     15  C   UNL     1      -3.968   1.982  24.791  0.00  0.00    +0.110 C 
ENDROOT
BRANCH   9   6
ATOM      3  C   UNL     1      -2.353   4.489  25.352  0.00  0.00    +0.139 A 
ATOM      4  C   UNL     1      -2.706   4.373  24.615  0.00  0.00    +0.037 A 
ATOM      5  C   UNL     1      -3.285   3.793  24.521  0.00  0.00    -0.001 A 
ATOM      6  C   UNL     1      -3.512   3.329  25.164  0.00  0.00    -0.021 A 
ATOM      7  C   UNL     1      -3.160   3.445  25.901  0.00  0.00    -0.001 A 
ATOM      8  C   UNL     1      -2.580   4.025  25.995  0.00  0.00    +0.037 A 
BRANCH   3   2
ATOM      1  C   UNL     1      -1.054   5.001  25.050  0.00  0.00    +0.252 C 
ATOM      2  O   UNL     1      -1.774   5.070  25.446  0.00  0.00    -0.471 OA
ENDBRANCH   3   2
ENDBRANCH   9   6
BRANCH  15  16
ATOM     16  N   UNL     1      -3.245   1.662  24.556  0.00  0.00    -0.212 NA
BRANCH  16  17
ATOM     17  C   UNL     1      -3.056   0.882  24.750  0.00  0.00    +0.117 C 
BRANCH  17  18
ATOM     18  C   UNL     1      -2.299   0.592  24.603  0.00  0.00    +0.014 A 
ATOM     19  C   UNL     1      -1.779   0.864  24.022  0.00  0.00    +0.073 A 
ATOM     20  N   UNL     1      -1.087   0.419  24.071  0.00  0.00    -0.324 N 
ATOM     21  C   UNL     1      -0.420   0.506  23.592  0.00  0.00    +0.130 C 
ATOM     22  C   UNL     1      -1.178  -0.129  24.680  0.00  0.00    +0.060 A 
ATOM     23  C   UNL     1      -1.927  -0.022  25.009  0.00  0.00    +0.015 A 
ATOM     24  C   UNL     1      -2.173  -0.498  25.637  0.00  0.00    +0.001 A 
ATOM     25  C   UNL     1      -1.672  -1.080  25.935  0.00  0.00    +0.000 A 
ATOM     26  C   UNL     1      -0.923  -1.187  25.606  0.00  0.00    +0.001 A 
ATOM     27  C   UNL     1      -0.675  -0.711  24.979  0.00  0.00    +0.017 A 
ENDBRANCH  17  18
ENDBRANCH  16  17
ENDBRANCH  15  16
TORSDOF 5
ENDMDL
MODEL 6
REMARK VINA RESULT:     -11.1      1.554      3.903
REMARK  Name = 
REMARK  5 active torsions:
REMARK  status: ('A' for Active; 'I' for Inactive)
REMARK    1  A    between atoms: O_2  and  C_3
REMARK    2  A    between atoms: C_6  and  C_9
REMARK    3  A    between atoms: C_15  and  N_16
REMARK    4  A    between atoms: N_16  and  C_17
REMARK    5  A    between atoms: C_17  and  C_18
REMARK                            x       y       z     vdW  Elec       q    Type
REMARK                         _______ _______ _______ _____ _____    ______ ____
ROOT
ATOM      9  C   UNL     1      -2.513  -0.788  24.690  0.00  0.00    +0.044 C 
ATOM     10  C   UNL     1      -2.543  -1.602  24.820  0.00  0.00    +0.041 C 
ATOM     11  C   UNL     1      -3.307  -1.860  24.647  0.00  0.00    +0.184 C 
ATOM     12  O   UNL     1      -3.581  -2.637  24.702  0.00  0.00    -0.220 OA
ATOM     13  C   UNL     1      -3.750  -1.206  24.410  0.00  0.00    +0.198 C 
ATOM     14  O   UNL     1      -4.544  -1.212  24.186  0.00  0.00    -0.219 OA
ATOM     15  C   UNL     1      -3.259  -0.543  24.436  0.00  0.00    +0.110 C 
ENDROOT
BRANCH   9   6
ATOM      3  C   UNL     1      -0.533   0.664  25.004  0.00  0.00    +0.139 A 
ATOM      4  C   UNL     1      -1.006   0.464  25.651  0.00  0.00    +0.037 A 
ATOM      5  C   UNL     1      -1.665  -0.020  25.546  0.00  0.00    -0.001 A 
ATOM      6  C   UNL     1      -1.853  -0.304  24.794  0.00  0.00    -0.021 A 
ATOM      7  C   UNL     1      -1.381  -0.104  24.148  0.00  0.00    -0.001 A 
ATOM      8  C   UNL     1      -0.721   0.380  24.253  0.00  0.00    +0.037 A 
BRANCH   3   2
ATOM      1  C   UNL     1       0.093   1.944  24.894  0.00  0.00    +0.252 C 
ATOM      2  O   UNL     1       0.127   1.149  25.109  0.00  0.00    -0.471 OA
ENDBRANCH   3   2
ENDBRANCH   9   6
BRANCH  15  16
ATOM     16  N   UNL     1      -3.476   0.229  24.243  0.00  0.00    -0.212 NA
BRANCH  16  17
ATOM     17  C   UNL     1      -4.183   0.543  24.530  0.00  0.00    +0.117 C 
BRANCH  17  18
ATOM     18  C   UNL     1      -4.324   1.354  24.480  0.00  0.00    +0.014 A 
ATOM     19  C   UNL     1      -3.976   1.875  23.943  0.00  0.00    +0.073 A 
ATOM     20  N   UNL     1      -4.275   2.630  24.089  0.00  0.00    -0.324 N 
ATOM     21  C   UNL     1      -4.076   3.318  23.680  0.00  0.00    +0.130 C 
ATOM     22  C   UNL     1      -4.808   2.575  24.716  0.00  0.00    +0.060 A 
ATOM     23  C   UNL     1      -4.838   1.787  24.957  0.00  0.00    +0.015 A 
ATOM     24  C   UNL     1      -5.331   1.566  25.581  0.00  0.00    +0.001 A 
ATOM     25  C   UNL     1      -5.793   2.131  25.963  0.00  0.00    +0.000 A 
ATOM     26  C   UNL     1      -5.762   2.920  25.722  0.00  0.00    +0.001 A 
ATOM     27  C   UNL     1      -5.270   3.142  25.099  0.00  0.00    +0.017 A 
ENDBRANCH  17  18
ENDBRANCH  16  17
ENDBRANCH  15  16
TORSDOF 5
ENDMDL
MODEL 7
REMARK VINA RESULT:     -11.0      1.688      4.433
REMARK  Name = 
REMARK  5 active torsions:
REMARK  status: ('A' for Active; 'I' for Inactive)
REMARK    1  A    between atoms: O_2  and  C_3
REMARK    2  A    between atoms: C_6  and  C_9
REMARK    3  A    between atoms: C_15  and  N_16
REMARK    4  A    between atoms: N_16  and  C_17
REMARK    5  A    between atoms: C_17  and  C_18
REMARK                            x       y       z     vdW  Elec       q    Type
REMARK                         _______ _______ _______ _____ _____    ______ ____
ROOT
ATOM      9  C   UNL     1      -2.073   2.758  24.675  0.00  0.00    +0.044 C 
ATOM     10  C   UNL     1      -1.449   3.220  24.397  0.00  0.00    +0.041 C 
ATOM     11  C   UNL     1      -0.788   2.732  24.314  0.00  0.00    +0.184 C 
ATOM     12  O   UNL     1      -0.042   2.966  24.050  0.00  0.00    -0.220 OA
ATOM     13  C   UNL     1      -1.005   1.969  24.540  0.00  0.00    +0.198 C 
ATOM     14  O   UNL     1      -0.513   1.306  24.542  0.00  0.00    -0.219 OA
ATOM     15  C   UNL     1      -1.799   1.985  24.764  0.00  0.00    +0.110 C 
ENDROOT
BRANCH   9   6
ATOM      3  C   UNL     1      -4.367   3.552  25.161  0.00  0.00    +0.139 A 
ATOM      4  C   UNL     1      -3.808   3.508  25.767  0.00  0.00    +0.037 A 
ATOM      5  C   UNL     1      -3.044   3.243  25.605  0.00  0.00    -0.001 A 
ATOM      6  C   UNL     1      -2.838   3.023  24.837  0.00  0.00    -0.021 A 
ATOM      7  C   UNL     1      -3.396   3.067  24.232  0.00  0.00    -0.001 A 
ATOM      8  C   UNL     1      -4.161   3.331  24.394  0.00  0.00    +0.037 A 
BRANCH   3   2
ATOM      1  C   UNL     1      -5.696   3.292  25.616  0.00  0.00    +0.252 C 
ATOM      2  O   UNL     1      -5.132   3.817  25.323  0.00  0.00    -0.471 OA
ENDBRANCH   3   2
ENDBRANCH   9   6
BRANCH  15  16
ATOM     16  N   UNL     1      -2.241   1.341  25.029  0.00  0.00    -0.212 NA
BRANCH  16  17
ATOM     17  C   UNL     1      -2.222   0.628  24.614  0.00  0.00    +0.117 C 
BRANCH  17  18
ATOM     18  C   UNL     1      -2.609  -0.035  24.915  0.00  0.00    +0.014 A 
ATOM     19  C   UNL     1      -2.519  -0.345  25.675  0.00  0.00    +0.073 A 
ATOM     20  N   UNL     1      -3.007  -1.007  25.739  0.00  0.00    -0.324 N 
ATOM     21  C   UNL     1      -3.090  -1.485  26.406  0.00  0.00    +0.130 C 
ATOM     22  C   UNL     1      -3.398  -1.106  25.019  0.00  0.00    +0.060 A 
ATOM     23  C   UNL     1      -3.152  -0.505  24.510  0.00  0.00    +0.015 A 
ATOM     24  C   UNL     1      -3.454  -0.465  23.744  0.00  0.00    +0.001 A 
ATOM     25  C   UNL     1      -4.002  -1.024  23.486  0.00  0.00    +0.000 A 
ATOM     26  C   UNL     1      -4.249  -1.625  23.995  0.00  0.00    +0.001 A 
ATOM     27  C   UNL     1      -3.947  -1.666  24.762  0.00  0.00    +0.017 A 
ENDBRANCH  17  18
ENDBRANCH  16  17
ENDBRANCH  15  16
TORSDOF 5
ENDMDL
