REMARK  Name = 
REMARK  6 active torsions:
REMARK  status: ('A' for Active; 'I' for Inactive)
REMARK    1  A    between atoms: C_4  and  C_8
REMARK    2  A    between atoms: N_10  and  C_11
REMARK    3  A    between atoms: C_11  and  C_12
REMARK    4  A    between atoms: C_19  and  C_20
REMARK    5  A    between atoms: N_22  and  C_23
REMARK    6  A    between atoms: C_23  and  C_24
REMARK                            x       y       z     vdW  Elec       q    Type
REMARK                         _______ _______ _______ _____ _____    ______ ____
ROOT
ATOM     12  C   UNL     1       1.814  -2.106   0.000  0.00  0.00    +0.082 C 
ATOM     13  C   UNL     1       1.661  -1.343   0.000  0.00  0.00    +0.019 C 
ATOM     14  C   UNL     1       0.923  -1.010   0.000  0.00  0.00    +0.013 C 
ATOM     15  C   UNL     1       0.961  -0.114   0.000  0.00  0.00    +0.018 C 
ATOM     16  C   UNL     1       1.205  -0.720   0.000  0.00  0.00    +0.072 C 
ATOM     17  N   UNL     1       1.065  -1.759   0.000  0.00  0.00    -0.272 NA
ATOM     18  C   UNL     1       0.226  -2.118   0.000  0.00  0.00    +0.081 C 
ATOM     19  C   UNL     1       0.119  -1.362   0.000  0.00  0.00    +0.094 C 
ENDROOT
BRANCH  19  20
ATOM     20  C   UNL     1      -0.602  -0.960   0.000  0.00  0.00    +0.243 C 
ATOM     21  O   UNL     1      -1.310  -1.384   0.000  0.00  0.00    -0.273 OA
ATOM     22  N   UNL     1      -0.614  -0.136   0.000  0.00  0.00    -0.201 NA
BRANCH  22  23
ATOM     23  C   UNL     1      -1.335   0.266   0.000  0.00  0.00    +0.141 C 
BRANCH  23  24
ATOM     24  C   UNL     1      -1.347   1.091   0.000  0.00  0.00    -0.000 A 
ATOM     25  C   UNL     1      -2.067   1.493   0.000  0.00  0.00    -0.000 A 
ATOM     26  C   UNL     1      -2.080   2.318   0.000  0.00  0.00    +0.029 A 
ATOM     27  C   UNL     1      -1.372   2.741   0.000  0.00  0.00    +0.140 A 
ATOM     28  F   UNL     1      -1.384   3.566   0.000  0.00  0.00    -0.204 F 
ATOM     29  C   UNL     1      -0.651   2.339   0.000  0.00  0.00    +0.029 A 
ATOM     30  C   UNL     1      -0.639   1.514   0.000  0.00  0.00    -0.000 A 
ENDBRANCH  23  24
ENDBRANCH  22  23
ENDBRANCH  19  20
BRANCH  12  11
ATOM     11  C   UNL     1       2.324  -2.754   0.000  0.00  0.00    +0.145 C 
BRANCH  11  10
ATOM      8  C   UNL     1       1.164  -4.546   0.000  0.00  0.00    +0.123 A 
ATOM      9  C   UNL     1       1.219  -3.722   0.000  0.00  0.00    +0.118 A 
ATOM     10  N   UNL     1       2.018  -3.520   0.000  0.00  0.00    -0.229 N 
ATOM     31  N   UNL     1       2.458  -4.218   0.000  0.00  0.00    -0.064 NA
ATOM     32  N   UNL     1       1.930  -4.852   0.000  0.00  0.00    -0.129 NA
BRANCH   8   4
ATOM      1  N   UNL     1      -1.692  -4.657   0.000  0.00  0.00    -0.128 NA
ATOM      2  C   UNL     1      -0.962  -5.041   0.000  0.00  0.00    +0.089 A 
ATOM      3  C   UNL     1      -0.264  -4.601   0.000  0.00  0.00    +0.020 A 
ATOM      4  C   UNL     1       0.466  -4.986   0.000  0.00  0.00    +0.022 A 
ATOM      5  C   UNL     1       0.498  -5.810   0.000  0.00  0.00    +0.002 A 
ATOM      6  C   UNL     1      -0.200  -6.250   0.000  0.00  0.00    +0.001 A 
ATOM      7  C   UNL     1      -0.929  -5.865   0.000  0.00  0.00    +0.018 A 
ENDBRANCH   8   4
ENDBRANCH  11  10
ENDBRANCH  12  11
TORSDOF 6
