MODEL 1
REMARK VINA RESULT:      -7.7      0.000      0.000
REMARK  Name = 
REMARK  5 active torsions:
REMARK  status: ('A' for Active; 'I' for Inactive)
REMARK    1  A    between atoms: O_2  and  C_3
REMARK    2  A    between atoms: C_3  and  C_4
REMARK    3  A    between atoms: C_4  and  N_5
REMARK    4  A    between atoms: N_9  and  C_10
REMARK    5  A    between atoms: C_10  and  C_11
REMARK                            x       y       z     vdW  Elec       q    Type
REMARK                         _______ _______ _______ _____ _____    ______ ____
ROOT
ATOM      5  N   UNL     1      -3.305   3.220  25.128  0.00  0.00    -0.260 N 
ATOM      6  C   UNL     1      -2.951   2.604  24.708  0.00  0.00    +0.116 C 
ATOM      7  C   UNL     1      -3.478   1.970  24.693  0.00  0.00    +0.113 C 
ATOM      8  C   UNL     1      -3.427   1.217  24.359  0.00  0.00    +0.094 C 
ATOM      9  N   UNL     1      -4.055   0.689  24.434  0.00  0.00    -0.266 NA
ATOM     17  C   UNL     1      -4.735   0.913  24.844  0.00  0.00    +0.094 C 
ATOM     18  C   UNL     1      -4.787   1.665  25.179  0.00  0.00    +0.112 C 
ATOM     19  N   UNL     1      -4.158   2.194  25.103  0.00  0.00    -0.261 N 
ATOM     20  C   UNL     1      -4.051   2.966  25.372  0.00  0.00    +0.307 C 
ATOM     21  O   UNL     1      -4.595   3.407  25.808  0.00  0.00    -0.252 OA
ENDROOT
BRANCH   5   4
ATOM      4  C   UNL     1      -2.972   3.959  25.278  0.00  0.00    +0.127 C 
BRANCH   4   3
ATOM      3  C   UNL     1      -2.170   4.087  25.135  0.00  0.00    +0.164 C 
BRANCH   3   2
ATOM      1  C   UNL     1      -1.114   5.042  25.011  0.00  0.00    +0.174 C 
ATOM      2  O   UNL     1      -1.816   4.796  25.367  0.00  0.00    -0.349 OA
ENDBRANCH   3   2
ENDBRANCH   4   3
ENDBRANCH   5   4
BRANCH   9  10
ATOM     10  C   UNL     1      -4.004  -0.064  24.100  0.00  0.00    +0.102 C 
BRANCH  10  11
ATOM     11  C   UNL     1      -3.622  -0.671  24.506  0.00  0.00    +0.033 A 
ATOM     12  C   UNL     1      -2.887  -0.994  24.317  0.00  0.00    +0.094 A 
ATOM     13  N   UNL     1      -2.718  -1.585  24.867  0.00  0.00    -0.248 N 
ATOM     14  C   UNL     1      -2.038  -2.051  24.884  0.00  0.00    +0.154 C 
ATOM     15  N   UNL     1      -3.349  -1.628  25.397  0.00  0.00    -0.168 NA
ATOM     16  C   UNL     1      -3.908  -1.063  25.174  0.00  0.00    +0.119 A 
ENDBRANCH  10  11
ENDBRANCH   9  10
TORSDOF 5
ENDMDL
MODEL 2
REMARK VINA RESULT:      -7.6      2.899      5.324
REMARK  Name = 
REMARK  5 active torsions:
REMARK  status: ('A' for Active; 'I' for Inactive)
REMARK    1  A    between atoms: O_2  and  C_3
REMARK    2  A    between atoms: C_3  and  C_4
REMARK    3  A    between atoms: C_4  and  N_5
REMARK    4  A    between atoms: N_9  and  C_10
REMARK    5  A    between atoms: C_10  and  C_11
REMARK                            x       y       z     vdW  Elec       q    Type
REMARK                         _______ _______ _______ _____ _____    ______ ____
ROOT
ATOM      5  N   UNL     1      -0.822  -0.506  24.659  0.00  0.00    -0.260 N 
ATOM      6  C   UNL     1      -1.074  -0.023  25.279  0.00  0.00    +0.116 C 
ATOM      7  C   UNL     1      -0.723   0.717  25.184  0.00  0.00    +0.113 C 
ATOM      8  C   UNL     1      -0.769   1.411  25.627  0.00  0.00    +0.094 C 
ATOM      9  N   UNL     1      -0.348   2.080  25.392  0.00  0.00    -0.266 NA
ATOM     17  C   UNL     1       0.120   2.055  24.713  0.00  0.00    +0.094 C 
ATOM     18  C   UNL     1       0.167   1.361  24.269  0.00  0.00    +0.112 C 
ATOM     19  N   UNL     1      -0.255   0.692  24.505  0.00  0.00    -0.261 N 
ATOM     20  C   UNL     1      -0.316  -0.064  24.181  0.00  0.00    +0.307 C 
ATOM     21  O   UNL     1       0.062  -0.331  23.497  0.00  0.00    -0.252 OA
ENDROOT
BRANCH   5   4
ATOM      4  C   UNL     1      -1.038  -1.293  24.539  0.00  0.00    +0.127 C 
BRANCH   4   3
ATOM      3  C   UNL     1      -1.803  -1.544  24.721  0.00  0.00    +0.164 C 
BRANCH   3   2
ATOM      1  C   UNL     1      -2.828  -2.529  24.577  0.00  0.00    +0.174 C 
ATOM      2  O   UNL     1      -2.029  -2.323  24.572  0.00  0.00    -0.349 OA
ENDBRANCH   3   2
ENDBRANCH   4   3
ENDBRANCH   5   4
BRANCH   9  10
ATOM     10  C   UNL     1      -0.394   2.774  25.835  0.00  0.00    +0.102 C 
BRANCH  10  11
ATOM     11  C   UNL     1      -0.965   3.341  25.656  0.00  0.00    +0.033 A 
ATOM     12  C   UNL     1      -1.722   3.388  25.980  0.00  0.00    +0.094 A 
ATOM     13  N   UNL     1      -2.104   4.038  25.645  0.00  0.00    -0.248 N 
ATOM     14  C   UNL     1      -2.872   4.288  25.813  0.00  0.00    +0.154 C 
ATOM     15  N   UNL     1      -1.583   4.393  25.112  0.00  0.00    -0.168 NA
ATOM     16  C   UNL     1      -0.879   3.963  25.119  0.00  0.00    +0.119 A 
ENDBRANCH  10  11
ENDBRANCH   9  10
TORSDOF 5
ENDMDL
MODEL 3
REMARK VINA RESULT:      -7.6      2.631      3.978
REMARK  Name = 
REMARK  5 active torsions:
REMARK  status: ('A' for Active; 'I' for Inactive)
REMARK    1  A    between atoms: O_2  and  C_3
REMARK    2  A    between atoms: C_3  and  C_4
REMARK    3  A    between atoms: C_4  and  N_5
REMARK    4  A    between atoms: N_9  and  C_10
REMARK    5  A    between atoms: C_10  and  C_11
REMARK                            x       y       z     vdW  Elec       q    Type
REMARK                         _______ _______ _______ _____ _____    ______ ____
ROOT
ATOM      5  N   UNL     1      -0.659   2.048  24.554  0.00  0.00    -0.260 N 
ATOM      6  C   UNL     1      -1.358   2.094  24.117  0.00  0.00    +0.116 C 
ATOM      7  C   UNL     1      -1.865   2.616  24.503  0.00  0.00    +0.113 C 
ATOM      8  C   UNL     1      -2.629   2.876  24.328  0.00  0.00    +0.094 C 
ATOM      9  N   UNL     1      -3.007   3.412  24.826  0.00  0.00    -0.266 NA
ATOM     17  C   UNL     1      -2.623   3.689  25.502  0.00  0.00    +0.094 C 
ATOM     18  C   UNL     1      -1.860   3.430  25.678  0.00  0.00    +0.112 C 
ATOM     19  N   UNL     1      -1.481   2.893  25.179  0.00  0.00    -0.261 N 
ATOM     20  C   UNL     1      -0.736   2.542  25.210  0.00  0.00    +0.307 C 
ATOM     21  O   UNL     1      -0.166   2.664  25.795  0.00  0.00    -0.252 OA
ENDROOT
BRANCH   5   4
ATOM      4  C   UNL     1       0.000   1.588  24.368  0.00  0.00    +0.127 C 
BRANCH   4   3
ATOM      3  C   UNL     1      -0.082   0.926  23.883  0.00  0.00    +0.164 C 
BRANCH   3   2
ATOM      1  C   UNL     1       0.564  -0.236  23.361  0.00  0.00    +0.174 C 
ATOM      2  O   UNL     1       0.587   0.563  23.563  0.00  0.00    -0.349 OA
ENDBRANCH   3   2
ENDBRANCH   4   3
ENDBRANCH   5   4
BRANCH   9  10
ATOM     10  C   UNL     1      -3.771   3.672  24.651  0.00  0.00    +0.102 C 
BRANCH  10  11
ATOM     11  C   UNL     1      -4.423   3.295  24.987  0.00  0.00    +0.033 A 
ATOM     12  C   UNL     1      -4.834   2.656  24.664  0.00  0.00    +0.094 A 
ATOM     13  N   UNL     1      -5.444   2.457  25.182  0.00  0.00    -0.248 N 
ATOM     14  C   UNL     1      -5.991   1.850  25.076  0.00  0.00    +0.154 C 
ATOM     15  N   UNL     1      -5.410   2.973  25.826  0.00  0.00    -0.168 NA
ATOM     16  C   UNL     1      -4.779   3.491  25.705  0.00  0.00    +0.119 A 
ENDBRANCH  10  11
ENDBRANCH   9  10
TORSDOF 5
ENDMDL
MODEL 4
REMARK VINA RESULT:      -7.5      2.227      4.139
REMARK  Name = 
REMARK  5 active torsions:
REMARK  status: ('A' for Active; 'I' for Inactive)
REMARK    1  A    between atoms: O_2  and  C_3
REMARK    2  A    between atoms: C_3  and  C_4
REMARK    3  A    between atoms: C_4  and  N_5
REMARK    4  A    between atoms: N_9  and  C_10
REMARK    5  A    between atoms: C_10  and  C_11
REMARK                            x       y       z     vdW  Elec       q    Type
REMARK                         _______ _______ _______ _____ _____    ______ ____
ROOT
ATOM      5  N   UNL     1      -1.027   1.011  24.767  0.00  0.00    -0.260 N 
ATOM      6  C   UNL     1      -1.767   1.025  24.401  0.00  0.00    +0.116 C 
ATOM      7  C   UNL     1      -2.105   1.764  24.539  0.00  0.00    +0.113 C 
ATOM      8  C   UNL     1      -2.827   2.092  24.312  0.00  0.00    +0.094 C 
ATOM      9  N   UNL     1      -3.020   2.862  24.536  0.00  0.00    -0.266 NA
ATOM     17  C   UNL     1      -2.490   3.305  24.987  0.00  0.00    +0.094 C 
ATOM     18  C   UNL     1      -1.767   2.978  25.214  0.00  0.00    +0.112 C 
ATOM     19  N   UNL     1      -1.575   2.207  24.990  0.00  0.00    -0.261 N 
ATOM     20  C   UNL     1      -0.909   1.742  25.131  0.00  0.00    +0.307 C 
ATOM     21  O   UNL     1      -0.241   1.967  25.560  0.00  0.00    -0.252 OA
ENDROOT
BRANCH   5   4
ATOM      4  C   UNL     1      -0.499   0.377  24.769  0.00  0.00    +0.127 C 
BRANCH   4   3
ATOM      3  C   UNL     1      -0.782  -0.397  24.802  0.00  0.00    +0.164 C 
BRANCH   3   2
ATOM      1  C   UNL     1      -0.480  -1.739  25.186  0.00  0.00    +0.174 C 
ATOM      2  O   UNL     1      -0.254  -1.029  24.831  0.00  0.00    -0.349 OA
ENDBRANCH   3   2
ENDBRANCH   4   3
ENDBRANCH   5   4
BRANCH   9  10
ATOM     10  C   UNL     1      -3.742   3.190  24.310  0.00  0.00    +0.102 C 
BRANCH  10  11
ATOM     11  C   UNL     1      -4.412   3.077  24.777  0.00  0.00    +0.033 A 
ATOM     12  C   UNL     1      -4.956   2.461  24.705  0.00  0.00    +0.094 A 
ATOM     13  N   UNL     1      -5.536   2.564  25.283  0.00  0.00    -0.248 N 
ATOM     14  C   UNL     1      -6.187   2.073  25.409  0.00  0.00    +0.154 C 
ATOM     15  N   UNL     1      -5.350   3.243  25.713  0.00  0.00    -0.168 NA
ATOM     16  C   UNL     1      -4.655   3.560  25.401  0.00  0.00    +0.119 A 
ENDBRANCH  10  11
ENDBRANCH   9  10
TORSDOF 5
ENDMDL
MODEL 5
REMARK VINA RESULT:      -7.5      2.103      2.806
REMARK  Name = 
REMARK  5 active torsions:
REMARK  status: ('A' for Active; 'I' for Inactive)
REMARK    1  A    between atoms: O_2  and  C_3
REMARK    2  A    between atoms: C_3  and  C_4
REMARK    3  A    between atoms: C_4  and  N_5
REMARK    4  A    between atoms: N_9  and  C_10
REMARK    5  A    between atoms: C_10  and  C_11
REMARK                            x       y       z     vdW  Elec       q    Type
REMARK                         _______ _______ _______ _____ _____    ______ ____
ROOT
ATOM      5  N   UNL     1      -0.707   2.186  24.760  0.00  0.00    -0.260 N 
ATOM      6  C   UNL     1      -1.366   1.866  25.139  0.00  0.00    +0.116 C 
ATOM      7  C   UNL     1      -1.294   1.045  25.123  0.00  0.00    +0.113 C 
ATOM      8  C   UNL     1      -1.778   0.442  25.412  0.00  0.00    +0.094 C 
ATOM      9  N   UNL     1      -1.560  -0.347  25.313  0.00  0.00    -0.266 NA
ATOM     17  C   UNL     1      -0.856  -0.534  24.925  0.00  0.00    +0.094 C 
ATOM     18  C   UNL     1      -0.371   0.068  24.636  0.00  0.00    +0.112 C 
ATOM     19  N   UNL     1      -0.591   0.857  24.735  0.00  0.00    -0.261 N 
ATOM     20  C   UNL     1      -0.228   1.563  24.511  0.00  0.00    +0.307 C 
ATOM     21  O   UNL     1       0.489   1.633  24.108  0.00  0.00    -0.252 OA
ENDROOT
BRANCH   5   4
ATOM      4  C   UNL     1      -0.554   2.990  24.650  0.00  0.00    +0.127 C 
BRANCH   4   3
ATOM      3  C   UNL     1      -1.025   3.555  25.024  0.00  0.00    +0.164 C 
BRANCH   3   2
ATOM      1  C   UNL     1      -1.362   4.939  25.132  0.00  0.00    +0.174 C 
ATOM      2  O   UNL     1      -0.797   4.348  25.024  0.00  0.00    -0.349 OA
ENDBRANCH   3   2
ENDBRANCH   4   3
ENDBRANCH   5   4
BRANCH   9  10
ATOM     10  C   UNL     1      -2.044  -0.949  25.602  0.00  0.00    +0.102 C 
BRANCH  10  11
ATOM     11  C   UNL     1      -2.510  -1.389  25.083  0.00  0.00    +0.033 A 
ATOM     12  C   UNL     1      -3.274  -1.199  24.838  0.00  0.00    +0.094 A 
ATOM     13  N   UNL     1      -3.531  -1.789  24.321  0.00  0.00    -0.248 N 
ATOM     14  C   UNL     1      -4.264  -1.818  23.945  0.00  0.00    +0.154 C 
ATOM     15  N   UNL     1      -2.925  -2.344  24.247  0.00  0.00    -0.168 NA
ATOM     16  C   UNL     1      -2.294  -2.097  24.718  0.00  0.00    +0.119 A 
ENDBRANCH  10  11
ENDBRANCH   9  10
TORSDOF 5
ENDMDL
MODEL 6
REMARK VINA RESULT:      -7.4      2.340      3.953
REMARK  Name = 
REMARK  5 active torsions:
REMARK  status: ('A' for Active; 'I' for Inactive)
REMARK    1  A    between atoms: O_2  and  C_3
REMARK    2  A    between atoms: C_3  and  C_4
REMARK    3  A    between atoms: C_4  and  N_5
REMARK    4  A    between atoms: N_9  and  C_10
REMARK    5  A    between atoms: C_10  and  C_11
REMARK                            x       y       z     vdW  Elec       q    Type
REMARK                         _______ _______ _______ _____ _____    ______ ____
ROOT
ATOM      5  N   UNL     1      -1.484  -0.174  24.636  0.00  0.00    -0.260 N 
ATOM      6  C   UNL     1      -1.912   0.412  24.242  0.00  0.00    +0.116 C 
ATOM      7  C   UNL     1      -2.695   0.370  24.496  0.00  0.00    +0.113 C 
ATOM      8  C   UNL     1      -3.364   0.809  24.298  0.00  0.00    +0.094 C 
ATOM      9  N   UNL     1      -4.090   0.638  24.650  0.00  0.00    -0.266 NA
ATOM     17  C   UNL     1      -4.147   0.027  25.201  0.00  0.00    +0.094 C 
ATOM     18  C   UNL     1      -3.478  -0.413  25.400  0.00  0.00    +0.112 C 
ATOM     19  N   UNL     1      -2.751  -0.241  25.047  0.00  0.00    -0.261 N 
ATOM     20  C   UNL     1      -2.003  -0.577  25.134  0.00  0.00    +0.307 C 
ATOM     21  O   UNL     1      -1.808  -1.206  25.631  0.00  0.00    -0.252 OA
ENDROOT
BRANCH   5   4
ATOM      4  C   UNL     1      -0.678  -0.328  24.548  0.00  0.00    +0.127 C 
BRANCH   4   3
ATOM      3  C   UNL     1      -0.281  -0.073  23.872  0.00  0.00    +0.164 C 
BRANCH   3   2
ATOM      1  C   UNL     1       0.899  -0.057  23.066  0.00  0.00    +0.174 C 
ATOM      2  O   UNL     1       0.466  -0.375  23.693  0.00  0.00    -0.349 OA
ENDBRANCH   3   2
ENDBRANCH   4   3
ENDBRANCH   5   4
BRANCH   9  10
ATOM     10  C   UNL     1      -4.760   1.077  24.451  0.00  0.00    +0.102 C 
BRANCH  10  11
ATOM     11  C   UNL     1      -4.987   1.717  24.918  0.00  0.00    +0.033 A 
ATOM     12  C   UNL     1      -4.722   2.494  24.840  0.00  0.00    +0.094 A 
ATOM     13  N   UNL     1      -5.092   2.950  25.420  0.00  0.00    -0.248 N 
ATOM     14  C   UNL     1      -4.986   3.759  25.541  0.00  0.00    +0.154 C 
ATOM     15  N   UNL     1      -5.586   2.454  25.857  0.00  0.00    -0.168 NA
ATOM     16  C   UNL     1      -5.521   1.692  25.547  0.00  0.00    +0.119 A 
ENDBRANCH  10  11
ENDBRANCH   9  10
TORSDOF 5
ENDMDL
MODEL 7
REMARK VINA RESULT:      -7.2      1.871      4.344
REMARK  Name = 
REMARK  5 active torsions:
REMARK  status: ('A' for Active; 'I' for Inactive)
REMARK    1  A    between atoms: O_2  and  C_3
REMARK    2  A    between atoms: C_3  and  C_4
REMARK    3  A    between atoms: C_4  and  N_5
REMARK    4  A    between atoms: N_9  and  C_10
REMARK    5  A    between atoms: C_10  and  C_11
REMARK                            x       y       z     vdW  Elec       q    Type
REMARK                         _______ _______ _______ _____ _____    ______ ____
ROOT
ATOM      5  N   UNL     1      -2.969  -0.474  24.686  0.00  0.00    -0.260 N 
ATOM      6  C   UNL     1      -2.667   0.244  24.413  0.00  0.00    +0.116 C 
ATOM      7  C   UNL     1      -3.236   0.826  24.546  0.00  0.00    +0.113 C 
ATOM      8  C   UNL     1      -3.245   1.636  24.390  0.00  0.00    +0.094 C 
ATOM      9  N   UNL     1      -3.905   2.088  24.588  0.00  0.00    -0.266 NA
ATOM     17  C   UNL     1      -4.558   1.729  24.943  0.00  0.00    +0.094 C 
ATOM     18  C   UNL     1      -4.551   0.920  25.099  0.00  0.00    +0.112 C 
ATOM     19  N   UNL     1      -3.889   0.468  24.901  0.00  0.00    -0.261 N 
ATOM     20  C   UNL     1      -3.724  -0.336  24.987  0.00  0.00    +0.307 C 
ATOM     21  O   UNL     1      -4.226  -0.902  25.317  0.00  0.00    -0.252 OA
ENDROOT
BRANCH   5   4
ATOM      4  C   UNL     1      -2.582  -1.203  24.661  0.00  0.00    +0.127 C 
BRANCH   4   3
ATOM      3  C   UNL     1      -1.759  -1.235  24.705  0.00  0.00    +0.164 C 
BRANCH   3   2
ATOM      1  C   UNL     1      -0.628  -2.043  25.036  0.00  0.00    +0.174 C 
ATOM      2  O   UNL     1      -1.374  -1.965  24.691  0.00  0.00    -0.349 OA
ENDBRANCH   3   2
ENDBRANCH   4   3
ENDBRANCH   5   4
BRANCH   9  10
ATOM     10  C   UNL     1      -3.914   2.898  24.432  0.00  0.00    +0.102 C 
BRANCH  10  11
ATOM     11  C   UNL     1      -3.487   3.415  24.912  0.00  0.00    +0.033 A 
ATOM     12  C   UNL     1      -2.774   3.781  24.718  0.00  0.00    +0.094 A 
ATOM     13  N   UNL     1      -2.545   4.250  25.356  0.00  0.00    -0.248 N 
ATOM     14  C   UNL     1      -1.864   4.713  25.398  0.00  0.00    +0.154 C 
ATOM     15  N   UNL     1      -3.117   4.174  25.947  0.00  0.00    -0.168 NA
ATOM     16  C   UNL     1      -3.699   3.658  25.672  0.00  0.00    +0.119 A 
ENDBRANCH  10  11
ENDBRANCH   9  10
TORSDOF 5
ENDMDL
MODEL 8
REMARK VINA RESULT:      -7.1      2.033      4.348
REMARK  Name = 
REMARK  5 active torsions:
REMARK  status: ('A' for Active; 'I' for Inactive)
REMARK    1  A    between atoms: O_2  and  C_3
REMARK    2  A    between atoms: C_3  and  C_4
REMARK    3  A    between atoms: C_4  and  N_5
REMARK    4  A    between atoms: N_9  and  C_10
REMARK    5  A    between atoms: C_10  and  C_11
REMARK                            x       y       z     vdW  Elec       q    Type
REMARK                         _______ _______ _______ _____ _____    ______ ____
ROOT
ATOM      5  N   UNL     1      -3.997  -0.012  24.281  0.00  0.00    -0.260 N 
ATOM      6  C   UNL     1      -3.229   0.192  24.059  0.00  0.00    +0.116 C 
ATOM      7  C   UNL     1      -3.125   0.995  24.210  0.00  0.00    +0.113 C 
ATOM      8  C   UNL     1      -2.481   1.499  24.102  0.00  0.00    +0.094 C 
ATOM      9  N   UNL     1      -2.539   2.295  24.308  0.00  0.00    -0.266 NA
ATOM     17  C   UNL     1      -3.243   2.588  24.624  0.00  0.00    +0.094 C 
ATOM     18  C   UNL     1      -3.888   2.085  24.733  0.00  0.00    +0.112 C 
ATOM     19  N   UNL     1      -3.828   1.288  24.526  0.00  0.00    -0.261 N 
ATOM     20  C   UNL     1      -4.367   0.666  24.570  0.00  0.00    +0.307 C 
ATOM     21  O   UNL     1      -5.141   0.713  24.852  0.00  0.00    -0.252 OA
ENDROOT
BRANCH   5   4
ATOM      4  C   UNL     1      -4.335  -0.763  24.224  0.00  0.00    +0.127 C 
BRANCH   4   3
ATOM      3  C   UNL     1      -3.854  -1.432  24.207  0.00  0.00    +0.164 C 
BRANCH   3   2
ATOM      1  C   UNL     1      -3.743  -2.855  24.268  0.00  0.00    +0.174 C 
ATOM      2  O   UNL     1      -4.189  -2.180  24.110  0.00  0.00    -0.349 OA
ENDBRANCH   3   2
ENDBRANCH   4   3
ENDBRANCH   5   4
BRANCH   9  10
ATOM     10  C   UNL     1      -1.895   2.799  24.200  0.00  0.00    +0.102 C 
BRANCH  10  11
ATOM     11  C   UNL     1      -1.392   2.968  24.831  0.00  0.00    +0.033 A 
ATOM     12  C   UNL     1      -0.778   2.489  25.104  0.00  0.00    +0.094 A 
ATOM     13  N   UNL     1      -0.421   2.871  25.742  0.00  0.00    -0.248 N 
ATOM     14  C   UNL     1       0.216   2.588  26.182  0.00  0.00    +0.154 C 
ATOM     15  N   UNL     1      -0.814   3.587  25.864  0.00  0.00    -0.168 NA
ATOM     16  C   UNL     1      -1.414   3.647  25.300  0.00  0.00    +0.119 A 
ENDBRANCH  10  11
ENDBRANCH   9  10
TORSDOF 5
ENDMDL
MODEL 9
REMARK VINA RESULT:      -6.6     16.716     18.600
REMARK  Name = 
REMARK  5 active torsions:
REMARK  status: ('A' for Active; 'I' for Inactive)
REMARK    1  A    between atoms: O_2  and  C_3
REMARK    2  A    between atoms: C_3  and  C_4
REMARK    3  A    between atoms: C_4  and  N_5
REMARK    4  A    between atoms: N_9  and  C_10
REMARK    5  A    between atoms: C_10  and  C_11
REMARK                            x       y       z     vdW  Elec       q    Type
REMARK                         _______ _______ _______ _____ _____    ______ ____
ROOT
ATOM      5  N   UNL     1      14.922   6.834  19.762  0.00  0.00    -0.260 N 
ATOM      6  C   UNL     1      14.436   6.715  20.419  0.00  0.00    +0.116 C 
ATOM      7  C   UNL     1      13.659   6.870  20.191  0.00  0.00    +0.113 C 
ATOM      8  C   UNL     1      12.946   6.844  20.607  0.00  0.00    +0.094 C 
ATOM      9  N   UNL     1      12.239   7.031  20.226  0.00  0.00    -0.266 NA
ATOM     17  C   UNL     1      12.244   7.246  19.429  0.00  0.00    +0.094 C 
ATOM     18  C   UNL     1      12.956   7.272  19.013  0.00  0.00    +0.112 C 
ATOM     19  N   UNL     1      13.664   7.084  19.395  0.00  0.00    -0.261 N 
ATOM     20  C   UNL     1      14.444   7.062  19.130  0.00  0.00    +0.307 C 
ATOM     21  O   UNL     1      14.702   7.237  18.365  0.00  0.00    -0.252 OA
ENDROOT
BRANCH   5   4
ATOM      4  C   UNL     1      15.741   6.741  19.742  0.00  0.00    +0.127 C 
BRANCH   4   3
ATOM      3  C   UNL     1      16.166   6.673  20.446  0.00  0.00    +0.164 C 
BRANCH   3   2
ATOM      1  C   UNL     1      17.405   6.469  21.129  0.00  0.00    +0.174 C 
ATOM      2  O   UNL     1      16.973   6.503  20.426  0.00  0.00    -0.349 OA
ENDBRANCH   3   2
ENDBRANCH   4   3
ENDBRANCH   5   4
BRANCH   9  10
ATOM     10  C   UNL     1      11.526   7.005  20.641  0.00  0.00    +0.102 C 
BRANCH  10  11
ATOM     11  C   UNL     1      11.227   7.688  20.992  0.00  0.00    +0.033 A 
ATOM     12  C   UNL     1      11.190   7.842  21.801  0.00  0.00    +0.094 A 
ATOM     13  N   UNL     1      10.852   8.588  21.905  0.00  0.00    -0.248 N 
ATOM     14  C   UNL     1      10.711   8.960  22.626  0.00  0.00    +0.154 C 
ATOM     15  N   UNL     1      10.680   8.895  21.158  0.00  0.00    -0.168 NA
ATOM     16  C   UNL     1      10.912   8.339  20.594  0.00  0.00    +0.119 A 
ENDBRANCH  10  11
ENDBRANCH   9  10
TORSDOF 5
ENDMDL
MODEL 10
REMARK VINA RESULT:      -6.5     16.890     19.134
REMARK  Name = 
REMARK  5 active torsions:
REMARK  status: ('A' for Active; 'I' for Inactive)
REMARK    1  A    between atoms: O_2  and  C_3
REMARK    2  A    between atoms: C_3  and  C_4
REMARK    3  A    between atoms: C_4  and  N_5
REMARK    4  A    between atoms: N_9  and  C_10
REMARK    5  A    between atoms: C_10  and  C_11
REMARK                            x       y       z     vdW  Elec       q    Type
REMARK                         _______ _______ _______ _____ _____    ______ ____
ROOT
ATOM      5  N   UNL     1      12.371   6.807  20.636  0.00  0.00    -0.260 N 
ATOM      6  C   UNL     1      13.100   6.973  20.987  0.00  0.00    +0.116 C 
ATOM      7  C   UNL     1      13.644   7.122  20.385  0.00  0.00    +0.113 C 
ATOM      8  C   UNL     1      14.446   7.315  20.400  0.00  0.00    +0.094 C 
ATOM      9  N   UNL     1      14.855   7.434  19.695  0.00  0.00    -0.266 NA
ATOM     17  C   UNL     1      14.463   7.360  18.973  0.00  0.00    +0.094 C 
ATOM     18  C   UNL     1      13.661   7.167  18.956  0.00  0.00    +0.112 C 
ATOM     19  N   UNL     1      13.252   7.047  19.663  0.00  0.00    -0.261 N 
ATOM     20  C   UNL     1      12.466   6.853  19.818  0.00  0.00    +0.307 C 
ATOM     21  O   UNL     1      11.876   6.726  19.255  0.00  0.00    -0.252 OA
ENDROOT
BRANCH   5   4
ATOM      4  C   UNL     1      11.672   6.627  21.035  0.00  0.00    +0.127 C 
BRANCH   4   3
ATOM      3  C   UNL     1      11.326   7.184  21.535  0.00  0.00    +0.164 C 
BRANCH   3   2
ATOM      1  C   UNL     1      10.246   7.561  22.391  0.00  0.00    +0.174 C 
ATOM      2  O   UNL     1      10.675   6.976  21.998  0.00  0.00    -0.349 OA
ENDBRANCH   3   2
ENDBRANCH   4   3
ENDBRANCH   5   4
BRANCH   9  10
ATOM     10  C   UNL     1      15.657   7.628  19.710  0.00  0.00    +0.102 C 
BRANCH  10  11
ATOM     11  C   UNL     1      16.226   7.031  19.703  0.00  0.00    +0.033 A 
ATOM     12  C   UNL     1      16.443   6.575  19.050  0.00  0.00    +0.094 A 
ATOM     13  N   UNL     1      17.030   6.048  19.291  0.00  0.00    -0.248 N 
ATOM     14  C   UNL     1      17.405   5.489  18.814  0.00  0.00    +0.154 C 
ATOM     15  N   UNL     1      17.176   6.178  20.093  0.00  0.00    -0.168 NA
ATOM     16  C   UNL     1      16.679   6.785  20.347  0.00  0.00    +0.119 A 
ENDBRANCH  10  11
ENDBRANCH   9  10
TORSDOF 5
ENDMDL
