MODEL 1
REMARK VINA RESULT:      -8.4      0.000      0.000
REMARK  Name = 
REMARK  6 active torsions:
REMARK  status: ('A' for Active; 'I' for Inactive)
REMARK    1  A    between atoms: O_2  and  C_3
REMARK    2  A    between atoms: C_3  and  C_4
REMARK    3  A    between atoms: C_4  and  O_5
REMARK    4  A    between atoms: O_5  and  C_6
REMARK    5  A    between atoms: C_9  and  C_12
REMARK    6  A    between atoms: C_15  and  C_17
REMARK                            x       y       z     vdW  Elec       q    Type
REMARK                         _______ _______ _______ _____ _____    ______ ____
ROOT
ATOM      6  C   UNL     1      -3.344   3.168  24.634  0.00  0.00    +0.225 A 
ATOM      7  C   UNL     1      -3.172   2.672  23.997  0.00  0.00    +0.058 A 
ATOM      8  C   UNL     1      -3.451   1.896  23.992  0.00  0.00    +0.010 A 
ATOM      9  C   UNL     1      -3.901   1.615  24.622  0.00  0.00    +0.058 A 
ATOM     10  C   UNL     1      -4.073   2.110  25.260  0.00  0.00    +0.105 A 
ATOM     11  N   UNL     1      -3.794   2.887  25.265  0.00  0.00    -0.210 NA
ENDROOT
BRANCH   9  12
ATOM     12  C   UNL     1      -4.180   0.838  24.617  0.00  0.00    +0.205 A 
ATOM     13  N   UNL     1      -4.969   0.606  24.679  0.00  0.00    -0.056 NA
ATOM     14  O   UNL     1      -4.995  -0.218  24.649  0.00  0.00    -0.336 OA
ATOM     15  C   UNL     1      -4.222  -0.495  24.568  0.00  0.00    +0.251 A 
ATOM     16  N   UNL     1      -3.718   0.157  24.549  0.00  0.00    -0.190 NA
BRANCH  15  17
ATOM     17  C   UNL     1      -3.993  -1.286  24.517  0.00  0.00    +0.138 C 
ATOM     18  C   UNL     1      -4.113  -1.784  23.868  0.00  0.00    +0.027 C 
ATOM     19  C   UNL     1      -3.798  -2.524  24.054  0.00  0.00    +0.019 C 
ATOM     20  C   UNL     1      -3.484  -2.483  24.816  0.00  0.00    +0.073 C 
ATOM     21  N   UNL     1      -3.605  -1.718  25.102  0.00  0.00    -0.265 NA
ATOM     22  C   UNL     1      -3.377  -1.435  25.842  0.00  0.00    +0.090 C 
ENDBRANCH  15  17
ENDBRANCH   9  12
BRANCH   6   5
ATOM      5  O   UNL     1      -3.065   3.944  24.639  0.00  0.00    -0.457 OA
BRANCH   5   4
ATOM      4  C   UNL     1      -2.327   4.115  24.968  0.00  0.00    +0.239 C 
BRANCH   4   3
ATOM      3  C   UNL     1      -2.041   4.888  24.959  0.00  0.00    +0.189 C 
BRANCH   3   2
ATOM      1  C   UNL     1      -0.656   5.222  24.847  0.00  0.00    +0.174 C 
ATOM      2  O   UNL     1      -1.318   5.064  25.315  0.00  0.00    -0.347 OA
ENDBRANCH   3   2
ENDBRANCH   4   3
ENDBRANCH   5   4
ENDBRANCH   6   5
TORSDOF 6
ENDMDL
MODEL 2
REMARK VINA RESULT:      -8.3      1.135      5.246
REMARK  Name = 
REMARK  6 active torsions:
REMARK  status: ('A' for Active; 'I' for Inactive)
REMARK    1  A    between atoms: O_2  and  C_3
REMARK    2  A    between atoms: C_3  and  C_4
REMARK    3  A    between atoms: C_4  and  O_5
REMARK    4  A    between atoms: O_5  and  C_6
REMARK    5  A    between atoms: C_9  and  C_12
REMARK    6  A    between atoms: C_15  and  C_17
REMARK                            x       y       z     vdW  Elec       q    Type
REMARK                         _______ _______ _______ _____ _____    ______ ____
ROOT
ATOM      6  C   UNL     1      -4.172  -0.175  24.227  0.00  0.00    +0.225 A 
ATOM      7  C   UNL     1      -4.527   0.314  24.790  0.00  0.00    +0.058 A 
ATOM      8  C   UNL     1      -4.320   1.111  24.833  0.00  0.00    +0.010 A 
ATOM      9  C   UNL     1      -3.758   1.420  24.316  0.00  0.00    +0.058 A 
ATOM     10  C   UNL     1      -3.403   0.932  23.753  0.00  0.00    +0.105 A 
ATOM     11  N   UNL     1      -3.610   0.134  23.709  0.00  0.00    -0.210 NA
ENDROOT
BRANCH   9  12
ATOM     12  C   UNL     1      -3.551   2.218  24.360  0.00  0.00    +0.205 A 
ATOM     13  N   UNL     1      -3.976   2.847  24.039  0.00  0.00    -0.056 NA
ATOM     14  O   UNL     1      -3.570   3.544  24.213  0.00  0.00    -0.336 OA
ATOM     15  C   UNL     1      -2.894   3.345  24.642  0.00  0.00    +0.251 A 
ATOM     16  N   UNL     1      -2.882   2.525  24.733  0.00  0.00    -0.190 NA
BRANCH  15  17
ATOM     17  C   UNL     1      -2.329   3.872  24.930  0.00  0.00    +0.138 C 
ATOM     18  C   UNL     1      -1.609   4.056  24.569  0.00  0.00    +0.027 C 
ATOM     19  C   UNL     1      -1.219   4.606  25.045  0.00  0.00    +0.019 C 
ATOM     20  C   UNL     1      -1.697   4.762  25.699  0.00  0.00    +0.073 C 
ATOM     21  N   UNL     1      -2.383   4.308  25.628  0.00  0.00    -0.265 NA
ATOM     22  C   UNL     1      -3.012   4.293  26.161  0.00  0.00    +0.090 C 
ENDBRANCH  15  17
ENDBRANCH   9  12
BRANCH   6   5
ATOM      5  O   UNL     1      -4.379  -0.972  24.183  0.00  0.00    -0.457 OA
BRANCH   5   4
ATOM      4  C   UNL     1      -3.825  -1.553  24.373  0.00  0.00    +0.239 C 
BRANCH   4   3
ATOM      3  C   UNL     1      -3.995  -2.347  24.229  0.00  0.00    +0.189 C 
BRANCH   3   2
ATOM      1  C   UNL     1      -2.926  -3.258  24.495  0.00  0.00    +0.174 C 
ATOM      2  O   UNL     1      -3.656  -2.933  24.701  0.00  0.00    -0.347 OA
ENDBRANCH   3   2
ENDBRANCH   4   3
ENDBRANCH   5   4
ENDBRANCH   6   5
TORSDOF 6
ENDMDL
MODEL 3
REMARK VINA RESULT:      -8.1      2.401      5.792
REMARK  Name = 
REMARK  6 active torsions:
REMARK  status: ('A' for Active; 'I' for Inactive)
REMARK    1  A    between atoms: O_2  and  C_3
REMARK    2  A    between atoms: C_3  and  C_4
REMARK    3  A    between atoms: C_4  and  O_5
REMARK    4  A    between atoms: O_5  and  C_6
REMARK    5  A    between atoms: C_9  and  C_12
REMARK    6  A    between atoms: C_15  and  C_17
REMARK                            x       y       z     vdW  Elec       q    Type
REMARK                         _______ _______ _______ _____ _____    ______ ____
ROOT
ATOM      6  C   UNL     1      -1.230  -0.564  24.866  0.00  0.00    +0.225 A 
ATOM      7  C   UNL     1      -1.290  -0.295  25.645  0.00  0.00    +0.058 A 
ATOM      8  C   UNL     1      -1.131   0.495  25.821  0.00  0.00    +0.010 A 
ATOM      9  C   UNL     1      -0.912   1.016  25.221  0.00  0.00    +0.058 A 
ATOM     10  C   UNL     1      -0.851   0.748  24.443  0.00  0.00    +0.105 A 
ATOM     11  N   UNL     1      -1.011  -0.043  24.266  0.00  0.00    -0.210 NA
ENDROOT
BRANCH   9  12
ATOM     12  C   UNL     1      -0.752   1.806  25.398  0.00  0.00    +0.205 A 
ATOM     13  N   UNL     1      -0.161   2.080  25.903  0.00  0.00    -0.056 NA
ATOM     14  O   UNL     1      -0.200   2.903  25.918  0.00  0.00    -0.336 OA
ATOM     15  C   UNL     1      -0.815   3.139  25.422  0.00  0.00    +0.251 A 
ATOM     16  N   UNL     1      -1.157   2.461  25.100  0.00  0.00    -0.190 NA
BRANCH  15  17
ATOM     17  C   UNL     1      -1.049   3.917  25.273  0.00  0.00    +0.138 C 
ATOM     18  C   UNL     1      -0.623   4.475  24.838  0.00  0.00    +0.027 C 
ATOM     19  C   UNL     1      -1.060   5.176  24.828  0.00  0.00    +0.019 C 
ATOM     20  C   UNL     1      -1.753   5.050  25.257  0.00  0.00    +0.073 C 
ATOM     21  N   UNL     1      -1.746   4.272  25.531  0.00  0.00    -0.265 NA
ATOM     22  C   UNL     1      -2.334   3.912  25.984  0.00  0.00    +0.090 C 
ENDBRANCH  15  17
ENDBRANCH   9  12
BRANCH   6   5
ATOM      5  O   UNL     1      -1.389  -1.354  24.690  0.00  0.00    -0.457 OA
BRANCH   5   4
ATOM      4  C   UNL     1      -2.165  -1.633  24.715  0.00  0.00    +0.239 C 
BRANCH   4   3
ATOM      3  C   UNL     1      -2.341  -2.386  24.428  0.00  0.00    +0.189 C 
BRANCH   3   2
ATOM      1  C   UNL     1      -3.679  -2.847  24.225  0.00  0.00    +0.174 C 
ATOM      2  O   UNL     1      -3.008  -2.785  24.703  0.00  0.00    -0.347 OA
ENDBRANCH   3   2
ENDBRANCH   4   3
ENDBRANCH   5   4
ENDBRANCH   6   5
TORSDOF 6
ENDMDL
MODEL 4
REMARK VINA RESULT:      -8.0      3.069      4.214
REMARK  Name = 
REMARK  6 active torsions:
REMARK  status: ('A' for Active; 'I' for Inactive)
REMARK    1  A    between atoms: O_2  and  C_3
REMARK    2  A    between atoms: C_3  and  C_4
REMARK    3  A    between atoms: C_4  and  O_5
REMARK    4  A    between atoms: O_5  and  C_6
REMARK    5  A    between atoms: C_9  and  C_12
REMARK    6  A    between atoms: C_15  and  C_17
REMARK                            x       y       z     vdW  Elec       q    Type
REMARK                         _______ _______ _______ _____ _____    ______ ____
ROOT
ATOM      6  C   UNL     1      -0.704   0.781  24.020  0.00  0.00    +0.225 A 
ATOM      7  C   UNL     1      -1.375   0.308  24.102  0.00  0.00    +0.058 A 
ATOM      8  C   UNL     1      -2.123   0.656  24.124  0.00  0.00    +0.010 A 
ATOM      9  C   UNL     1      -2.200   1.474  24.064  0.00  0.00    +0.058 A 
ATOM     10  C   UNL     1      -1.529   1.947  23.982  0.00  0.00    +0.105 A 
ATOM     11  N   UNL     1      -0.780   1.600  23.960  0.00  0.00    -0.210 NA
ENDROOT
BRANCH   9  12
ATOM     12  C   UNL     1      -2.949   1.821  24.086  0.00  0.00    +0.205 A 
ATOM     13  N   UNL     1      -3.293   2.268  23.484  0.00  0.00    -0.056 NA
ATOM     14  O   UNL     1      -4.041   2.505  23.739  0.00  0.00    -0.336 OA
ATOM     15  C   UNL     1      -4.158   2.205  24.499  0.00  0.00    +0.251 A 
ATOM     16  N   UNL     1      -3.483   1.782  24.714  0.00  0.00    -0.190 NA
BRANCH  15  17
ATOM     17  C   UNL     1      -4.832   2.309  24.964  0.00  0.00    +0.138 C 
ATOM     18  C   UNL     1      -5.461   1.778  25.032  0.00  0.00    +0.027 C 
ATOM     19  C   UNL     1      -6.013   2.102  25.552  0.00  0.00    +0.019 C 
ATOM     20  C   UNL     1      -5.726   2.834  25.804  0.00  0.00    +0.073 C 
ATOM     21  N   UNL     1      -4.997   2.961  25.441  0.00  0.00    -0.265 NA
ATOM     22  C   UNL     1      -4.516   3.624  25.538  0.00  0.00    +0.090 C 
ENDBRANCH  15  17
ENDBRANCH   9  12
BRANCH   6   5
ATOM      5  O   UNL     1       0.044   0.434  23.998  0.00  0.00    -0.457 OA
BRANCH   5   4
ATOM      4  C   UNL     1       0.410   0.288  23.273  0.00  0.00    +0.239 C 
BRANCH   4   3
ATOM      3  C   UNL     1       1.188   0.014  23.251  0.00  0.00    +0.189 C 
BRANCH   3   2
ATOM      1  C   UNL     1       2.388  -0.001  22.475  0.00  0.00    +0.174 C 
ATOM      2  O   UNL     1       1.568  -0.087  22.526  0.00  0.00    -0.347 OA
ENDBRANCH   3   2
ENDBRANCH   4   3
ENDBRANCH   5   4
ENDBRANCH   6   5
TORSDOF 6
ENDMDL
MODEL 5
REMARK VINA RESULT:      -7.6      2.185      2.514
REMARK  Name = 
REMARK  6 active torsions:
REMARK  status: ('A' for Active; 'I' for Inactive)
REMARK    1  A    between atoms: O_2  and  C_3
REMARK    2  A    between atoms: C_3  and  C_4
REMARK    3  A    between atoms: C_4  and  O_5
REMARK    4  A    between atoms: O_5  and  C_6
REMARK    5  A    between atoms: C_9  and  C_12
REMARK    6  A    between atoms: C_15  and  C_17
REMARK                            x       y       z     vdW  Elec       q    Type
REMARK                         _______ _______ _______ _____ _____    ______ ____
ROOT
ATOM      6  C   UNL     1      -0.587   2.216  24.920  0.00  0.00    +0.225 A 
ATOM      7  C   UNL     1      -0.558   1.825  25.647  0.00  0.00    +0.058 A 
ATOM      8  C   UNL     1      -0.762   1.027  25.693  0.00  0.00    +0.010 A 
ATOM      9  C   UNL     1      -0.995   0.621  25.015  0.00  0.00    +0.058 A 
ATOM     10  C   UNL     1      -1.025   1.012  24.289  0.00  0.00    +0.105 A 
ATOM     11  N   UNL     1      -0.820   1.810  24.242  0.00  0.00    -0.210 NA
ENDROOT
BRANCH   9  12
ATOM     12  C   UNL     1      -1.200  -0.177  25.062  0.00  0.00    +0.205 A 
ATOM     13  N   UNL     1      -0.711  -0.788  25.325  0.00  0.00    -0.056 NA
ATOM     14  O   UNL     1      -1.138  -1.492  25.280  0.00  0.00    -0.336 OA
ATOM     15  C   UNL     1      -1.890  -1.318  24.989  0.00  0.00    +0.251 A 
ATOM     16  N   UNL     1      -1.929  -0.505  24.855  0.00  0.00    -0.190 NA
BRANCH  15  17
ATOM     17  C   UNL     1      -2.498  -1.860  24.856  0.00  0.00    +0.138 C 
ATOM     18  C   UNL     1      -2.490  -2.469  24.299  0.00  0.00    +0.027 C 
ATOM     19  C   UNL     1      -3.207  -2.874  24.355  0.00  0.00    +0.019 C 
ATOM     20  C   UNL     1      -3.657  -2.515  24.946  0.00  0.00    +0.073 C 
ATOM     21  N   UNL     1      -3.219  -1.888  25.255  0.00  0.00    -0.265 NA
ATOM     22  C   UNL     1      -3.459  -1.380  25.858  0.00  0.00    +0.090 C 
ENDBRANCH  15  17
ENDBRANCH   9  12
BRANCH   6   5
ATOM      5  O   UNL     1      -0.382   3.014  24.874  0.00  0.00    -0.457 OA
BRANCH   5   4
ATOM      4  C   UNL     1      -0.917   3.592  25.123  0.00  0.00    +0.239 C 
BRANCH   4   3
ATOM      3  C   UNL     1      -0.764   4.388  24.971  0.00  0.00    +0.189 C 
BRANCH   3   2
ATOM      1  C   UNL     1      -1.280   5.718  24.892  0.00  0.00    +0.174 C 
ATOM      2  O   UNL     1      -1.291   4.966  25.233  0.00  0.00    -0.347 OA
ENDBRANCH   3   2
ENDBRANCH   4   3
ENDBRANCH   5   4
ENDBRANCH   6   5
TORSDOF 6
ENDMDL
MODEL 6
REMARK VINA RESULT:      -7.3      4.011      4.467
REMARK  Name = 
REMARK  6 active torsions:
REMARK  status: ('A' for Active; 'I' for Inactive)
REMARK    1  A    between atoms: O_2  and  C_3
REMARK    2  A    between atoms: C_3  and  C_4
REMARK    3  A    between atoms: C_4  and  O_5
REMARK    4  A    between atoms: O_5  and  C_6
REMARK    5  A    between atoms: C_9  and  C_12
REMARK    6  A    between atoms: C_15  and  C_17
REMARK                            x       y       z     vdW  Elec       q    Type
REMARK                         _______ _______ _______ _____ _____    ______ ____
ROOT
ATOM      6  C   UNL     1       0.872   0.049  23.208  0.00  0.00    +0.225 A 
ATOM      7  C   UNL     1       0.516   0.777  23.365  0.00  0.00    +0.058 A 
ATOM      8  C   UNL     1      -0.163   0.810  23.833  0.00  0.00    +0.010 A 
ATOM      9  C   UNL     1      -0.484   0.118  24.144  0.00  0.00    +0.058 A 
ATOM     10  C   UNL     1      -0.128  -0.609  23.987  0.00  0.00    +0.105 A 
ATOM     11  N   UNL     1       0.551  -0.643  23.518  0.00  0.00    -0.210 NA
ENDROOT
BRANCH   9  12
ATOM     12  C   UNL     1      -1.163   0.152  24.612  0.00  0.00    +0.205 A 
ATOM     13  N   UNL     1      -1.184   0.138  25.436  0.00  0.00    -0.056 NA
ATOM     14  O   UNL     1      -1.973   0.183  25.672  0.00  0.00    -0.336 OA
ATOM     15  C   UNL     1      -2.440   0.225  24.993  0.00  0.00    +0.251 A 
ATOM     16  N   UNL     1      -1.940   0.206  24.338  0.00  0.00    -0.190 NA
BRANCH  15  17
ATOM     17  C   UNL     1      -3.263   0.278  24.973  0.00  0.00    +0.138 C 
ATOM     18  C   UNL     1      -3.701   0.943  24.754  0.00  0.00    +0.027 C 
ATOM     19  C   UNL     1      -4.502   0.751  24.813  0.00  0.00    +0.019 C 
ATOM     20  C   UNL     1      -4.558  -0.032  25.067  0.00  0.00    +0.073 C 
ATOM     21  N   UNL     1      -3.793  -0.324  25.166  0.00  0.00    -0.265 NA
ATOM     22  C   UNL     1      -3.592  -1.084  25.414  0.00  0.00    +0.090 C 
ENDBRANCH  15  17
ENDBRANCH   9  12
BRANCH   6   5
ATOM      5  O   UNL     1       1.551   0.016  22.739  0.00  0.00    -0.457 OA
BRANCH   5   4
ATOM      4  C   UNL     1       2.248   0.374  22.998  0.00  0.00    +0.239 C 
BRANCH   4   3
ATOM      3  C   UNL     1       2.950   0.257  22.582  0.00  0.00    +0.189 C 
BRANCH   3   2
ATOM      1  C   UNL     1       4.339   0.509  22.804  0.00  0.00    +0.174 C 
ATOM      2  O   UNL     1       3.574   0.789  22.669  0.00  0.00    -0.347 OA
ENDBRANCH   3   2
ENDBRANCH   4   3
ENDBRANCH   5   4
ENDBRANCH   6   5
TORSDOF 6
ENDMDL
MODEL 7
REMARK VINA RESULT:      -5.4     15.378     17.621
REMARK  Name = 
REMARK  6 active torsions:
REMARK  status: ('A' for Active; 'I' for Inactive)
REMARK    1  A    between atoms: O_2  and  C_3
REMARK    2  A    between atoms: C_3  and  C_4
REMARK    3  A    between atoms: C_4  and  O_5
REMARK    4  A    between atoms: O_5  and  C_6
REMARK    5  A    between atoms: C_9  and  C_12
REMARK    6  A    between atoms: C_15  and  C_17
REMARK                            x       y       z     vdW  Elec       q    Type
REMARK                         _______ _______ _______ _____ _____    ______ ____
ROOT
ATOM      6  C   UNL     1      -2.272 -10.592  12.943  0.00  0.00    +0.225 A 
ATOM      7  C   UNL     1      -3.088 -10.712  12.908  0.00  0.00    +0.058 A 
ATOM      8  C   UNL     1      -3.503 -10.523  12.221  0.00  0.00    +0.010 A 
ATOM      9  C   UNL     1      -3.103 -10.216  11.569  0.00  0.00    +0.058 A 
ATOM     10  C   UNL     1      -2.287 -10.096  11.604  0.00  0.00    +0.105 A 
ATOM     11  N   UNL     1      -1.872 -10.285  12.292  0.00  0.00    -0.210 NA
ENDROOT
BRANCH   9  12
ATOM     12  C   UNL     1      -3.518 -10.027  10.881  0.00  0.00    +0.205 A 
ATOM     13  N   UNL     1      -3.320 -10.262  10.116  0.00  0.00    -0.056 NA
ATOM     14  O   UNL     1      -3.883  -9.950   9.600  0.00  0.00    -0.336 OA
ATOM     15  C   UNL     1      -4.430  -9.523  10.046  0.00  0.00    +0.251 A 
ATOM     16  N   UNL     1      -4.205  -9.570  10.839  0.00  0.00    -0.190 NA
BRANCH  15  17
ATOM     17  C   UNL     1      -5.087  -9.120   9.753  0.00  0.00    +0.138 C 
ATOM     18  C   UNL     1      -5.142  -8.304   9.636  0.00  0.00    +0.027 C 
ATOM     19  C   UNL     1      -5.894  -8.140   9.336  0.00  0.00    +0.019 C 
ATOM     20  C   UNL     1      -6.302  -8.854   9.269  0.00  0.00    +0.073 C 
ATOM     21  N   UNL     1      -5.804  -9.459   9.527  0.00  0.00    -0.265 NA
ATOM     22  C   UNL     1      -5.989 -10.262   9.553  0.00  0.00    +0.090 C 
ENDBRANCH  15  17
ENDBRANCH   9  12
BRANCH   6   5
ATOM      5  O   UNL     1      -1.857 -10.781  13.631  0.00  0.00    -0.457 OA
BRANCH   5   4
ATOM      4  C   UNL     1      -1.975 -10.338  14.318  0.00  0.00    +0.239 C 
BRANCH   4   3
ATOM      3  C   UNL     1      -1.460 -10.425  14.957  0.00  0.00    +0.189 C 
BRANCH   3   2
ATOM      1  C   UNL     1      -1.289 -10.613  16.363  0.00  0.00    +0.174 C 
ATOM      2  O   UNL     1      -1.744 -10.347  15.727  0.00  0.00    -0.347 OA
ENDBRANCH   3   2
ENDBRANCH   4   3
ENDBRANCH   5   4
ENDBRANCH   6   5
TORSDOF 6
ENDMDL
MODEL 8
REMARK VINA RESULT:      -5.3     17.645     18.608
REMARK  Name = 
REMARK  6 active torsions:
REMARK  status: ('A' for Active; 'I' for Inactive)
REMARK    1  A    between atoms: O_2  and  C_3
REMARK    2  A    between atoms: C_3  and  C_4
REMARK    3  A    between atoms: C_4  and  O_5
REMARK    4  A    between atoms: O_5  and  C_6
REMARK    5  A    between atoms: C_9  and  C_12
REMARK    6  A    between atoms: C_15  and  C_17
REMARK                            x       y       z     vdW  Elec       q    Type
REMARK                         _______ _______ _______ _____ _____    ______ ____
ROOT
ATOM      6  C   UNL     1      -8.878  -6.855   8.447  0.00  0.00    +0.225 A 
ATOM      7  C   UNL     1      -8.142  -6.667   8.124  0.00  0.00    +0.058 A 
ATOM      8  C   UNL     1      -7.497  -7.165   8.252  0.00  0.00    +0.010 A 
ATOM      9  C   UNL     1      -7.587  -7.849   8.702  0.00  0.00    +0.058 A 
ATOM     10  C   UNL     1      -8.322  -8.037   9.025  0.00  0.00    +0.105 A 
ATOM     11  N   UNL     1      -8.968  -7.539   8.897  0.00  0.00    -0.210 NA
ENDROOT
BRANCH   9  12
ATOM     12  C   UNL     1      -6.941  -8.347   8.830  0.00  0.00    +0.205 A 
ATOM     13  N   UNL     1      -6.856  -9.114   8.539  0.00  0.00    -0.056 NA
ATOM     14  O   UNL     1      -6.129  -9.405   8.800  0.00  0.00    -0.336 OA
ATOM     15  C   UNL     1      -5.766  -8.819   9.252  0.00  0.00    +0.251 A 
ATOM     16  N   UNL     1      -6.267  -8.164   9.271  0.00  0.00    -0.190 NA
BRANCH  15  17
ATOM     17  C   UNL     1      -5.030  -8.875   9.621  0.00  0.00    +0.138 C 
ATOM     18  C   UNL     1      -4.295  -8.819   9.248  0.00  0.00    +0.027 C 
ATOM     19  C   UNL     1      -3.710  -8.907   9.824  0.00  0.00    +0.019 C 
ATOM     20  C   UNL     1      -4.084  -9.018  10.551  0.00  0.00    +0.073 C 
ATOM     21  N   UNL     1      -4.899  -8.998  10.426  0.00  0.00    -0.265 NA
ATOM     22  C   UNL     1      -5.480  -9.085  11.003  0.00  0.00    +0.090 C 
ENDBRANCH  15  17
ENDBRANCH   9  12
BRANCH   6   5
ATOM      5  O   UNL     1      -9.524  -6.357   8.319  0.00  0.00    -0.457 OA
BRANCH   5   4
ATOM      4  C   UNL     1      -9.578  -5.640   8.724  0.00  0.00    +0.239 C 
BRANCH   4   3
ATOM      3  C   UNL     1     -10.245  -5.164   8.631  0.00  0.00    +0.189 C 
BRANCH   3   2
ATOM      1  C   UNL     1     -10.719  -3.970   9.257  0.00  0.00    +0.174 C 
ATOM      2  O   UNL     1     -10.189  -4.350   8.751  0.00  0.00    -0.347 OA
ENDBRANCH   3   2
ENDBRANCH   4   3
ENDBRANCH   5   4
ENDBRANCH   6   5
TORSDOF 6
ENDMDL
MODEL 9
REMARK VINA RESULT:      -5.3     17.031     18.080
REMARK  Name = 
REMARK  6 active torsions:
REMARK  status: ('A' for Active; 'I' for Inactive)
REMARK    1  A    between atoms: O_2  and  C_3
REMARK    2  A    between atoms: C_3  and  C_4
REMARK    3  A    between atoms: C_4  and  O_5
REMARK    4  A    between atoms: O_5  and  C_6
REMARK    5  A    between atoms: C_9  and  C_12
REMARK    6  A    between atoms: C_15  and  C_17
REMARK                            x       y       z     vdW  Elec       q    Type
REMARK                         _______ _______ _______ _____ _____    ______ ____
ROOT
ATOM      6  C   UNL     1      -5.908  -8.556   9.345  0.00  0.00    +0.225 A 
ATOM      7  C   UNL     1      -5.328  -8.134   9.754  0.00  0.00    +0.058 A 
ATOM      8  C   UNL     1      -4.720  -8.537  10.139  0.00  0.00    +0.010 A 
ATOM      9  C   UNL     1      -4.691  -9.360  10.115  0.00  0.00    +0.058 A 
ATOM     10  C   UNL     1      -5.270  -9.782   9.707  0.00  0.00    +0.105 A 
ATOM     11  N   UNL     1      -5.879  -9.379   9.321  0.00  0.00    -0.210 NA
ENDROOT
BRANCH   9  12
ATOM     12  C   UNL     1      -4.082  -9.764  10.500  0.00  0.00    +0.205 A 
ATOM     13  N   UNL     1      -3.504 -10.227  10.139  0.00  0.00    -0.056 NA
ATOM     14  O   UNL     1      -3.010 -10.524  10.729  0.00  0.00    -0.336 OA
ATOM     15  C   UNL     1      -3.283 -10.243  11.455  0.00  0.00    +0.251 A 
ATOM     16  N   UNL     1      -3.946  -9.773  11.314  0.00  0.00    -0.190 NA
BRANCH  15  17
ATOM     17  C   UNL     1      -2.952 -10.404  12.194  0.00  0.00    +0.138 C 
ATOM     18  C   UNL     1      -3.353 -10.708  12.849  0.00  0.00    +0.027 C 
ATOM     19  C   UNL     1      -2.811 -10.781  13.467  0.00  0.00    +0.019 C 
ATOM     20  C   UNL     1      -2.076 -10.523  13.194  0.00  0.00    +0.073 C 
ATOM     21  N   UNL     1      -2.163 -10.291  12.407  0.00  0.00    -0.265 NA
ATOM     22  C   UNL     1      -1.567  -9.996  11.920  0.00  0.00    +0.090 C 
ENDBRANCH  15  17
ENDBRANCH   9  12
BRANCH   6   5
ATOM      5  O   UNL     1      -6.516  -8.152   8.961  0.00  0.00    -0.457 OA
BRANCH   5   4
ATOM      4  C   UNL     1      -7.284  -8.181   9.261  0.00  0.00    +0.239 C 
BRANCH   4   3
ATOM      3  C   UNL     1      -7.897  -7.798   8.863  0.00  0.00    +0.189 C 
BRANCH   3   2
ATOM      1  C   UNL     1      -9.235  -7.298   8.864  0.00  0.00    +0.174 C 
ATOM      2  O   UNL     1      -8.655  -7.787   9.188  0.00  0.00    -0.347 OA
ENDBRANCH   3   2
ENDBRANCH   4   3
ENDBRANCH   5   4
ENDBRANCH   6   5
TORSDOF 6
ENDMDL
