REMARK  Name = 
REMARK  6 active torsions:
REMARK  status: ('A' for Active; 'I' for Inactive)
REMARK    1  A    between atoms: C_4  and  C_5
REMARK    2  A    between atoms: C_5  and  N_6
REMARK    3  A    between atoms: N_6  and  C_7
REMARK    4  A    between atoms: C_12  and  C_13
REMARK    5  A    between atoms: C_13  and  C_14
REMARK    6  A    between atoms: C_14  and  C_15
REMARK                            x       y       z     vdW  Elec       q    Type
REMARK                         _______ _______ _______ _____ _____    ______ ____
ROOT
ATOM      7  C   UNL     1       5.557   2.312   0.000  0.00  0.00    +0.091 C 
ATOM      8  C   UNL     1       5.729   3.119   0.000  0.00  0.00    +0.044 C 
ATOM      9  C   UNL     1       5.014   3.531   0.000  0.00  0.00    +0.138 C 
ATOM     10  N   UNL     1       4.401   2.979   0.000  0.00  0.00    -0.265 NA
ATOM     11  C   UNL     1       4.737   2.226   0.000  0.00  0.00    +0.090 C 
ATOM     12  C   UNL     1       3.616   3.234   0.000  0.00  0.00    +0.080 C 
ATOM     26  C   UNL     1       3.445   4.041   0.000  0.00  0.00    +0.131 C 
ATOM     27  N   UNL     1       4.058   4.593   0.000  0.00  0.00    -0.203 NA
ATOM     28  C   UNL     1       4.843   4.338   0.000  0.00  0.00    +0.256 C 
ATOM     29  O   UNL     1       5.456   4.890   0.000  0.00  0.00    -0.272 OA
ENDROOT
BRANCH   7   6
ATOM      6  N   UNL     1       6.109   1.699   0.000  0.00  0.00    -0.213 NA
BRANCH   6   5
ATOM      5  C   UNL     1       6.916   1.870   0.000  0.00  0.00    +0.116 C 
BRANCH   5   4
ATOM      1  C   UNL     1       6.916   4.774   0.000  0.00  0.00    +0.130 C 
ATOM      2  N   UNL     1       7.171   3.990   0.000  0.00  0.00    -0.324 N 
ATOM      3  C   UNL     1       6.686   3.322   0.000  0.00  0.00    +0.073 A 
ATOM      4  C   UNL     1       7.171   2.655   0.000  0.00  0.00    +0.014 A 
ATOM     30  C   UNL     1       7.956   2.910   0.000  0.00  0.00    +0.015 A 
ATOM     31  C   UNL     1       7.956   3.735   0.000  0.00  0.00    +0.060 A 
ATOM     32  C   UNL     1       8.670   4.147   0.000  0.00  0.00    +0.017 A 
ATOM     33  C   UNL     1       9.385   3.735   0.000  0.00  0.00    +0.001 A 
ATOM     34  C   UNL     1       9.385   2.910   0.000  0.00  0.00    +0.000 A 
ATOM     35  C   UNL     1       8.670   2.497   0.000  0.00  0.00    +0.001 A 
ENDBRANCH   5   4
ENDBRANCH   6   5
ENDBRANCH   7   6
BRANCH  12  13
ATOM     13  C   UNL     1       3.003   2.682   0.000  0.00  0.00    +0.027 C 
BRANCH  13  14
ATOM     14  C   UNL     1       2.219   2.937   0.000  0.00  0.00    +0.087 C 
BRANCH  14  15
ATOM     15  C   UNL     1       1.606   2.385   0.000  0.00  0.00    +0.229 C 
ATOM     16  O   UNL     1       1.777   1.578   0.000  0.00  0.00    -0.275 OA
ATOM     17  N   UNL     1       0.821   2.640   0.000  0.00  0.00    -0.259 N 
ATOM     18  C   UNL     1       0.154   2.155   0.000  0.00  0.00    +0.103 C 
ATOM     19  C   UNL     1      -0.514   2.640   0.000  0.00  0.00    +0.049 C 
ATOM     20  C   UNL     1      -0.259   3.425   0.000  0.00  0.00    -0.007 A 
ATOM     21  C   UNL     1      -0.671   4.139   0.000  0.00  0.00    -0.003 A 
ATOM     22  C   UNL     1      -0.259   4.854   0.000  0.00  0.00    -0.000 A 
ATOM     23  C   UNL     1       0.566   4.854   0.000  0.00  0.00    +0.001 A 
ATOM     24  C   UNL     1       0.979   4.139   0.000  0.00  0.00    +0.015 A 
ATOM     25  C   UNL     1       0.566   3.425   0.000  0.00  0.00    +0.050 A 
ENDBRANCH  14  15
ENDBRANCH  13  14
ENDBRANCH  12  13
TORSDOF 6
