REMARK  Name = 
REMARK  5 active torsions:
REMARK  status: ('A' for Active; 'I' for Inactive)
REMARK    1  A    between atoms: N_4  and  C_5
REMARK    2  A    between atoms: C_5  and  C_6
REMARK    3  A    between atoms: C_14  and  C_15
REMARK    4  A    between atoms: C_17  and  N_18
REMARK    5  A    between atoms: C_19  and  C_21
REMARK                            x       y       z     vdW  Elec       q    Type
REMARK                         _______ _______ _______ _____ _____    ______ ____
ROOT
ATOM      1  C   UNL     1       0.119  -3.453   0.000  0.00  0.00    +0.054 C 
ATOM      2  C   UNL     1       0.119  -4.278   0.000  0.00  0.00    +0.076 A 
ATOM      3  N   UNL     1       0.786  -4.763   0.000  0.00  0.00    -0.174 NA
ATOM      4  N   UNL     1       0.531  -5.548   0.000  0.00  0.00    -0.251 N 
ATOM     12  C   UNL     1      -0.293  -5.548   0.000  0.00  0.00    +0.054 A 
ATOM     13  C   UNL     1      -0.778  -6.215   0.000  0.00  0.00    +0.051 C 
ATOM     14  C   UNL     1      -0.548  -4.763   0.000  0.00  0.00    +0.010 A 
ENDROOT
BRANCH  14  15
ATOM     15  C   UNL     1      -1.333  -4.508   0.000  0.00  0.00    +0.048 C 
ATOM     16  C   UNL     1      -2.001  -4.993   0.000  0.00  0.00    +0.035 C 
ATOM     17  C   UNL     1      -2.668  -4.508   0.000  0.00  0.00    +0.118 C 
ATOM     27  C   UNL     1      -2.413  -3.723   0.000  0.00  0.00    -0.009 C 
ATOM     28  C   UNL     1      -1.588  -3.723   0.000  0.00  0.00    -0.025 C 
BRANCH  17  18
ATOM     18  N   UNL     1      -3.453  -4.763   0.000  0.00  0.00    -0.203 NA
ATOM     19  C   UNL     1      -3.624  -5.570   0.000  0.00  0.00    +0.241 C 
ATOM     20  O   UNL     1      -3.011  -6.122   0.000  0.00  0.00    -0.273 OA
BRANCH  19  21
ATOM     21  C   UNL     1      -4.409  -5.825   0.000  0.00  0.00    +0.078 C 
ATOM     22  C   UNL     1      -4.580  -6.632   0.000  0.00  0.00    +0.009 C 
ATOM     23  C   UNL     1      -5.365  -6.887   0.000  0.00  0.00    +0.000 C 
ATOM     24  C   UNL     1      -5.978  -6.335   0.000  0.00  0.00    +0.000 C 
ATOM     25  C   UNL     1      -5.806  -5.528   0.000  0.00  0.00    +0.000 C 
ATOM     26  C   UNL     1      -5.022  -5.273   0.000  0.00  0.00    +0.009 C 
ENDBRANCH  19  21
ENDBRANCH  17  18
ENDBRANCH  14  15
BRANCH   4   5
ATOM      5  C   UNL     1       1.016  -6.215   0.000  0.00  0.00    +0.153 C 
BRANCH   5   6
ATOM      6  C   UNL     1       1.837  -6.129   0.000  0.00  0.00    +0.002 A 
ATOM      7  C   UNL     1       2.172  -5.375   0.000  0.00  0.00    -0.002 A 
ATOM      8  C   UNL     1       2.993  -5.289   0.000  0.00  0.00    -0.000 A 
ATOM      9  C   UNL     1       3.478  -5.956   0.000  0.00  0.00    -0.000 A 
ATOM     10  C   UNL     1       3.142  -6.710   0.000  0.00  0.00    -0.000 A 
ATOM     11  C   UNL     1       2.322  -6.796   0.000  0.00  0.00    -0.002 A 
ENDBRANCH   5   6
ENDBRANCH   4   5
TORSDOF 5
