MODEL 1
REMARK VINA RESULT:     -11.6      0.000      0.000
REMARK  Name = 
REMARK  7 active torsions:
REMARK  status: ('A' for Active; 'I' for Inactive)
REMARK    1  A    between atoms: C_2  and  C_4
REMARK    2  A    between atoms: N_7  and  C_10
REMARK    3  A    between atoms: C_16  and  N_17
REMARK    4  A    between atoms: N_17  and  C_18
REMARK    5  A    between atoms: C_18  and  C_19
REMARK    6  A    between atoms: C_22  and  O_23
REMARK    7  A    between atoms: O_23  and  C_24
REMARK                            x       y       z     vdW  Elec       q    Type
REMARK                         _______ _______ _______ _____ _____    ______ ____
ROOT
ATOM     10  C   UNL     1      -3.461   0.637  24.699  0.00  0.00    +0.147 C 
ATOM     11  C   UNL     1      -4.384   0.400  24.881  0.00  0.00    +0.253 C 
ATOM     12  O   UNL     1      -4.728  -0.413  24.851  0.00  0.00    -0.327 OA
ATOM     13  C   UNL     1      -4.218   0.101  24.802  0.00  0.00    +0.176 C 
ATOM     14  C   UNL     1      -4.064   0.861  24.868  0.00  0.00    +0.166 C 
ATOM     15  O   UNL     1      -4.690   1.147  25.052  0.00  0.00    -0.328 OA
ATOM     16  C   UNL     1      -3.183   1.103  24.697  0.00  0.00    +0.135 C 
ATOM     30  C   UNL     1      -2.879   0.351  24.526  0.00  0.00    +0.190 C 
ATOM     31  O   UNL     1      -2.335  -0.235  24.321  0.00  0.00    -0.220 OA
ENDROOT
BRANCH  10   7
ATOM      4  C   UNL     1      -3.766  -1.805  24.441  0.00  0.00    +0.083 C 
ATOM      5  C   UNL     1      -3.525  -1.494  25.166  0.00  0.00    +0.027 C 
ATOM      6  C   UNL     1      -3.423  -0.680  25.251  0.00  0.00    +0.073 C 
ATOM      7  N   UNL     1      -3.562  -0.177  24.613  0.00  0.00    -0.268 NA
ATOM      8  C   UNL     1      -3.804  -0.489  23.888  0.00  0.00    +0.073 C 
ATOM      9  C   UNL     1      -3.906  -1.303  23.802  0.00  0.00    +0.027 C 
BRANCH   4   2
ATOM      1  N   UNL     1      -3.525  -3.137  24.901  0.00  0.00    -0.088 NA
ATOM      2  C   UNL     1      -3.867  -2.620  24.356  0.00  0.00    +0.260 C 
ATOM      3  O   UNL     1      -4.311  -2.918  23.727  0.00  0.00    -0.272 OA
ENDBRANCH   4   2
ENDBRANCH  10   7
BRANCH  16  17
ATOM     17  N   UNL     1      -2.816   1.842  24.711  0.00  0.00    -0.209 NA
BRANCH  17  18
ATOM     18  C   UNL     1      -2.151   1.963  25.185  0.00  0.00    +0.115 C 
BRANCH  18  19
ATOM     19  C   UNL     1      -1.794   2.706  25.213  0.00  0.00    -0.005 A 
ATOM     20  C   UNL     1      -1.139   2.866  24.738  0.00  0.00    +0.000 A 
ATOM     21  C   UNL     1      -0.781   3.609  24.766  0.00  0.00    +0.037 A 
ATOM     22  C   UNL     1      -1.080   4.192  25.267  0.00  0.00    +0.147 A 
ATOM     28  C   UNL     1      -1.736   4.031  25.742  0.00  0.00    +0.037 A 
ATOM     29  C   UNL     1      -2.093   3.289  25.714  0.00  0.00    +0.000 A 
BRANCH  22  23
ATOM     23  O   UNL     1      -0.723   4.936  25.295  0.00  0.00    -0.404 OA
BRANCH  23  24
ATOM     24  C   UNL     1      -1.033   5.559  24.852  0.00  0.00    +0.575 C 
ATOM     25  F   UNL     1      -1.343   6.182  24.409  0.00  0.00    -0.133 F 
ATOM     26  F   UNL     1      -0.515   5.378  24.236  0.00  0.00    -0.133 F 
ATOM     27  F   UNL     1      -1.551   5.739  25.468  0.00  0.00    -0.133 F 
ENDBRANCH  23  24
ENDBRANCH  22  23
ENDBRANCH  18  19
ENDBRANCH  17  18
ENDBRANCH  16  17
TORSDOF 7
ENDMDL
MODEL 2
REMARK VINA RESULT:     -11.6      3.136      5.933
REMARK  Name = 
REMARK  7 active torsions:
REMARK  status: ('A' for Active; 'I' for Inactive)
REMARK    1  A    between atoms: C_2  and  C_4
REMARK    2  A    between atoms: N_7  and  C_10
REMARK    3  A    between atoms: C_16  and  N_17
REMARK    4  A    between atoms: N_17  and  C_18
REMARK    5  A    between atoms: C_18  and  C_19
REMARK    6  A    between atoms: C_22  and  O_23
REMARK    7  A    between atoms: O_23  and  C_24
REMARK                            x       y       z     vdW  Elec       q    Type
REMARK                         _______ _______ _______ _____ _____    ______ ____
ROOT
ATOM     10  C   UNL     1      -1.597   1.968  25.148  0.00  0.00    +0.147 C 
ATOM     11  C   UNL     1      -0.843   2.217  25.706  0.00  0.00    +0.253 C 
ATOM     12  O   UNL     1      -0.529   3.034  25.821  0.00  0.00    -0.327 OA
ATOM     13  C   UNL     1      -0.963   2.514  25.562  0.00  0.00    +0.176 C 
ATOM     14  C   UNL     1      -1.122   1.752  25.560  0.00  0.00    +0.166 C 
ATOM     15  O   UNL     1      -0.631   1.475  25.995  0.00  0.00    -0.328 OA
ATOM     16  C   UNL     1      -1.842   1.499  25.030  0.00  0.00    +0.135 C 
ATOM     30  C   UNL     1      -2.053   2.246  24.741  0.00  0.00    +0.190 C 
ATOM     31  O   UNL     1      -2.464   2.825  24.320  0.00  0.00    -0.220 OA
ENDROOT
BRANCH  10   7
ATOM      4  C   UNL     1      -1.240   4.414  25.032  0.00  0.00    +0.083 C 
ATOM      5  C   UNL     1      -1.766   4.100  25.584  0.00  0.00    +0.027 C 
ATOM      6  C   UNL     1      -1.885   3.284  25.623  0.00  0.00    +0.073 C 
ATOM      7  N   UNL     1      -1.478   2.783  25.109  0.00  0.00    -0.268 NA
ATOM      8  C   UNL     1      -0.952   3.098  24.557  0.00  0.00    +0.073 C 
ATOM      9  C   UNL     1      -0.833   3.913  24.518  0.00  0.00    +0.027 C 
BRANCH   4   2
ATOM      1  N   UNL     1      -0.450   5.532  24.623  0.00  0.00    -0.088 NA
ATOM      2  C   UNL     1      -1.122   5.230  24.994  0.00  0.00    +0.260 C 
ATOM      3  O   UNL     1      -1.675   5.744  25.327  0.00  0.00    -0.272 OA
ENDBRANCH   4   2
ENDBRANCH  10   7
BRANCH  16  17
ATOM     17  N   UNL     1      -2.171   0.754  24.890  0.00  0.00    -0.209 NA
BRANCH  17  18
ATOM     18  C   UNL     1      -2.976   0.628  25.022  0.00  0.00    +0.115 C 
BRANCH  18  19
ATOM     19  C   UNL     1      -3.300  -0.121  24.909  0.00  0.00    -0.005 A 
ATOM     20  C   UNL     1      -3.650  -0.314  24.187  0.00  0.00    +0.000 A 
ATOM     21  C   UNL     1      -3.974  -1.065  24.073  0.00  0.00    +0.037 A 
ATOM     22  C   UNL     1      -3.948  -1.621  24.681  0.00  0.00    +0.147 A 
ATOM     28  C   UNL     1      -3.597  -1.428  25.403  0.00  0.00    +0.037 A 
ATOM     29  C   UNL     1      -3.273  -0.678  25.516  0.00  0.00    +0.000 A 
BRANCH  22  23
ATOM     23  O   UNL     1      -4.272  -2.372  24.568  0.00  0.00    -0.404 OA
BRANCH  23  24
ATOM     24  C   UNL     1      -3.806  -2.980  24.260  0.00  0.00    +0.575 C 
ATOM     25  F   UNL     1      -3.341  -3.588  23.951  0.00  0.00    -0.133 F 
ATOM     26  F   UNL     1      -3.541  -3.162  25.019  0.00  0.00    -0.133 F 
ATOM     27  F   UNL     1      -4.072  -2.797  23.500  0.00  0.00    -0.133 F 
ENDBRANCH  23  24
ENDBRANCH  22  23
ENDBRANCH  18  19
ENDBRANCH  17  18
ENDBRANCH  16  17
TORSDOF 7
ENDMDL
