MODEL 1
REMARK VINA RESULT:     -11.6      0.000      0.000
REMARK  Name = 
REMARK  7 active torsions:
REMARK  status: ('A' for Active; 'I' for Inactive)
REMARK    1  A    between atoms: C_2  and  C_4
REMARK    2  A    between atoms: C_6  and  C_7
REMARK    3  A    between atoms: C_7  and  C_8
REMARK    4  A    between atoms: C_11  and  C_13
REMARK    5  A    between atoms: C_22  and  C_23
REMARK    6  A    between atoms: C_23  and  N_24
REMARK    7  A    between atoms: C_27  and  C_28
REMARK                            x       y       z     vdW  Elec       q    Type
REMARK                         _______ _______ _______ _____ _____    ______ ____
ROOT
ATOM      4  C   UNL     1      -3.257   1.480  23.647  0.00  0.00    +0.006 C 
ATOM      5  C   UNL     1      -3.489   2.184  24.008  0.00  0.00    +0.005 C 
ATOM      6  C   UNL     1      -4.064   2.174  24.601  0.00  0.00    +0.027 C 
ATOM     19  C   UNL     1      -4.405   1.459  24.833  0.00  0.00    -0.048 C 
ATOM     20  C   UNL     1      -4.978   1.449  25.425  0.00  0.00    +0.026 C 
ATOM     21  C   UNL     1      -4.172   0.755  24.471  0.00  0.00    -0.034 C 
ATOM     22  C   UNL     1      -3.598   0.765  23.879  0.00  0.00    +0.037 C 
ENDROOT
BRANCH   4   2
ATOM      1  C   UNL     1      -2.902   1.636  22.272  0.00  0.00    +0.000 C 
ATOM      2  C   UNL     1      -2.683   1.491  23.055  0.00  0.00    +0.000 C 
ATOM      3  C   UNL     1      -1.892   1.357  23.244  0.00  0.00    +0.000 C 
ENDBRANCH   4   2
BRANCH   6   7
ATOM      7  C   UNL     1      -4.296   2.878  24.962  0.00  0.00    +0.091 C 
BRANCH   7   8
ATOM      8  C   UNL     1      -3.730   3.380  25.289  0.00  0.00    +0.227 A 
ATOM      9  N   UNL     1      -3.703   3.634  26.074  0.00  0.00    -0.111 NA
ATOM     10  N   UNL     1      -3.047   4.128  26.160  0.00  0.00    -0.107 NA
ATOM     11  C   UNL     1      -2.670   4.180  25.428  0.00  0.00    +0.251 A 
ATOM     12  O   UNL     1      -3.092   3.717  24.890  0.00  0.00    -0.419 OA
BRANCH  11  13
ATOM     13  C   UNL     1      -1.990   4.616  25.262  0.00  0.00    +0.074 A 
ATOM     14  C   UNL     1      -2.036   5.436  25.179  0.00  0.00    +0.104 A 
ATOM     15  N   UNL     1      -1.357   5.874  25.013  0.00  0.00    -0.242 NA
ATOM     16  C   UNL     1      -0.630   5.491  24.931  0.00  0.00    +0.099 A 
ATOM     17  C   UNL     1      -0.583   4.672  25.015  0.00  0.00    +0.021 A 
ATOM     18  C   UNL     1      -1.264   4.235  25.181  0.00  0.00    +0.008 A 
ENDBRANCH  11  13
ENDBRANCH   7   8
ENDBRANCH   6   7
BRANCH  22  23
ATOM     23  C   UNL     1      -3.366   0.062  23.518  0.00  0.00    +0.076 C 
BRANCH  23  24
ATOM     24  N   UNL     1      -3.420  -0.652  23.930  0.00  0.00    -0.272 NA
ATOM     25  C   UNL     1      -2.849  -0.847  24.493  0.00  0.00    +0.072 C 
ATOM     26  C   UNL     1      -2.903  -1.559  24.905  0.00  0.00    +0.020 C 
ATOM     27  C   UNL     1      -3.529  -2.077  24.755  0.00  0.00    +0.036 C 
ATOM     30  C   UNL     1      -4.099  -1.881  24.192  0.00  0.00    +0.020 C 
ATOM     31  C   UNL     1      -4.045  -1.168  23.779  0.00  0.00    +0.072 C 
BRANCH  27  28
ATOM     28  C   UNL     1      -3.583  -2.789  25.166  0.00  0.00    +0.182 C 
ATOM     29  O   UNL     1      -3.572  -3.505  24.756  0.00  0.00    -0.220 OA
ENDBRANCH  27  28
ENDBRANCH  23  24
ENDBRANCH  22  23
TORSDOF 7
ENDMDL
MODEL 2
REMARK VINA RESULT:     -11.4      1.349      2.132
REMARK  Name = 
REMARK  7 active torsions:
REMARK  status: ('A' for Active; 'I' for Inactive)
REMARK    1  A    between atoms: C_2  and  C_4
REMARK    2  A    between atoms: C_6  and  C_7
REMARK    3  A    between atoms: C_7  and  C_8
REMARK    4  A    between atoms: C_11  and  C_13
REMARK    5  A    between atoms: C_22  and  C_23
REMARK    6  A    between atoms: C_23  and  N_24
REMARK    7  A    between atoms: C_27  and  C_28
REMARK                            x       y       z     vdW  Elec       q    Type
REMARK                         _______ _______ _______ _____ _____    ______ ____
ROOT
ATOM      4  C   UNL     1      -4.536   1.425  24.636  0.00  0.00    +0.006 C 
ATOM      5  C   UNL     1      -4.105   2.096  24.426  0.00  0.00    +0.005 C 
ATOM      6  C   UNL     1      -3.467   2.030  23.907  0.00  0.00    +0.027 C 
ATOM     19  C   UNL     1      -3.261   1.293  23.598  0.00  0.00    -0.048 C 
ATOM     20  C   UNL     1      -2.624   1.228  23.079  0.00  0.00    +0.026 C 
ATOM     21  C   UNL     1      -3.693   0.623  23.809  0.00  0.00    -0.034 C 
ATOM     22  C   UNL     1      -4.330   0.689  24.328  0.00  0.00    +0.037 C 
ENDROOT
BRANCH   4   2
ATOM      1  C   UNL     1      -5.940   1.573  24.859  0.00  0.00    +0.000 C 
ATOM      2  C   UNL     1      -5.174   1.492  25.155  0.00  0.00    +0.000 C 
ATOM      3  C   UNL     1      -5.046   1.478  25.969  0.00  0.00    +0.000 C 
ENDBRANCH   4   2
BRANCH   6   7
ATOM      7  C   UNL     1      -3.035   2.701  23.697  0.00  0.00    +0.091 C 
BRANCH   7   8
ATOM      8  C   UNL     1      -2.493   3.025  24.226  0.00  0.00    +0.227 A 
ATOM      9  N   UNL     1      -2.475   3.810  24.482  0.00  0.00    -0.111 NA
ATOM     10  N   UNL     1      -1.843   3.892  25.007  0.00  0.00    -0.107 NA
ATOM     11  C   UNL     1      -1.472   3.158  25.075  0.00  0.00    +0.251 A 
ATOM     12  O   UNL     1      -1.873   2.623  24.592  0.00  0.00    -0.419 OA
BRANCH  11  13
ATOM     13  C   UNL     1      -0.814   2.990  25.544  0.00  0.00    +0.074 A 
ATOM     14  C   UNL     1      -0.061   2.973  25.207  0.00  0.00    +0.104 A 
ATOM     15  N   UNL     1       0.598   2.804  25.674  0.00  0.00    -0.242 NA
ATOM     16  C   UNL     1       0.502   2.652  26.480  0.00  0.00    +0.099 A 
ATOM     17  C   UNL     1      -0.250   2.668  26.817  0.00  0.00    +0.021 A 
ATOM     18  C   UNL     1      -0.908   2.837  26.348  0.00  0.00    +0.008 A 
ENDBRANCH  11  13
ENDBRANCH   7   8
ENDBRANCH   6   7
BRANCH  22  23
ATOM     23  C   UNL     1      -4.762   0.018  24.538  0.00  0.00    +0.076 C 
BRANCH  23  24
ATOM     24  N   UNL     1      -4.399  -0.724  24.536  0.00  0.00    -0.272 NA
ATOM     25  C   UNL     1      -3.927  -0.953  25.172  0.00  0.00    +0.072 C 
ATOM     26  C   UNL     1      -3.565  -1.694  25.170  0.00  0.00    +0.020 C 
ATOM     27  C   UNL     1      -3.675  -2.206  24.531  0.00  0.00    +0.036 C 
ATOM     30  C   UNL     1      -4.147  -1.975  23.895  0.00  0.00    +0.020 C 
ATOM     31  C   UNL     1      -4.510  -1.234  23.898  0.00  0.00    +0.072 C 
BRANCH  27  28
ATOM     28  C   UNL     1      -3.313  -2.946  24.529  0.00  0.00    +0.182 C 
ATOM     29  O   UNL     1      -2.530  -3.023  24.277  0.00  0.00    -0.220 OA
ENDBRANCH  27  28
ENDBRANCH  23  24
ENDBRANCH  22  23
TORSDOF 7
ENDMDL
MODEL 3
REMARK VINA RESULT:     -11.3      2.019      3.436
REMARK  Name = 
REMARK  7 active torsions:
REMARK  status: ('A' for Active; 'I' for Inactive)
REMARK    1  A    between atoms: C_2  and  C_4
REMARK    2  A    between atoms: C_6  and  C_7
REMARK    3  A    between atoms: C_7  and  C_8
REMARK    4  A    between atoms: C_11  and  C_13
REMARK    5  A    between atoms: C_22  and  C_23
REMARK    6  A    between atoms: C_23  and  N_24
REMARK    7  A    between atoms: C_27  and  C_28
REMARK                            x       y       z     vdW  Elec       q    Type
REMARK                         _______ _______ _______ _____ _____    ______ ____
ROOT
ATOM      4  C   UNL     1      -1.160   2.287  24.699  0.00  0.00    +0.006 C 
ATOM      5  C   UNL     1      -1.769   2.755  24.398  0.00  0.00    +0.005 C 
ATOM      6  C   UNL     1      -2.259   2.461  23.802  0.00  0.00    +0.027 C 
ATOM     19  C   UNL     1      -2.139   1.699  23.508  0.00  0.00    -0.048 C 
ATOM     20  C   UNL     1      -2.628   1.406  22.912  0.00  0.00    +0.026 C 
ATOM     21  C   UNL     1      -1.529   1.232  23.809  0.00  0.00    -0.034 C 
ATOM     22  C   UNL     1      -1.040   1.526  24.405  0.00  0.00    +0.037 C 
ENDROOT
BRANCH   4   2
ATOM      1  C   UNL     1      -0.933   2.586  26.078  0.00  0.00    +0.000 C 
ATOM      2  C   UNL     1      -0.671   2.581  25.295  0.00  0.00    +0.000 C 
ATOM      3  C   UNL     1       0.078   2.870  25.109  0.00  0.00    +0.000 C 
ENDBRANCH   4   2
BRANCH   6   7
ATOM      7  C   UNL     1      -2.868   2.928  23.501  0.00  0.00    +0.091 C 
BRANCH   7   8
ATOM      8  C   UNL     1      -3.508   3.130  23.980  0.00  0.00    +0.227 A 
ATOM      9  N   UNL     1      -3.746   3.897  24.173  0.00  0.00    -0.111 NA
ATOM     10  N   UNL     1      -4.408   3.842  24.662  0.00  0.00    -0.107 NA
ATOM     11  C   UNL     1      -4.579   3.042  24.771  0.00  0.00    +0.251 A 
ATOM     12  O   UNL     1      -4.023   2.603  24.349  0.00  0.00    -0.419 OA
BRANCH  11  13
ATOM     13  C   UNL     1      -5.198   2.736  25.222  0.00  0.00    +0.074 A 
ATOM     14  C   UNL     1      -5.375   3.064  25.958  0.00  0.00    +0.104 A 
ATOM     15  N   UNL     1      -5.993   2.759  26.410  0.00  0.00    -0.242 NA
ATOM     16  C   UNL     1      -6.436   2.123  26.125  0.00  0.00    +0.099 A 
ATOM     17  C   UNL     1      -6.260   1.794  25.389  0.00  0.00    +0.021 A 
ATOM     18  C   UNL     1      -5.641   2.101  24.938  0.00  0.00    +0.008 A 
ENDBRANCH  11  13
ENDBRANCH   7   8
ENDBRANCH   6   7
BRANCH  22  23
ATOM     23  C   UNL     1      -0.431   1.059  24.706  0.00  0.00    +0.076 C 
BRANCH  23  24
ATOM     24  N   UNL     1      -0.527   0.240  24.760  0.00  0.00    -0.272 NA
ATOM     25  C   UNL     1      -0.200  -0.252  24.184  0.00  0.00    +0.072 C 
ATOM     26  C   UNL     1      -0.295  -1.070  24.239  0.00  0.00    +0.020 C 
ATOM     27  C   UNL     1      -0.718  -1.395  24.869  0.00  0.00    +0.036 C 
ATOM     30  C   UNL     1      -1.045  -0.902  25.443  0.00  0.00    +0.020 C 
ATOM     31  C   UNL     1      -0.949  -0.085  25.389  0.00  0.00    +0.072 C 
BRANCH  27  28
ATOM     28  C   UNL     1      -0.814  -2.212  24.923  0.00  0.00    +0.182 C 
ATOM     29  O   UNL     1      -1.516  -2.564  24.667  0.00  0.00    -0.220 OA
ENDBRANCH  27  28
ENDBRANCH  23  24
ENDBRANCH  22  23
TORSDOF 7
ENDMDL
MODEL 4
REMARK VINA RESULT:     -11.1      1.306      5.282
REMARK  Name = 
REMARK  7 active torsions:
REMARK  status: ('A' for Active; 'I' for Inactive)
REMARK    1  A    between atoms: C_2  and  C_4
REMARK    2  A    between atoms: C_6  and  C_7
REMARK    3  A    between atoms: C_7  and  C_8
REMARK    4  A    between atoms: C_11  and  C_13
REMARK    5  A    between atoms: C_22  and  C_23
REMARK    6  A    between atoms: C_23  and  N_24
REMARK    7  A    between atoms: C_27  and  C_28
REMARK                            x       y       z     vdW  Elec       q    Type
REMARK                         _______ _______ _______ _____ _____    ______ ____
ROOT
ATOM      4  C   UNL     1      -4.661   1.831  24.844  0.00  0.00    +0.006 C 
ATOM      5  C   UNL     1      -4.592   1.097  24.474  0.00  0.00    +0.005 C 
ATOM      6  C   UNL     1      -4.000   0.972  23.913  0.00  0.00    +0.027 C 
ATOM     19  C   UNL     1      -3.477   1.581  23.722  0.00  0.00    -0.048 C 
ATOM     20  C   UNL     1      -2.886   1.456  23.161  0.00  0.00    +0.026 C 
ATOM     21  C   UNL     1      -3.547   2.315  24.092  0.00  0.00    -0.034 C 
ATOM     22  C   UNL     1      -4.138   2.440  24.653  0.00  0.00    +0.037 C 
ENDROOT
BRANCH   4   2
ATOM      1  C   UNL     1      -5.948   2.346  25.191  0.00  0.00    +0.000 C 
ATOM      2  C   UNL     1      -5.252   1.956  25.405  0.00  0.00    +0.000 C 
ATOM      3  C   UNL     1      -5.150   1.691  26.178  0.00  0.00    +0.000 C 
ENDBRANCH   4   2
BRANCH   6   7
ATOM      7  C   UNL     1      -3.932   0.238  23.543  0.00  0.00    +0.091 C 
BRANCH   7   8
ATOM      8  C   UNL     1      -3.616  -0.403  23.954  0.00  0.00    +0.227 A 
ATOM      9  N   UNL     1      -4.044  -1.029  24.280  0.00  0.00    -0.111 NA
ATOM     10  N   UNL     1      -3.509  -1.545  24.639  0.00  0.00    -0.107 NA
ATOM     11  C   UNL     1      -2.751  -1.238  24.535  0.00  0.00    +0.251 A 
ATOM     12  O   UNL     1      -2.817  -0.532  24.111  0.00  0.00    -0.419 OA
BRANCH  11  13
ATOM     13  C   UNL     1      -2.049  -1.576  24.806  0.00  0.00    +0.074 A 
ATOM     14  C   UNL     1      -1.829  -2.329  24.552  0.00  0.00    +0.104 A 
ATOM     15  N   UNL     1      -1.127  -2.669  24.823  0.00  0.00    -0.242 NA
ATOM     16  C   UNL     1      -0.645  -2.253  25.348  0.00  0.00    +0.099 A 
ATOM     17  C   UNL     1      -0.864  -1.500  25.603  0.00  0.00    +0.021 A 
ATOM     18  C   UNL     1      -1.567  -1.161  25.331  0.00  0.00    +0.008 A 
ENDBRANCH  11  13
ENDBRANCH   7   8
ENDBRANCH   6   7
BRANCH  22  23
ATOM     23  C   UNL     1      -4.207   3.173  25.023  0.00  0.00    +0.076 C 
BRANCH  23  24
ATOM     24  N   UNL     1      -3.545   3.661  25.099  0.00  0.00    -0.272 NA
ATOM     25  C   UNL     1      -3.044   3.577  25.749  0.00  0.00    +0.072 C 
ATOM     26  C   UNL     1      -2.382   4.064  25.826  0.00  0.00    +0.020 C 
ATOM     27  C   UNL     1      -2.222   4.636  25.252  0.00  0.00    +0.036 C 
ATOM     30  C   UNL     1      -2.724   4.719  24.602  0.00  0.00    +0.020 C 
ATOM     31  C   UNL     1      -3.385   4.232  24.526  0.00  0.00    +0.072 C 
BRANCH  27  28
ATOM     28  C   UNL     1      -1.561   5.122  25.328  0.00  0.00    +0.182 C 
ATOM     29  O   UNL     1      -0.858   4.926  24.943  0.00  0.00    -0.220 OA
ENDBRANCH  27  28
ENDBRANCH  23  24
ENDBRANCH  22  23
TORSDOF 7
ENDMDL
MODEL 5
REMARK VINA RESULT:     -11.0      1.525      5.677
REMARK  Name = 
REMARK  7 active torsions:
REMARK  status: ('A' for Active; 'I' for Inactive)
REMARK    1  A    between atoms: C_2  and  C_4
REMARK    2  A    between atoms: C_6  and  C_7
REMARK    3  A    between atoms: C_7  and  C_8
REMARK    4  A    between atoms: C_11  and  C_13
REMARK    5  A    between atoms: C_22  and  C_23
REMARK    6  A    between atoms: C_23  and  N_24
REMARK    7  A    between atoms: C_27  and  C_28
REMARK                            x       y       z     vdW  Elec       q    Type
REMARK                         _______ _______ _______ _____ _____    ______ ____
ROOT
ATOM      4  C   UNL     1      -1.491   1.342  24.320  0.00  0.00    +0.006 C 
ATOM      5  C   UNL     1      -2.139   0.931  24.019  0.00  0.00    +0.005 C 
ATOM      6  C   UNL     1      -2.805   1.345  23.759  0.00  0.00    +0.027 C 
ATOM     19  C   UNL     1      -2.820   2.169  23.798  0.00  0.00    -0.048 C 
ATOM     20  C   UNL     1      -3.484   2.581  23.538  0.00  0.00    +0.026 C 
ATOM     21  C   UNL     1      -2.170   2.579  24.099  0.00  0.00    -0.034 C 
ATOM     22  C   UNL     1      -1.506   2.166  24.360  0.00  0.00    +0.037 C 
ENDROOT
BRANCH   4   2
ATOM      1  C   UNL     1      -0.226   0.734  24.047  0.00  0.00    +0.000 C 
ATOM      2  C   UNL     1      -0.826   0.928  24.581  0.00  0.00    +0.000 C 
ATOM      3  C   UNL     1      -0.761   0.709  25.372  0.00  0.00    +0.000 C 
ENDBRANCH   4   2
BRANCH   6   7
ATOM      7  C   UNL     1      -3.453   0.934  23.458  0.00  0.00    +0.091 C 
BRANCH   7   8
ATOM      8  C   UNL     1      -3.745   0.275  23.857  0.00  0.00    +0.227 A 
ATOM      9  N   UNL     1      -4.355   0.276  24.414  0.00  0.00    -0.111 NA
ATOM     10  N   UNL     1      -4.466  -0.501  24.672  0.00  0.00    -0.107 NA
ATOM     11  C   UNL     1      -3.925  -0.981  24.275  0.00  0.00    +0.251 A 
ATOM     12  O   UNL     1      -3.480  -0.501  23.771  0.00  0.00    -0.419 OA
BRANCH  11  13
ATOM     13  C   UNL     1      -3.844  -1.797  24.364  0.00  0.00    +0.074 A 
ATOM     14  C   UNL     1      -4.194  -2.309  23.821  0.00  0.00    +0.104 A 
ATOM     15  N   UNL     1      -4.114  -3.125  23.909  0.00  0.00    -0.242 NA
ATOM     16  C   UNL     1      -3.681  -3.429  24.543  0.00  0.00    +0.099 A 
ATOM     17  C   UNL     1      -3.331  -2.918  25.087  0.00  0.00    +0.021 A 
ATOM     18  C   UNL     1      -3.412  -2.101  24.997  0.00  0.00    +0.008 A 
ENDBRANCH  11  13
ENDBRANCH   7   8
ENDBRANCH   6   7
BRANCH  22  23
ATOM     23  C   UNL     1      -0.857   2.576  24.660  0.00  0.00    +0.076 C 
BRANCH  23  24
ATOM     24  N   UNL     1      -0.890   3.397  24.744  0.00  0.00    -0.272 NA
ATOM     25  C   UNL     1      -0.549   3.884  24.170  0.00  0.00    +0.072 C 
ATOM     26  C   UNL     1      -0.582   4.704  24.254  0.00  0.00    +0.020 C 
ATOM     27  C   UNL     1      -0.956   5.038  24.910  0.00  0.00    +0.036 C 
ATOM     30  C   UNL     1      -1.296   4.550  25.482  0.00  0.00    +0.020 C 
ATOM     31  C   UNL     1      -1.263   3.730  25.399  0.00  0.00    +0.072 C 
BRANCH  27  28
ATOM     28  C   UNL     1      -0.989   5.857  24.993  0.00  0.00    +0.182 C 
ATOM     29  O   UNL     1      -1.720   6.241  25.010  0.00  0.00    -0.220 OA
ENDBRANCH  27  28
ENDBRANCH  23  24
ENDBRANCH  22  23
TORSDOF 7
ENDMDL
MODEL 6
REMARK VINA RESULT:     -11.0      1.300      2.069
REMARK  Name = 
REMARK  7 active torsions:
REMARK  status: ('A' for Active; 'I' for Inactive)
REMARK    1  A    between atoms: C_2  and  C_4
REMARK    2  A    between atoms: C_6  and  C_7
REMARK    3  A    between atoms: C_7  and  C_8
REMARK    4  A    between atoms: C_11  and  C_13
REMARK    5  A    between atoms: C_22  and  C_23
REMARK    6  A    between atoms: C_23  and  N_24
REMARK    7  A    between atoms: C_27  and  C_28
REMARK                            x       y       z     vdW  Elec       q    Type
REMARK                         _______ _______ _______ _____ _____    ______ ____
ROOT
ATOM      4  C   UNL     1      -3.078   1.010  24.683  0.00  0.00    +0.006 C 
ATOM      5  C   UNL     1      -2.370   1.429  24.622  0.00  0.00    +0.005 C 
ATOM      6  C   UNL     1      -1.649   1.031  24.686  0.00  0.00    +0.027 C 
ATOM     19  C   UNL     1      -1.637   0.216  24.811  0.00  0.00    -0.048 C 
ATOM     20  C   UNL     1      -0.918  -0.181  24.875  0.00  0.00    +0.026 C 
ATOM     21  C   UNL     1      -2.347  -0.202  24.872  0.00  0.00    -0.034 C 
ATOM     22  C   UNL     1      -3.066   0.195  24.808  0.00  0.00    +0.037 C 
ENDROOT
BRANCH   4   2
ATOM      1  C   UNL     1      -4.227   1.595  25.299  0.00  0.00    +0.000 C 
ATOM      2  C   UNL     1      -3.797   1.408  24.619  0.00  0.00    +0.000 C 
ATOM      3  C   UNL     1      -4.087   1.620  23.878  0.00  0.00    +0.000 C 
ENDBRANCH   4   2
BRANCH   6   7
ATOM      7  C   UNL     1      -0.941   1.450  24.625  0.00  0.00    +0.091 C 
BRANCH   7   8
ATOM      8  C   UNL     1      -0.865   2.187  24.985  0.00  0.00    +0.227 A 
ATOM      9  N   UNL     1      -0.545   2.331  25.732  0.00  0.00    -0.111 NA
ATOM     10  N   UNL     1      -0.578   3.144  25.871  0.00  0.00    -0.107 NA
ATOM     11  C   UNL     1      -0.918   3.502  25.210  0.00  0.00    +0.251 A 
ATOM     12  O   UNL     1      -1.095   2.910  24.663  0.00  0.00    -0.419 OA
BRANCH  11  13
ATOM     13  C   UNL     1      -1.057   4.309  25.113  0.00  0.00    +0.074 A 
ATOM     14  C   UNL     1      -0.481   4.788  24.766  0.00  0.00    +0.104 A 
ATOM     15  N   UNL     1      -0.619   5.595  24.668  0.00  0.00    -0.242 NA
ATOM     16  C   UNL     1      -1.334   5.924  24.918  0.00  0.00    +0.099 A 
ATOM     17  C   UNL     1      -1.909   5.447  25.265  0.00  0.00    +0.021 A 
ATOM     18  C   UNL     1      -1.770   4.638  25.362  0.00  0.00    +0.008 A 
ENDBRANCH  11  13
ENDBRANCH   7   8
ENDBRANCH   6   7
BRANCH  22  23
ATOM     23  C   UNL     1      -3.774  -0.223  24.869  0.00  0.00    +0.076 C 
BRANCH  23  24
ATOM     24  N   UNL     1      -3.787  -1.036  24.728  0.00  0.00    -0.272 NA
ATOM     25  C   UNL     1      -3.594  -1.562  25.334  0.00  0.00    +0.072 C 
ATOM     26  C   UNL     1      -3.607  -2.375  25.194  0.00  0.00    +0.020 C 
ATOM     27  C   UNL     1      -3.813  -2.662  24.447  0.00  0.00    +0.036 C 
ATOM     30  C   UNL     1      -4.005  -2.135  23.843  0.00  0.00    +0.020 C 
ATOM     31  C   UNL     1      -3.992  -1.322  23.983  0.00  0.00    +0.072 C 
BRANCH  27  28
ATOM     28  C   UNL     1      -3.826  -3.474  24.307  0.00  0.00    +0.182 C 
ATOM     29  O   UNL     1      -3.189  -3.838  23.927  0.00  0.00    -0.220 OA
ENDBRANCH  27  28
ENDBRANCH  23  24
ENDBRANCH  22  23
TORSDOF 7
ENDMDL
MODEL 7
REMARK VINA RESULT:     -10.9      2.516      4.738
REMARK  Name = 
REMARK  7 active torsions:
REMARK  status: ('A' for Active; 'I' for Inactive)
REMARK    1  A    between atoms: C_2  and  C_4
REMARK    2  A    between atoms: C_6  and  C_7
REMARK    3  A    between atoms: C_7  and  C_8
REMARK    4  A    between atoms: C_11  and  C_13
REMARK    5  A    between atoms: C_22  and  C_23
REMARK    6  A    between atoms: C_23  and  N_24
REMARK    7  A    between atoms: C_27  and  C_28
REMARK                            x       y       z     vdW  Elec       q    Type
REMARK                         _______ _______ _______ _____ _____    ______ ____
ROOT
ATOM      4  C   UNL     1      -3.140  -0.189  24.658  0.00  0.00    +0.006 C 
ATOM      5  C   UNL     1      -2.353  -0.314  24.874  0.00  0.00    +0.005 C 
ATOM      6  C   UNL     1      -1.882   0.325  25.102  0.00  0.00    +0.027 C 
ATOM     19  C   UNL     1      -2.199   1.087  25.114  0.00  0.00    -0.048 C 
ATOM     20  C   UNL     1      -1.728   1.725  25.342  0.00  0.00    +0.026 C 
ATOM     21  C   UNL     1      -2.985   1.210  24.898  0.00  0.00    -0.034 C 
ATOM     22  C   UNL     1      -3.456   0.573  24.670  0.00  0.00    +0.037 C 
ENDROOT
BRANCH   4   2
ATOM      1  C   UNL     1      -3.921  -1.335  25.003  0.00  0.00    +0.000 C 
ATOM      2  C   UNL     1      -3.609  -0.828  24.430  0.00  0.00    +0.000 C 
ATOM      3  C   UNL     1      -3.768  -0.960  23.633  0.00  0.00    +0.000 C 
ENDBRANCH   4   2
BRANCH   6   7
ATOM      7  C   UNL     1      -1.096   0.201  25.318  0.00  0.00    +0.091 C 
BRANCH   7   8
ATOM      8  C   UNL     1      -0.581  -0.179  24.799  0.00  0.00    +0.227 A 
ATOM      9  N   UNL     1      -0.427  -0.989  24.774  0.00  0.00    -0.111 NA
ATOM     10  N   UNL     1       0.121  -1.126  24.173  0.00  0.00    -0.107 NA
ATOM     11  C   UNL     1       0.305  -0.401  23.826  0.00  0.00    +0.251 A 
ATOM     12  O   UNL     1      -0.128   0.185  24.213  0.00  0.00    -0.419 OA
BRANCH  11  13
ATOM     13  C   UNL     1       0.831  -0.282  23.201  0.00  0.00    +0.074 A 
ATOM     14  C   UNL     1       1.575   0.045  23.345  0.00  0.00    +0.104 A 
ATOM     15  N   UNL     1       2.102   0.165  22.721  0.00  0.00    -0.242 NA
ATOM     16  C   UNL     1       1.883  -0.043  21.953  0.00  0.00    +0.099 A 
ATOM     17  C   UNL     1       1.140  -0.369  21.808  0.00  0.00    +0.021 A 
ATOM     18  C   UNL     1       0.613  -0.489  22.433  0.00  0.00    +0.008 A 
ENDBRANCH  11  13
ENDBRANCH   7   8
ENDBRANCH   6   7
BRANCH  22  23
ATOM     23  C   UNL     1      -4.242   0.696  24.454  0.00  0.00    +0.076 C 
BRANCH  23  24
ATOM     24  N   UNL     1      -4.644   1.365  24.725  0.00  0.00    -0.272 NA
ATOM     25  C   UNL     1      -5.095   1.323  25.415  0.00  0.00    +0.072 C 
ATOM     26  C   UNL     1      -5.496   1.991  25.686  0.00  0.00    +0.020 C 
ATOM     27  C   UNL     1      -5.448   2.700  25.266  0.00  0.00    +0.036 C 
ATOM     30  C   UNL     1      -4.997   2.741  24.577  0.00  0.00    +0.020 C 
ATOM     31  C   UNL     1      -4.595   2.073  24.306  0.00  0.00    +0.072 C 
BRANCH  27  28
ATOM     28  C   UNL     1      -5.849   3.367  25.537  0.00  0.00    +0.182 C 
ATOM     29  O   UNL     1      -5.428   4.045  25.747  0.00  0.00    -0.220 OA
ENDBRANCH  27  28
ENDBRANCH  23  24
ENDBRANCH  22  23
TORSDOF 7
ENDMDL
MODEL 8
REMARK VINA RESULT:     -10.7      1.931      4.998
REMARK  Name = 
REMARK  7 active torsions:
REMARK  status: ('A' for Active; 'I' for Inactive)
REMARK    1  A    between atoms: C_2  and  C_4
REMARK    2  A    between atoms: C_6  and  C_7
REMARK    3  A    between atoms: C_7  and  C_8
REMARK    4  A    between atoms: C_11  and  C_13
REMARK    5  A    between atoms: C_22  and  C_23
REMARK    6  A    between atoms: C_23  and  N_24
REMARK    7  A    between atoms: C_27  and  C_28
REMARK                            x       y       z     vdW  Elec       q    Type
REMARK                         _______ _______ _______ _____ _____    ______ ____
ROOT
ATOM      4  C   UNL     1      -1.607   3.084  24.719  0.00  0.00    +0.006 C 
ATOM      5  C   UNL     1      -1.191   2.548  24.251  0.00  0.00    +0.005 C 
ATOM      6  C   UNL     1      -1.585   2.118  23.666  0.00  0.00    +0.027 C 
ATOM     19  C   UNL     1      -2.395   2.225  23.551  0.00  0.00    -0.048 C 
ATOM     20  C   UNL     1      -2.789   1.796  22.968  0.00  0.00    +0.026 C 
ATOM     21  C   UNL     1      -2.811   2.762  24.020  0.00  0.00    -0.034 C 
ATOM     22  C   UNL     1      -2.417   3.191  24.604  0.00  0.00    +0.037 C 
ENDROOT
BRANCH   4   2
ATOM      1  C   UNL     1      -0.966   4.286  25.150  0.00  0.00    +0.000 C 
ATOM      2  C   UNL     1      -1.213   3.513  25.303  0.00  0.00    +0.000 C 
ATOM      3  C   UNL     1      -1.066   3.171  26.038  0.00  0.00    +0.000 C 
ENDBRANCH   4   2
BRANCH   6   7
ATOM      7  C   UNL     1      -1.169   1.582  23.198  0.00  0.00    +0.091 C 
BRANCH   7   8
ATOM      8  C   UNL     1      -0.827   0.915  23.540  0.00  0.00    +0.227 A 
ATOM      9  N   UNL     1      -0.018   0.774  23.624  0.00  0.00    -0.111 NA
ATOM     10  N   UNL     1       0.076   0.042  23.994  0.00  0.00    -0.107 NA
ATOM     11  C   UNL     1      -0.674  -0.269  24.139  0.00  0.00    +0.251 A 
ATOM     12  O   UNL     1      -1.232   0.271  23.858  0.00  0.00    -0.419 OA
BRANCH  11  13
ATOM     13  C   UNL     1      -0.838  -0.992  24.501  0.00  0.00    +0.074 A 
ATOM     14  C   UNL     1      -0.413  -1.225  25.168  0.00  0.00    +0.104 A 
ATOM     15  N   UNL     1      -0.576  -1.948  25.531  0.00  0.00    -0.242 NA
ATOM     16  C   UNL     1      -1.166  -2.438  25.225  0.00  0.00    +0.099 A 
ATOM     17  C   UNL     1      -1.591  -2.205  24.558  0.00  0.00    +0.021 A 
ATOM     18  C   UNL     1      -1.427  -1.481  24.196  0.00  0.00    +0.008 A 
ENDBRANCH  11  13
ENDBRANCH   7   8
ENDBRANCH   6   7
BRANCH  22  23
ATOM     23  C   UNL     1      -2.833   3.728  25.072  0.00  0.00    +0.076 C 
BRANCH  23  24
ATOM     24  N   UNL     1      -3.634   3.605  25.228  0.00  0.00    -0.272 NA
ATOM     25  C   UNL     1      -3.863   3.056  25.801  0.00  0.00    +0.072 C 
ATOM     26  C   UNL     1      -4.664   2.933  25.957  0.00  0.00    +0.020 C 
ATOM     27  C   UNL     1      -5.236   3.359  25.541  0.00  0.00    +0.036 C 
ATOM     30  C   UNL     1      -5.006   3.907  24.969  0.00  0.00    +0.020 C 
ATOM     31  C   UNL     1      -4.205   4.030  24.813  0.00  0.00    +0.072 C 
BRANCH  27  28
ATOM     28  C   UNL     1      -6.036   3.236  25.696  0.00  0.00    +0.182 C 
ATOM     29  O   UNL     1      -6.367   2.488  25.589  0.00  0.00    -0.220 OA
ENDBRANCH  27  28
ENDBRANCH  23  24
ENDBRANCH  22  23
TORSDOF 7
ENDMDL
MODEL 9
REMARK VINA RESULT:     -10.7      2.175      4.834
REMARK  Name = 
REMARK  7 active torsions:
REMARK  status: ('A' for Active; 'I' for Inactive)
REMARK    1  A    between atoms: C_2  and  C_4
REMARK    2  A    between atoms: C_6  and  C_7
REMARK    3  A    between atoms: C_7  and  C_8
REMARK    4  A    between atoms: C_11  and  C_13
REMARK    5  A    between atoms: C_22  and  C_23
REMARK    6  A    between atoms: C_23  and  N_24
REMARK    7  A    between atoms: C_27  and  C_28
REMARK                            x       y       z     vdW  Elec       q    Type
REMARK                         _______ _______ _______ _____ _____    ______ ____
ROOT
ATOM      4  C   UNL     1      -2.418   2.192  23.403  0.00  0.00    +0.006 C 
ATOM      5  C   UNL     1      -1.674   1.885  23.583  0.00  0.00    +0.005 C 
ATOM      6  C   UNL     1      -1.345   2.013  24.330  0.00  0.00    +0.027 C 
ATOM     19  C   UNL     1      -1.761   2.447  24.895  0.00  0.00    -0.048 C 
ATOM     20  C   UNL     1      -1.432   2.574  25.641  0.00  0.00    +0.026 C 
ATOM     21  C   UNL     1      -2.505   2.753  24.714  0.00  0.00    -0.034 C 
ATOM     22  C   UNL     1      -2.833   2.626  23.968  0.00  0.00    +0.037 C 
ENDROOT
BRANCH   4   2
ATOM      1  C   UNL     1      -2.702   2.655  22.081  0.00  0.00    +0.000 C 
ATOM      2  C   UNL     1      -2.746   2.064  22.657  0.00  0.00    +0.000 C 
ATOM      3  C   UNL     1      -3.116   1.349  22.486  0.00  0.00    +0.000 C 
ENDBRANCH   4   2
BRANCH   6   7
ATOM      7  C   UNL     1      -0.601   1.706  24.510  0.00  0.00    +0.091 C 
BRANCH   7   8
ATOM      8  C   UNL     1      -0.446   0.905  24.395  0.00  0.00    +0.227 A 
ATOM      9  N   UNL     1       0.152   0.589  23.922  0.00  0.00    -0.111 NA
ATOM     10  N   UNL     1       0.106  -0.234  23.967  0.00  0.00    -0.107 NA
ATOM     11  C   UNL     1      -0.521  -0.426  24.468  0.00  0.00    +0.251 A 
ATOM     12  O   UNL     1      -0.862   0.277  24.733  0.00  0.00    -0.419 OA
BRANCH  11  13
ATOM     13  C   UNL     1      -0.764  -1.188  24.670  0.00  0.00    +0.074 A 
ATOM     14  C   UNL     1      -0.359  -1.610  25.252  0.00  0.00    +0.104 A 
ATOM     15  N   UNL     1      -0.601  -2.373  25.454  0.00  0.00    -0.242 NA
ATOM     16  C   UNL     1      -1.249  -2.713  25.073  0.00  0.00    +0.099 A 
ATOM     17  C   UNL     1      -1.655  -2.292  24.492  0.00  0.00    +0.021 A 
ATOM     18  C   UNL     1      -1.411  -1.529  24.290  0.00  0.00    +0.008 A 
ENDBRANCH  11  13
ENDBRANCH   7   8
ENDBRANCH   6   7
BRANCH  22  23
ATOM     23  C   UNL     1      -3.577   2.933  23.787  0.00  0.00    +0.076 C 
BRANCH  23  24
ATOM     24  N   UNL     1      -4.156   2.985  24.374  0.00  0.00    -0.272 NA
ATOM     25  C   UNL     1      -4.284   3.701  24.763  0.00  0.00    +0.072 C 
ATOM     26  C   UNL     1      -4.862   3.754  25.349  0.00  0.00    +0.020 C 
ATOM     27  C   UNL     1      -5.312   3.090  25.547  0.00  0.00    +0.036 C 
ATOM     30  C   UNL     1      -5.183   2.375  25.157  0.00  0.00    +0.020 C 
ATOM     31  C   UNL     1      -4.605   2.322  24.571  0.00  0.00    +0.072 C 
BRANCH  27  28
ATOM     28  C   UNL     1      -5.890   3.142  26.132  0.00  0.00    +0.182 C 
ATOM     29  O   UNL     1      -6.092   2.474  26.573  0.00  0.00    -0.220 OA
ENDBRANCH  27  28
ENDBRANCH  23  24
ENDBRANCH  22  23
TORSDOF 7
ENDMDL
MODEL 10
REMARK VINA RESULT:     -10.0      2.636      4.286
REMARK  Name = 
REMARK  7 active torsions:
REMARK  status: ('A' for Active; 'I' for Inactive)
REMARK    1  A    between atoms: C_2  and  C_4
REMARK    2  A    between atoms: C_6  and  C_7
REMARK    3  A    between atoms: C_7  and  C_8
REMARK    4  A    between atoms: C_11  and  C_13
REMARK    5  A    between atoms: C_22  and  C_23
REMARK    6  A    between atoms: C_23  and  N_24
REMARK    7  A    between atoms: C_27  and  C_28
REMARK                            x       y       z     vdW  Elec       q    Type
REMARK                         _______ _______ _______ _____ _____    ______ ____
ROOT
ATOM      4  C   UNL     1      -1.311   0.520  24.754  0.00  0.00    +0.006 C 
ATOM      5  C   UNL     1      -1.713   1.208  24.968  0.00  0.00    +0.005 C 
ATOM      6  C   UNL     1      -1.431   1.944  24.721  0.00  0.00    +0.027 C 
ATOM     19  C   UNL     1      -0.747   1.991  24.261  0.00  0.00    -0.048 C 
ATOM     20  C   UNL     1      -0.466   2.726  24.015  0.00  0.00    +0.026 C 
ATOM     21  C   UNL     1      -0.346   1.302  24.048  0.00  0.00    -0.034 C 
ATOM     22  C   UNL     1      -0.628   0.567  24.294  0.00  0.00    +0.037 C 
ENDROOT
BRANCH   4   2
ATOM      1  C   UNL     1      -2.118  -0.636  24.522  0.00  0.00    +0.000 C 
ATOM      2  C   UNL     1      -1.593  -0.214  25.000  0.00  0.00    +0.000 C 
ATOM      3  C   UNL     1      -1.351  -0.528  25.723  0.00  0.00    +0.000 C 
ENDBRANCH   4   2
BRANCH   6   7
ATOM      7  C   UNL     1      -1.832   2.632  24.935  0.00  0.00    +0.091 C 
BRANCH   7   8
ATOM      8  C   UNL     1      -2.634   2.713  24.761  0.00  0.00    +0.227 A 
ATOM      9  N   UNL     1      -2.950   3.003  24.056  0.00  0.00    -0.111 NA
ATOM     10  N   UNL     1      -3.773   2.988  24.120  0.00  0.00    -0.107 NA
ATOM     11  C   UNL     1      -3.965   2.687  24.864  0.00  0.00    +0.251 A 
ATOM     12  O   UNL     1      -3.261   2.517  25.260  0.00  0.00    -0.419 OA
BRANCH  11  13
ATOM     13  C   UNL     1      -4.726   2.576  25.160  0.00  0.00    +0.074 A 
ATOM     14  C   UNL     1      -5.019   3.079  25.744  0.00  0.00    +0.104 A 
ATOM     15  N   UNL     1      -5.781   2.969  26.042  0.00  0.00    -0.242 NA
ATOM     16  C   UNL     1      -6.250   2.354  25.753  0.00  0.00    +0.099 A 
ATOM     17  C   UNL     1      -5.958   1.850  25.169  0.00  0.00    +0.021 A 
ATOM     18  C   UNL     1      -5.195   1.962  24.873  0.00  0.00    +0.008 A 
ENDBRANCH  11  13
ENDBRANCH   7   8
ENDBRANCH   6   7
BRANCH  22  23
ATOM     23  C   UNL     1      -0.227  -0.120  24.080  0.00  0.00    +0.076 C 
BRANCH  23  24
ATOM     24  N   UNL     1       0.437  -0.076  23.590  0.00  0.00    -0.272 NA
ATOM     25  C   UNL     1       1.173   0.116  23.909  0.00  0.00    +0.072 C 
ATOM     26  C   UNL     1       1.835   0.160  23.419  0.00  0.00    +0.020 C 
ATOM     27  C   UNL     1       1.761   0.012  22.610  0.00  0.00    +0.036 C 
ATOM     30  C   UNL     1       1.025  -0.181  22.293  0.00  0.00    +0.020 C 
ATOM     31  C   UNL     1       0.362  -0.225  22.782  0.00  0.00    +0.072 C 
BRANCH  27  28
ATOM     28  C   UNL     1       2.423   0.056  22.121  0.00  0.00    +0.182 C 
ATOM     29  O   UNL     1       3.115   0.413  22.393  0.00  0.00    -0.220 OA
ENDBRANCH  27  28
ENDBRANCH  23  24
ENDBRANCH  22  23
TORSDOF 7
ENDMDL
