REMARK  Name = 
REMARK  10 active torsions:
REMARK  status: ('A' for Active; 'I' for Inactive)
REMARK    1  A    between atoms: O_2  and  C_3
REMARK    2  A    between atoms: C_3  and  C_5
REMARK    3  A    between atoms: C_5  and  N_6
REMARK    4  A    between atoms: C_5  and  C_31
REMARK    5  A    between atoms: C_7  and  C_9
REMARK    6  A    between atoms: C_10  and  N_19
REMARK    7  A    between atoms: C_14  and  C_16
REMARK    8  A    between atoms: C_16  and  S_17
REMARK    9  A    between atoms: N_22  and  C_23
REMARK   10  A    between atoms: C_27  and  O_28
REMARK                            x       y       z     vdW  Elec       q    Type
REMARK                         _______ _______ _______ _____ _____    ______ ____
ROOT
ATOM      9  C   UNL     1       9.268   2.029   0.000  0.00  0.00    +0.174 C 
ATOM     10  C   UNL     1      10.021   1.693   0.000  0.00  0.00    +0.126 C 
ATOM     11  C   UNL     1      10.573   2.306   0.000  0.00  0.00    +0.045 C 
ATOM     12  C   UNL     1      10.161   3.021   0.000  0.00  0.00    +0.096 C 
ATOM     13  N   UNL     1       9.354   2.849   0.000  0.00  0.00    -0.271 N 
ATOM     14  C   UNL     1       8.741   3.401   0.000  0.00  0.00    +0.237 C 
ATOM     15  O   UNL     1       8.912   4.208   0.000  0.00  0.00    -0.274 OA
ENDROOT
BRANCH  10  19
ATOM     19  N   UNL     1      10.193   0.886   0.000  0.00  0.00    -0.186 NA
ATOM     20  C   UNL     1      10.978   0.631   0.000  0.00  0.00    +0.344 C 
ATOM     21  O   UNL     1      11.591   1.183   0.000  0.00  0.00    -0.249 OA
ATOM     22  N   UNL     1      11.149  -0.176   0.000  0.00  0.00    -0.161 NA
BRANCH  22  23
ATOM     23  C   UNL     1      10.536  -0.728   0.000  0.00  0.00    +0.078 A 
ATOM     24  C   UNL     1      10.707  -1.535   0.000  0.00  0.00    +0.017 A 
ATOM     25  C   UNL     1      10.094  -2.087   0.000  0.00  0.00    +0.004 A 
ATOM     26  C   UNL     1       9.310  -1.832   0.000  0.00  0.00    +0.037 A 
ATOM     27  C   UNL     1       9.138  -1.025   0.000  0.00  0.00    +0.140 A 
ATOM     30  C   UNL     1       9.751  -0.473   0.000  0.00  0.00    +0.054 A 
BRANCH  27  28
ATOM     28  O   UNL     1       8.354  -0.770   0.000  0.00  0.00    -0.471 OA
ATOM     29  C   UNL     1       7.741  -1.322   0.000  0.00  0.00    +0.252 C 
ENDBRANCH  27  28
ENDBRANCH  22  23
ENDBRANCH  10  19
BRANCH   9   7
ATOM      6  N   UNL     1       7.839   2.029   0.000  0.00  0.00    -0.194 NA
ATOM      7  C   UNL     1       8.553   1.616   0.000  0.00  0.00    +0.262 C 
ATOM      8  O   UNL     1       8.553   0.791   0.000  0.00  0.00    -0.271 OA
BRANCH   6   5
ATOM      5  C   UNL     1       7.124   1.616   0.000  0.00  0.00    +0.193 C 
BRANCH   5  31
ATOM     31  C   UNL     1       7.124   0.791   0.000  0.00  0.00    +0.031 C 
ATOM     32  C   UNL     1       7.839   0.379   0.000  0.00  0.00    +0.002 C 
ATOM     33  C   UNL     1       6.410   0.379   0.000  0.00  0.00    +0.002 C 
ENDBRANCH   5  31
BRANCH   5   3
ATOM      3  C   UNL     1       6.410   2.029   0.000  0.00  0.00    +0.337 C 
ATOM      4  O   UNL     1       6.410   2.854   0.000  0.00  0.00    -0.248 OA
BRANCH   3   2
ATOM      1  C   UNL     1       4.981   2.029   0.000  0.00  0.00    +0.256 C 
ATOM      2  O   UNL     1       5.695   1.616   0.000  0.00  0.00    -0.443 OA
ENDBRANCH   3   2
ENDBRANCH   5   3
ENDBRANCH   6   5
ENDBRANCH   9   7
BRANCH  14  16
ATOM     16  C   UNL     1       7.956   3.146   0.000  0.00  0.00    +0.143 C 
BRANCH  16  17
ATOM     17  S   UNL     1       7.343   3.699   0.000  0.00  0.00    -0.130 S 
ATOM     18  C   UNL     1       6.559   3.443   0.000  0.00  0.00    +0.070 C 
ENDBRANCH  16  17
ENDBRANCH  14  16
TORSDOF 10
