MODEL 1
REMARK VINA RESULT:     -12.9      0.000      0.000
REMARK  Name = 
REMARK  3 active torsions:
REMARK  status: ('A' for Active; 'I' for Inactive)
REMARK    1  A    between atoms: N_3  and  C_20
REMARK    2  A    between atoms: N_7  and  S_11
REMARK    3  A    between atoms: S_11  and  C_14
REMARK                            x       y       z     vdW  Elec       q    Type
REMARK                         _______ _______ _______ _____ _____    ______ ____
ROOT
ATOM      1  O   UNL     1      -4.967   0.108  24.833  0.00  0.00    -0.252 OA
ATOM      2  C   UNL     1      -4.163   0.284  24.779  0.00  0.00    +0.307 C 
ATOM      3  N   UNL     1      -3.554  -0.259  24.660  0.00  0.00    -0.264 N 
ATOM      4  C   UNL     1      -2.841   0.156  24.642  0.00  0.00    +0.116 C 
ATOM      5  C   UNL     1      -3.010   0.956  24.750  0.00  0.00    +0.114 C 
ATOM      6  C   UNL     1      -2.526   1.623  24.783  0.00  0.00    +0.117 C 
ATOM      7  N   UNL     1      -2.857   2.369  24.900  0.00  0.00    -0.152 NA
ATOM      8  C   UNL     1      -3.674   2.448  24.984  0.00  0.00    +0.117 C 
ATOM      9  C   UNL     1      -4.159   1.782  24.952  0.00  0.00    +0.114 C 
ATOM     10  N   UNL     1      -3.827   1.035  24.835  0.00  0.00    -0.261 N 
ENDROOT
BRANCH   3  20
ATOM     20  C   UNL     1      -3.642  -1.075  24.574  0.00  0.00    +0.077 C 
ATOM     21  C   UNL     1      -3.990  -1.383  23.892  0.00  0.00    +0.020 C 
ATOM     22  C   UNL     1      -4.078  -2.199  23.806  0.00  0.00    +0.002 C 
ATOM     23  C   UNL     1      -3.818  -2.707  24.402  0.00  0.00    +0.000 C 
ATOM     24  C   UNL     1      -3.470  -2.400  25.084  0.00  0.00    +0.002 C 
ATOM     25  C   UNL     1      -3.382  -1.584  25.170  0.00  0.00    +0.020 C 
ENDBRANCH   3  20
BRANCH   7  11
ATOM     11  S   UNL     1      -2.373   3.036  24.932  0.00  0.00    +0.063 S 
ATOM     12  O   UNL     1      -2.228   2.891  25.732  0.00  0.00    -0.153 OA
ATOM     13  O   UNL     1      -2.518   3.181  24.134  0.00  0.00    -0.153 OA
BRANCH  11  14
ATOM     14  C   UNL     1      -1.889   3.703  24.966  0.00  0.00    +0.122 A 
ATOM     15  C   UNL     1      -1.094   3.648  24.750  0.00  0.00    +0.020 A 
ATOM     16  C   UNL     1      -0.611   4.316  24.784  0.00  0.00    +0.001 A 
ATOM     17  C   UNL     1      -0.921   5.038  25.034  0.00  0.00    +0.000 A 
ATOM     18  C   UNL     1      -1.715   5.093  25.250  0.00  0.00    +0.001 A 
ATOM     19  C   UNL     1      -2.200   4.426  25.216  0.00  0.00    +0.020 A 
ENDBRANCH  11  14
ENDBRANCH   7  11
TORSDOF 3
ENDMDL
MODEL 2
REMARK VINA RESULT:     -12.8      1.395      5.285
REMARK  Name = 
REMARK  3 active torsions:
REMARK  status: ('A' for Active; 'I' for Inactive)
REMARK    1  A    between atoms: N_3  and  C_20
REMARK    2  A    between atoms: N_7  and  S_11
REMARK    3  A    between atoms: S_11  and  C_14
REMARK                            x       y       z     vdW  Elec       q    Type
REMARK                         _______ _______ _______ _____ _____    ______ ____
ROOT
ATOM      1  O   UNL     1      -0.376   2.359  25.894  0.00  0.00    -0.252 OA
ATOM      2  C   UNL     1      -1.078   2.177  25.499  0.00  0.00    +0.307 C 
ATOM      3  N   UNL     1      -1.592   2.720  25.150  0.00  0.00    -0.264 N 
ATOM      4  C   UNL     1      -2.221   2.299  24.820  0.00  0.00    +0.116 C 
ATOM      5  C   UNL     1      -2.095   1.497  24.965  0.00  0.00    +0.114 C 
ATOM      6  C   UNL     1      -2.531   0.825  24.770  0.00  0.00    +0.117 C 
ATOM      7  N   UNL     1      -2.263   0.079  24.994  0.00  0.00    -0.152 NA
ATOM      8  C   UNL     1      -1.556   0.003  25.413  0.00  0.00    +0.117 C 
ATOM      9  C   UNL     1      -1.119   0.675  25.609  0.00  0.00    +0.114 C 
ATOM     10  N   UNL     1      -1.388   1.422  25.385  0.00  0.00    -0.261 N 
ENDROOT
BRANCH   3  20
ATOM     20  C   UNL     1      -1.495   3.539  25.134  0.00  0.00    +0.077 C 
ATOM     21  C   UNL     1      -0.861   3.872  24.725  0.00  0.00    +0.020 C 
ATOM     22  C   UNL     1      -0.764   4.691  24.709  0.00  0.00    +0.002 C 
ATOM     23  C   UNL     1      -1.301   5.177  25.101  0.00  0.00    +0.000 C 
ATOM     24  C   UNL     1      -1.936   4.846  25.511  0.00  0.00    +0.002 C 
ATOM     25  C   UNL     1      -2.033   4.026  25.527  0.00  0.00    +0.020 C 
ENDBRANCH   3  20
BRANCH   7  11
ATOM     11  S   UNL     1      -2.699  -0.594  24.798  0.00  0.00    +0.063 S 
ATOM     12  O   UNL     1      -2.155  -0.774  24.204  0.00  0.00    -0.153 OA
ATOM     13  O   UNL     1      -3.243  -0.414  25.392  0.00  0.00    -0.153 OA
BRANCH  11  14
ATOM     14  C   UNL     1      -3.135  -1.266  24.602  0.00  0.00    +0.122 A 
ATOM     15  C   UNL     1      -2.926  -2.000  24.917  0.00  0.00    +0.020 A 
ATOM     16  C   UNL     1      -3.363  -2.672  24.719  0.00  0.00    +0.001 A 
ATOM     17  C   UNL     1      -4.007  -2.610  24.208  0.00  0.00    +0.000 A 
ATOM     18  C   UNL     1      -4.215  -1.877  23.894  0.00  0.00    +0.001 A 
ATOM     19  C   UNL     1      -3.780  -1.204  24.090  0.00  0.00    +0.020 A 
ENDBRANCH  11  14
ENDBRANCH   7  11
TORSDOF 3
ENDMDL
MODEL 3
REMARK VINA RESULT:     -12.7      1.004      5.120
REMARK  Name = 
REMARK  3 active torsions:
REMARK  status: ('A' for Active; 'I' for Inactive)
REMARK    1  A    between atoms: N_3  and  C_20
REMARK    2  A    between atoms: N_7  and  S_11
REMARK    3  A    between atoms: S_11  and  C_14
REMARK                            x       y       z     vdW  Elec       q    Type
REMARK                         _______ _______ _______ _____ _____    ______ ____
ROOT
ATOM      1  O   UNL     1      -3.863   3.541  24.777  0.00  0.00    -0.252 OA
ATOM      2  C   UNL     1      -3.347   2.897  24.803  0.00  0.00    +0.307 C 
ATOM      3  N   UNL     1      -2.529   2.935  24.898  0.00  0.00    -0.264 N 
ATOM      4  C   UNL     1      -2.236   2.163  24.892  0.00  0.00    +0.116 C 
ATOM      5  C   UNL     1      -2.873   1.650  24.794  0.00  0.00    +0.114 C 
ATOM      6  C   UNL     1      -2.917   0.827  24.748  0.00  0.00    +0.117 C 
ATOM      7  N   UNL     1      -3.648   0.458  24.646  0.00  0.00    -0.152 NA
ATOM      8  C   UNL     1      -4.335   0.911  24.591  0.00  0.00    +0.117 C 
ATOM      9  C   UNL     1      -4.292   1.734  24.637  0.00  0.00    +0.114 C 
ATOM     10  N   UNL     1      -3.560   2.103  24.739  0.00  0.00    -0.261 N 
ENDROOT
BRANCH   3  20
ATOM     20  C   UNL     1      -2.082   3.623  24.983  0.00  0.00    +0.077 C 
ATOM     21  C   UNL     1      -2.361   4.241  25.453  0.00  0.00    +0.020 C 
ATOM     22  C   UNL     1      -1.914   4.929  25.539  0.00  0.00    +0.002 C 
ATOM     23  C   UNL     1      -1.188   4.999  25.154  0.00  0.00    +0.000 C 
ATOM     24  C   UNL     1      -0.908   4.381  24.684  0.00  0.00    +0.002 C 
ATOM     25  C   UNL     1      -1.355   3.693  24.598  0.00  0.00    +0.020 C 
ENDBRANCH   3  20
BRANCH   7  11
ATOM     11  S   UNL     1      -3.692  -0.365  24.600  0.00  0.00    +0.063 S 
ATOM     12  O   UNL     1      -3.506  -0.329  23.796  0.00  0.00    -0.153 OA
ATOM     13  O   UNL     1      -3.878  -0.401  25.402  0.00  0.00    -0.153 OA
BRANCH  11  14
ATOM     14  C   UNL     1      -3.736  -1.187  24.552  0.00  0.00    +0.122 A 
ATOM     15  C   UNL     1      -4.158  -1.543  23.939  0.00  0.00    +0.020 A 
ATOM     16  C   UNL     1      -4.201  -2.366  23.892  0.00  0.00    +0.001 A 
ATOM     17  C   UNL     1      -3.823  -2.832  24.458  0.00  0.00    +0.000 A 
ATOM     18  C   UNL     1      -3.402  -2.476  25.071  0.00  0.00    +0.001 A 
ATOM     19  C   UNL     1      -3.358  -1.654  25.119  0.00  0.00    +0.020 A 
ENDBRANCH  11  14
ENDBRANCH   7  11
TORSDOF 3
ENDMDL
