MODEL 1
REMARK VINA RESULT:      -9.0      0.000      0.000
REMARK  Name = 
REMARK  5 active torsions:
REMARK  status: ('A' for Active; 'I' for Inactive)
REMARK    1  A    between atoms: S_2  and  C_3
REMARK    2  A    between atoms: C_3  and  C_4
REMARK    3  A    between atoms: N_6  and  C_7
REMARK    4  A    between atoms: C_18  and  C_23
REMARK    5  A    between atoms: C_26  and  S_27
REMARK                            x       y       z     vdW  Elec       q    Type
REMARK                         _______ _______ _______ _____ _____    ______ ____
ROOT
ATOM      7  C   UNL     1       0.946   0.702  23.534  0.00  0.00    +0.124 C 
ATOM      8  C   UNL     1       0.671  -0.018  23.239  0.00  0.00    +0.045 C 
ATOM      9  C   UNL     1      -0.148  -0.038  23.339  0.00  0.00    +0.096 C 
ATOM     10  N   UNL     1      -0.379   0.670  23.696  0.00  0.00    -0.268 N 
ATOM     11  C   UNL     1       0.299   1.127  23.816  0.00  0.00    +0.174 C 
ATOM     12  C   UNL     1       0.358   1.878  24.153  0.00  0.00    +0.265 C 
ATOM     13  O   UNL     1       1.121   2.190  24.195  0.00  0.00    -0.271 OA
ATOM     14  N   UNL     1      -0.242   2.356  24.453  0.00  0.00    -0.178 NA
ATOM     15  C   UNL     1      -1.052   2.203  24.491  0.00  0.00    +0.078 A 
ATOM     16  C   UNL     1      -1.463   2.831  24.835  0.00  0.00    +0.017 A 
ATOM     17  C   UNL     1      -2.281   2.790  24.925  0.00  0.00    +0.001 A 
ATOM     18  C   UNL     1      -2.690   2.119  24.671  0.00  0.00    +0.000 A 
ATOM     19  C   UNL     1      -2.280   1.491  24.327  0.00  0.00    +0.006 A 
ATOM     20  C   UNL     1      -1.461   1.533  24.237  0.00  0.00    +0.069 A 
ATOM     21  C   UNL     1      -1.161   0.851  23.883  0.00  0.00    +0.251 C 
ATOM     22  O   UNL     1      -1.717   0.273  23.692  0.00  0.00    -0.270 OA
ENDROOT
BRANCH  18  23
ATOM     23  C   UNL     1      -3.509   2.077  24.761  0.00  0.00    +0.000 A 
ATOM     24  C   UNL     1      -3.848   1.445  25.170  0.00  0.00    +0.001 A 
ATOM     25  C   UNL     1      -4.667   1.404  25.260  0.00  0.00    +0.006 A 
ATOM     26  C   UNL     1      -5.148   1.994  24.940  0.00  0.00    +0.025 A 
ATOM     29  C   UNL     1      -4.808   2.625  24.531  0.00  0.00    +0.006 A 
ATOM     30  C   UNL     1      -3.989   2.667  24.442  0.00  0.00    +0.001 A 
BRANCH  26  27
ATOM     27  S   UNL     1      -5.966   1.952  25.030  0.00  0.00    -0.113 S 
ATOM     28  C   UNL     1      -6.300   1.963  25.785  0.00  0.00    +0.074 C 
ENDBRANCH  26  27
ENDBRANCH  18  23
BRANCH   7   6
ATOM      4  C   UNL     1       2.290   0.579  23.065  0.00  0.00    +0.252 C 
ATOM      5  O   UNL     1       2.063  -0.044  22.575  0.00  0.00    -0.272 OA
ATOM      6  N   UNL     1       1.732   0.953  23.545  0.00  0.00    -0.204 NA
BRANCH   4   3
ATOM      3  C   UNL     1       3.077   0.830  23.075  0.00  0.00    +0.144 C 
BRANCH   3   2
ATOM      1  C   UNL     1       4.441   0.617  22.710  0.00  0.00    +0.070 C 
ATOM      2  S   UNL     1       3.642   0.433  22.624  0.00  0.00    -0.130 S 
ENDBRANCH   3   2
ENDBRANCH   4   3
ENDBRANCH   7   6
TORSDOF 5
ENDMDL
MODEL 2
REMARK VINA RESULT:      -8.3      1.524      6.100
REMARK  Name = 
REMARK  5 active torsions:
REMARK  status: ('A' for Active; 'I' for Inactive)
REMARK    1  A    between atoms: S_2  and  C_3
REMARK    2  A    between atoms: C_3  and  C_4
REMARK    3  A    between atoms: N_6  and  C_7
REMARK    4  A    between atoms: C_18  and  C_23
REMARK    5  A    between atoms: C_26  and  S_27
REMARK                            x       y       z     vdW  Elec       q    Type
REMARK                         _______ _______ _______ _____ _____    ______ ____
ROOT
ATOM      7  C   UNL     1      -3.588   1.678  24.324  0.00  0.00    +0.124 C 
ATOM      8  C   UNL     1      -3.506   2.354  23.857  0.00  0.00    +0.045 C 
ATOM      9  C   UNL     1      -2.746   2.350  23.536  0.00  0.00    +0.096 C 
ATOM     10  N   UNL     1      -2.359   1.673  23.804  0.00  0.00    -0.268 N 
ATOM     11  C   UNL     1      -2.880   1.257  24.292  0.00  0.00    +0.174 C 
ATOM     12  C   UNL     1      -2.753   0.547  24.692  0.00  0.00    +0.265 C 
ATOM     13  O   UNL     1      -3.390   0.272  25.139  0.00  0.00    -0.271 OA
ATOM     14  N   UNL     1      -2.076   0.078  24.705  0.00  0.00    -0.178 NA
ATOM     15  C   UNL     1      -1.357   0.201  24.320  0.00  0.00    +0.078 A 
ATOM     16  C   UNL     1      -0.821  -0.406  24.480  0.00  0.00    +0.017 A 
ATOM     17  C   UNL     1      -0.066  -0.389  24.147  0.00  0.00    +0.001 A 
ATOM     18  C   UNL     1       0.153   0.236  23.654  0.00  0.00    +0.000 A 
ATOM     19  C   UNL     1      -0.383   0.843  23.494  0.00  0.00    +0.006 A 
ATOM     20  C   UNL     1      -1.138   0.825  23.827  0.00  0.00    +0.069 A 
ATOM     21  C   UNL     1      -1.584   1.480  23.598  0.00  0.00    +0.251 C 
ATOM     22  O   UNL     1      -1.205   2.013  23.095  0.00  0.00    -0.270 OA
ENDROOT
BRANCH  18  23
ATOM     23  C   UNL     1       0.907   0.254  23.322  0.00  0.00    +0.000 A 
ATOM     24  C   UNL     1       1.107  -0.276  22.721  0.00  0.00    +0.001 A 
ATOM     25  C   UNL     1       1.861  -0.259  22.389  0.00  0.00    +0.006 A 
ATOM     26  C   UNL     1       2.417   0.289  22.657  0.00  0.00    +0.025 A 
ATOM     29  C   UNL     1       2.217   0.819  23.258  0.00  0.00    +0.006 A 
ATOM     30  C   UNL     1       1.463   0.801  23.590  0.00  0.00    +0.001 A 
BRANCH  26  27
ATOM     27  S   UNL     1       3.172   0.307  22.325  0.00  0.00    -0.113 S 
ATOM     28  C   UNL     1       3.780   0.717  22.703  0.00  0.00    +0.074 C 
ENDBRANCH  26  27
ENDBRANCH  18  23
BRANCH   7   6
ATOM      4  C   UNL     1      -4.889   1.993  24.827  0.00  0.00    +0.252 C 
ATOM      5  O   UNL     1      -4.842   2.740  24.480  0.00  0.00    -0.272 OA
ATOM      6  N   UNL     1      -4.262   1.462  24.749  0.00  0.00    -0.204 NA
BRANCH   4   3
ATOM      3  C   UNL     1      -5.562   1.776  25.252  0.00  0.00    +0.144 C 
BRANCH   3   2
ATOM      1  C   UNL     1      -6.449   2.078  26.332  0.00  0.00    +0.070 C 
ATOM      2  S   UNL     1      -5.943   2.330  25.731  0.00  0.00    -0.130 S 
ENDBRANCH   3   2
ENDBRANCH   4   3
ENDBRANCH   7   6
TORSDOF 5
ENDMDL
MODEL 3
REMARK VINA RESULT:      -7.0      3.032      4.505
REMARK  Name = 
REMARK  5 active torsions:
REMARK  status: ('A' for Active; 'I' for Inactive)
REMARK    1  A    between atoms: S_2  and  C_3
REMARK    2  A    between atoms: C_3  and  C_4
REMARK    3  A    between atoms: N_6  and  C_7
REMARK    4  A    between atoms: C_18  and  C_23
REMARK    5  A    between atoms: C_26  and  S_27
REMARK                            x       y       z     vdW  Elec       q    Type
REMARK                         _______ _______ _______ _____ _____    ______ ____
ROOT
ATOM      7  C   UNL     1      -1.717   3.135  25.239  0.00  0.00    +0.124 C 
ATOM      8  C   UNL     1      -0.961   2.805  25.230  0.00  0.00    +0.045 C 
ATOM      9  C   UNL     1      -1.039   1.992  25.116  0.00  0.00    +0.096 C 
ATOM     10  N   UNL     1      -1.844   1.819  25.055  0.00  0.00    -0.268 N 
ATOM     11  C   UNL     1      -2.263   2.527  25.131  0.00  0.00    +0.174 C 
ATOM     12  C   UNL     1      -3.079   2.645  25.109  0.00  0.00    +0.265 C 
ATOM     13  O   UNL     1      -3.328   3.426  25.203  0.00  0.00    -0.271 OA
ATOM     14  N   UNL     1      -3.677   2.088  25.005  0.00  0.00    -0.178 NA
ATOM     15  C   UNL     1      -3.608   1.273  24.898  0.00  0.00    +0.078 A 
ATOM     16  C   UNL     1      -4.348   0.916  24.814  0.00  0.00    +0.017 A 
ATOM     17  C   UNL     1      -4.402   0.101  24.701  0.00  0.00    +0.001 A 
ATOM     18  C   UNL     1      -3.716  -0.358  24.671  0.00  0.00    +0.000 A 
ATOM     19  C   UNL     1      -2.976  -0.001  24.754  0.00  0.00    +0.006 A 
ATOM     20  C   UNL     1      -2.923   0.815  24.868  0.00  0.00    +0.069 A 
ATOM     21  C   UNL     1      -2.138   1.058  24.937  0.00  0.00    +0.251 C 
ATOM     22  O   UNL     1      -1.572   0.461  24.883  0.00  0.00    -0.270 OA
ENDROOT
BRANCH  18  23
ATOM     23  C   UNL     1      -3.770  -1.173  24.558  0.00  0.00    +0.000 A 
ATOM     24  C   UNL     1      -3.468  -1.690  25.126  0.00  0.00    +0.001 A 
ATOM     25  C   UNL     1      -3.522  -2.505  25.012  0.00  0.00    +0.006 A 
ATOM     26  C   UNL     1      -3.879  -2.804  24.330  0.00  0.00    +0.025 A 
ATOM     29  C   UNL     1      -4.181  -2.287  23.763  0.00  0.00    +0.006 A 
ATOM     30  C   UNL     1      -4.127  -1.472  23.876  0.00  0.00    +0.001 A 
BRANCH  26  27
ATOM     27  S   UNL     1      -3.933  -3.619  24.217  0.00  0.00    -0.113 S 
ATOM     28  C   UNL     1      -3.429  -3.997  23.684  0.00  0.00    +0.074 C 
ENDBRANCH  26  27
ENDBRANCH  18  23
BRANCH   7   6
ATOM      4  C   UNL     1      -1.315   4.507  25.210  0.00  0.00    +0.252 C 
ATOM      5  O   UNL     1      -0.556   4.280  24.980  0.00  0.00    -0.272 OA
ATOM      6  N   UNL     1      -1.896   3.935  25.340  0.00  0.00    -0.204 NA
BRANCH   4   3
ATOM      3  C   UNL     1      -1.494   5.306  25.310  0.00  0.00    +0.144 C 
BRANCH   3   2
ATOM      1  C   UNL     1      -1.676   6.554  24.639  0.00  0.00    +0.070 C 
ATOM      2  S   UNL     1      -1.249   5.857  24.747  0.00  0.00    -0.130 S 
ENDBRANCH   3   2
ENDBRANCH   4   3
ENDBRANCH   7   6
TORSDOF 5
ENDMDL
MODEL 4
REMARK VINA RESULT:      -6.3     17.506     19.162
REMARK  Name = 
REMARK  5 active torsions:
REMARK  status: ('A' for Active; 'I' for Inactive)
REMARK    1  A    between atoms: S_2  and  C_3
REMARK    2  A    between atoms: C_3  and  C_4
REMARK    3  A    between atoms: N_6  and  C_7
REMARK    4  A    between atoms: C_18  and  C_23
REMARK    5  A    between atoms: C_26  and  S_27
REMARK                            x       y       z     vdW  Elec       q    Type
REMARK                         _______ _______ _______ _____ _____    ______ ____
ROOT
ATOM      7  C   UNL     1      -8.196  -8.524   9.447  0.00  0.00    +0.124 C 
ATOM      8  C   UNL     1      -8.466  -8.785  10.181  0.00  0.00    +0.045 C 
ATOM      9  C   UNL     1      -7.817  -9.069  10.605  0.00  0.00    +0.096 C 
ATOM     10  N   UNL     1      -7.146  -8.985  10.132  0.00  0.00    -0.268 N 
ATOM     11  C   UNL     1      -7.381  -8.648   9.415  0.00  0.00    +0.174 C 
ATOM     12  C   UNL     1      -6.916  -8.454   8.762  0.00  0.00    +0.265 C 
ATOM     13  O   UNL     1      -7.318  -8.121   8.124  0.00  0.00    -0.271 OA
ATOM     14  N   UNL     1      -6.103  -8.549   8.663  0.00  0.00    -0.178 NA
ATOM     15  C   UNL     1      -5.553  -8.861   9.193  0.00  0.00    +0.078 A 
ATOM     16  C   UNL     1      -4.791  -8.856   8.875  0.00  0.00    +0.017 A 
ATOM     17  C   UNL     1      -4.158  -9.146   9.316  0.00  0.00    +0.001 A 
ATOM     18  C   UNL     1      -4.286  -9.441  10.077  0.00  0.00    +0.000 A 
ATOM     19  C   UNL     1      -5.048  -9.445  10.395  0.00  0.00    +0.006 A 
ATOM     20  C   UNL     1      -5.681  -9.155   9.952  0.00  0.00    +0.069 A 
ATOM     21  C   UNL     1      -6.390  -9.210  10.370  0.00  0.00    +0.251 C 
ATOM     22  O   UNL     1      -6.336  -9.534  11.127  0.00  0.00    -0.270 OA
ENDROOT
BRANCH  18  23
ATOM     23  C   UNL     1      -3.652  -9.730  10.519  0.00  0.00    +0.000 A 
ATOM     24  C   UNL     1      -3.684 -10.492  10.836  0.00  0.00    +0.001 A 
ATOM     25  C   UNL     1      -3.051 -10.781  11.278  0.00  0.00    +0.006 A 
ATOM     26  C   UNL     1      -2.385 -10.309  11.403  0.00  0.00    +0.025 A 
ATOM     29  C   UNL     1      -2.354  -9.548  11.085  0.00  0.00    +0.006 A 
ATOM     30  C   UNL     1      -2.987  -9.259  10.643  0.00  0.00    +0.001 A 
BRANCH  26  27
ATOM     27  S   UNL     1      -1.751 -10.599  11.844  0.00  0.00    -0.113 S 
ATOM     28  C   UNL     1      -1.826 -10.692  12.661  0.00  0.00    +0.074 C 
ENDBRANCH  26  27
ENDBRANCH  18  23
BRANCH   7   6
ATOM      4  C   UNL     1      -9.436  -7.967   9.007  0.00  0.00    +0.252 C 
ATOM      5  O   UNL     1      -9.748  -8.064   9.764  0.00  0.00    -0.272 OA
ATOM      6  N   UNL     1      -8.660  -8.198   8.847  0.00  0.00    -0.204 NA
BRANCH   4   3
ATOM      3  C   UNL     1      -9.900  -7.641   8.407  0.00  0.00    +0.144 C 
BRANCH   3   2
ATOM      1  C   UNL     1     -10.664  -6.459   8.159  0.00  0.00    +0.070 C 
ATOM      2  S   UNL     1     -10.531  -7.144   8.599  0.00  0.00    -0.130 S 
ENDBRANCH   3   2
ENDBRANCH   4   3
ENDBRANCH   7   6
TORSDOF 5
ENDMDL
MODEL 5
REMARK VINA RESULT:      -5.8      3.226      4.771
REMARK  Name = 
REMARK  5 active torsions:
REMARK  status: ('A' for Active; 'I' for Inactive)
REMARK    1  A    between atoms: S_2  and  C_3
REMARK    2  A    between atoms: C_3  and  C_4
REMARK    3  A    between atoms: N_6  and  C_7
REMARK    4  A    between atoms: C_18  and  C_23
REMARK    5  A    between atoms: C_26  and  S_27
REMARK                            x       y       z     vdW  Elec       q    Type
REMARK                         _______ _______ _______ _____ _____    ______ ____
ROOT
ATOM      7  C   UNL     1      -3.457  -0.762  24.608  0.00  0.00    +0.124 C 
ATOM      8  C   UNL     1      -4.123  -0.423  24.261  0.00  0.00    +0.045 C 
ATOM      9  C   UNL     1      -4.004   0.392  24.222  0.00  0.00    +0.096 C 
ATOM     10  N   UNL     1      -3.263   0.557  24.546  0.00  0.00    -0.268 N 
ATOM     11  C   UNL     1      -2.925  -0.157  24.785  0.00  0.00    +0.174 C 
ATOM     12  C   UNL     1      -2.191  -0.285  25.140  0.00  0.00    +0.265 C 
ATOM     13  O   UNL     1      -2.011  -1.071  25.313  0.00  0.00    -0.271 OA
ATOM     14  N   UNL     1      -1.615   0.268  25.343  0.00  0.00    -0.178 NA
ATOM     15  C   UNL     1      -1.629   1.087  25.243  0.00  0.00    +0.078 A 
ATOM     16  C   UNL     1      -0.936   1.438  25.523  0.00  0.00    +0.017 A 
ATOM     17  C   UNL     1      -0.839   2.256  25.475  0.00  0.00    +0.001 A 
ATOM     18  C   UNL     1      -1.434   2.723  25.145  0.00  0.00    +0.000 A 
ATOM     19  C   UNL     1      -2.127   2.372  24.865  0.00  0.00    +0.006 A 
ATOM     20  C   UNL     1      -2.224   1.554  24.913  0.00  0.00    +0.069 A 
ATOM     21  C   UNL     1      -2.951   1.318  24.604  0.00  0.00    +0.251 C 
ATOM     22  O   UNL     1      -3.430   1.924  24.313  0.00  0.00    -0.270 OA
ENDROOT
BRANCH  18  23
ATOM     23  C   UNL     1      -1.337   3.541  25.096  0.00  0.00    +0.000 A 
ATOM     24  C   UNL     1      -0.687   3.856  24.698  0.00  0.00    +0.001 A 
ATOM     25  C   UNL     1      -0.589   4.674  24.649  0.00  0.00    +0.006 A 
ATOM     26  C   UNL     1      -1.142   5.176  25.000  0.00  0.00    +0.025 A 
ATOM     29  C   UNL     1      -1.792   4.860  25.398  0.00  0.00    +0.006 A 
ATOM     30  C   UNL     1      -1.890   4.043  25.447  0.00  0.00    +0.001 A 
BRANCH  26  27
ATOM     27  S   UNL     1      -1.045   5.994  24.951  0.00  0.00    -0.113 S 
ATOM     28  C   UNL     1      -1.705   6.486  24.898  0.00  0.00    +0.074 C 
ENDBRANCH  26  27
ENDBRANCH  18  23
BRANCH   7   6
ATOM      4  C   UNL     1      -3.820  -2.125  24.381  0.00  0.00    +0.252 C 
ATOM      5  O   UNL     1      -4.414  -1.881  23.863  0.00  0.00    -0.272 OA
ATOM      6  N   UNL     1      -3.341  -1.566  24.754  0.00  0.00    -0.204 NA
BRANCH   4   3
ATOM      3  C   UNL     1      -3.705  -2.930  24.527  0.00  0.00    +0.144 C 
BRANCH   3   2
ATOM      1  C   UNL     1      -3.584  -4.222  23.930  0.00  0.00    +0.070 C 
ATOM      2  S   UNL     1      -3.958  -3.489  23.975  0.00  0.00    -0.130 S 
ENDBRANCH   3   2
ENDBRANCH   4   3
ENDBRANCH   7   6
TORSDOF 5
ENDMDL
MODEL 6
REMARK VINA RESULT:      -5.1     16.246     17.948
REMARK  Name = 
REMARK  5 active torsions:
REMARK  status: ('A' for Active; 'I' for Inactive)
REMARK    1  A    between atoms: S_2  and  C_3
REMARK    2  A    between atoms: C_3  and  C_4
REMARK    3  A    between atoms: N_6  and  C_7
REMARK    4  A    between atoms: C_18  and  C_23
REMARK    5  A    between atoms: C_26  and  S_27
REMARK                            x       y       z     vdW  Elec       q    Type
REMARK                         _______ _______ _______ _____ _____    ______ ____
ROOT
ATOM      7  C   UNL     1      -7.078 -10.129  11.190  0.00  0.00    +0.124 C 
ATOM      8  C   UNL     1      -7.519 -10.174  11.885  0.00  0.00    +0.045 C 
ATOM      9  C   UNL     1      -6.994 -10.249  12.517  0.00  0.00    +0.096 C 
ATOM     10  N   UNL     1      -6.227 -10.252  12.211  0.00  0.00    -0.268 N 
ATOM     11  C   UNL     1      -6.280 -10.177  11.390  0.00  0.00    +0.174 C 
ATOM     12  C   UNL     1      -5.668 -10.152  10.837  0.00  0.00    +0.265 C 
ATOM     13  O   UNL     1      -5.903 -10.074  10.050  0.00  0.00    -0.271 OA
ATOM     14  N   UNL     1      -4.856 -10.194  10.966  0.00  0.00    -0.178 NA
ATOM     15  C   UNL     1      -4.451 -10.273  11.681  0.00  0.00    +0.078 A 
ATOM     16  C   UNL     1      -3.634 -10.294  11.565  0.00  0.00    +0.017 A 
ATOM     17  C   UNL     1      -3.127 -10.370  12.211  0.00  0.00    +0.001 A 
ATOM     18  C   UNL     1      -3.438 -10.426  12.974  0.00  0.00    +0.000 A 
ATOM     19  C   UNL     1      -4.254 -10.405  13.090  0.00  0.00    +0.006 A 
ATOM     20  C   UNL     1      -4.761 -10.328  12.443  0.00  0.00    +0.069 A 
ATOM     21  C   UNL     1      -5.551 -10.319  12.679  0.00  0.00    +0.251 C 
ATOM     22  O   UNL     1      -5.684 -10.385  13.490  0.00  0.00    -0.270 OA
ENDROOT
BRANCH  18  23
ATOM     23  C   UNL     1      -2.931 -10.502  13.620  0.00  0.00    +0.000 A 
ATOM     24  C   UNL     1      -3.235 -10.695  14.363  0.00  0.00    +0.001 A 
ATOM     25  C   UNL     1      -2.728 -10.772  15.009  0.00  0.00    +0.006 A 
ATOM     26  C   UNL     1      -1.916 -10.654  14.913  0.00  0.00    +0.025 A 
ATOM     29  C   UNL     1      -1.613 -10.461  14.170  0.00  0.00    +0.006 A 
ATOM     30  C   UNL     1      -2.120 -10.385  13.524  0.00  0.00    +0.001 A 
BRANCH  26  27
ATOM     27  S   UNL     1      -1.409 -10.731  15.559  0.00  0.00    -0.113 S 
ATOM     28  C   UNL     1      -1.037 -10.064  15.873  0.00  0.00    +0.074 C 
ENDBRANCH  26  27
ENDBRANCH  18  23
BRANCH   7   6
ATOM      4  C   UNL     1      -8.186  -9.902  10.317  0.00  0.00    +0.252 C 
ATOM      5  O   UNL     1      -8.687  -9.832  10.969  0.00  0.00    -0.272 OA
ATOM      6  N   UNL     1      -7.382 -10.050  10.427  0.00  0.00    -0.204 NA
BRANCH   4   3
ATOM      3  C   UNL     1      -8.490  -9.823   9.553  0.00  0.00    +0.144 C 
BRANCH   3   2
ATOM      1  C   UNL     1      -9.464  -9.041   8.859  0.00  0.00    +0.070 C 
ATOM      2  S   UNL     1      -9.274  -9.590   9.444  0.00  0.00    -0.130 S 
ENDBRANCH   3   2
ENDBRANCH   4   3
ENDBRANCH   7   6
TORSDOF 5
ENDMDL
