MODEL 1
REMARK VINA RESULT:     -13.6      0.000      0.000
REMARK  Name = 
REMARK  9 active torsions:
REMARK  status: ('A' for Active; 'I' for Inactive)
REMARK    1  A    between atoms: S_2  and  C_3
REMARK    2  A    between atoms: C_7  and  N_8
REMARK    3  A    between atoms: C_9  and  O_11
REMARK    4  A    between atoms: O_11  and  C_12
REMARK    5  A    between atoms: C_17  and  C_18
REMARK    6  A    between atoms: C_18  and  C_19
REMARK    7  A    between atoms: N_21  and  C_22
REMARK    8  A    between atoms: C_22  and  C_23
REMARK    9  A    between atoms: C_34  and  C_36
REMARK                            x       y       z     vdW  Elec       q    Type
REMARK                         _______ _______ _______ _____ _____    ______ ____
ROOT
ATOM     12  C   UNL     1      -0.593   1.381  25.041  0.00  0.00    +0.173 C 
ATOM     13  C   UNL     1      -1.253   1.481  25.527  0.00  0.00    +0.044 C 
ATOM     14  C   UNL     1      -1.553   2.237  25.663  0.00  0.00    +0.004 C 
ATOM     15  C   UNL     1      -1.195   2.892  25.315  0.00  0.00    +0.003 C 
ATOM     16  C   UNL     1      -1.854   2.992  25.800  0.00  0.00    +0.000 C 
ATOM     17  C   UNL     1      -1.496   3.649  25.451  0.00  0.00    +0.040 C 
ATOM     29  C   UNL     1      -1.138   4.304  25.102  0.00  0.00    +0.152 C 
ATOM     30  O   UNL     1      -1.438   5.060  25.238  0.00  0.00    -0.223 OA
ATOM     31  C   UNL     1      -0.477   4.204  24.616  0.00  0.00    +0.033 C 
ATOM     32  C   UNL     1      -0.177   3.448  24.479  0.00  0.00    +0.003 C 
ATOM     33  C   UNL     1      -0.535   2.792  24.828  0.00  0.00    +0.006 C 
ATOM     34  C   UNL     1      -0.235   2.036  24.692  0.00  0.00    +0.068 C 
ATOM     35  C   UNL     1       0.362   2.330  24.206  0.00  0.00    +0.006 C 
ENDROOT
BRANCH  34  36
ATOM     36  C   UNL     1       0.331   1.566  24.321  0.00  0.00    +0.185 C 
ATOM     37  O   UNL     1       1.055   1.892  24.094  0.00  0.00    -0.220 OA
ENDBRANCH  34  36
BRANCH  12  11
ATOM     11  O   UNL     1      -0.293   0.624  24.904  0.00  0.00    -0.437 OA
BRANCH  11   9
ATOM      8  N   UNL     1      -1.107  -0.429  24.383  0.00  0.00    -0.142 NA
ATOM      9  C   UNL     1      -0.769  -0.038  25.027  0.00  0.00    +0.425 C 
ATOM     10  O   UNL     1      -0.908  -0.311  25.793  0.00  0.00    -0.224 OA
BRANCH   8   7
ATOM      3  C   UNL     1      -2.880  -1.682  24.600  0.00  0.00    +0.027 A 
ATOM      4  C   UNL     1      -2.535  -2.416  24.750  0.00  0.00    +0.006 A 
ATOM      5  C   UNL     1      -1.713  -2.487  24.778  0.00  0.00    +0.002 A 
ATOM      6  C   UNL     1      -1.237  -1.825  24.655  0.00  0.00    +0.017 A 
ATOM      7  C   UNL     1      -1.583  -1.091  24.505  0.00  0.00    +0.077 A 
ATOM     38  C   UNL     1      -2.403  -1.019  24.478  0.00  0.00    +0.023 A 
BRANCH   3   2
ATOM      1  C   UNL     1      -4.122  -1.925  23.937  0.00  0.00    +0.074 C 
ATOM      2  S   UNL     1      -3.701  -1.611  24.572  0.00  0.00    -0.113 S 
ENDBRANCH   3   2
ENDBRANCH   8   7
ENDBRANCH  11   9
ENDBRANCH  12  11
BRANCH  17  18
ATOM     18  C   UNL     1      -2.155   3.749  25.937  0.00  0.00    +0.089 C 
BRANCH  18  19
ATOM     19  C   UNL     1      -2.884   3.954  25.607  0.00  0.00    +0.242 C 
ATOM     20  O   UNL     1      -2.957   4.652  25.173  0.00  0.00    -0.273 OA
ATOM     21  N   UNL     1      -3.536   3.462  25.711  0.00  0.00    -0.201 NA
BRANCH  21  22
ATOM     22  C   UNL     1      -4.264   3.667  25.382  0.00  0.00    +0.141 C 
BRANCH  22  23
ATOM     23  C   UNL     1      -4.874   3.112  25.350  0.00  0.00    -0.001 A 
ATOM     24  C   UNL     1      -4.968   2.640  24.681  0.00  0.00    -0.003 A 
ATOM     25  C   UNL     1      -5.577   2.085  24.649  0.00  0.00    -0.000 A 
ATOM     26  C   UNL     1      -6.093   2.002  25.287  0.00  0.00    -0.000 A 
ATOM     27  C   UNL     1      -5.999   2.474  25.957  0.00  0.00    -0.000 A 
ATOM     28  C   UNL     1      -5.389   3.029  25.989  0.00  0.00    -0.003 A 
ENDBRANCH  22  23
ENDBRANCH  21  22
ENDBRANCH  18  19
ENDBRANCH  17  18
TORSDOF 9
ENDMDL
MODEL 2
REMARK VINA RESULT:     -13.3      1.666      3.942
REMARK  Name = 
REMARK  9 active torsions:
REMARK  status: ('A' for Active; 'I' for Inactive)
REMARK    1  A    between atoms: S_2  and  C_3
REMARK    2  A    between atoms: C_7  and  N_8
REMARK    3  A    between atoms: C_9  and  O_11
REMARK    4  A    between atoms: O_11  and  C_12
REMARK    5  A    between atoms: C_17  and  C_18
REMARK    6  A    between atoms: C_18  and  C_19
REMARK    7  A    between atoms: N_21  and  C_22
REMARK    8  A    between atoms: C_22  and  C_23
REMARK    9  A    between atoms: C_34  and  C_36
REMARK                            x       y       z     vdW  Elec       q    Type
REMARK                         _______ _______ _______ _____ _____    ______ ____
ROOT
ATOM     12  C   UNL     1      -4.739   0.975  24.773  0.00  0.00    +0.173 C 
ATOM     13  C   UNL     1      -4.089   1.202  24.317  0.00  0.00    +0.044 C 
ATOM     14  C   UNL     1      -3.870   1.996  24.279  0.00  0.00    +0.004 C 
ATOM     15  C   UNL     1      -4.301   2.563  24.695  0.00  0.00    +0.003 C 
ATOM     16  C   UNL     1      -3.652   2.790  24.240  0.00  0.00    +0.000 C 
ATOM     17  C   UNL     1      -4.082   3.358  24.656  0.00  0.00    +0.040 C 
ATOM     29  C   UNL     1      -4.512   3.925  25.072  0.00  0.00    +0.152 C 
ATOM     30  O   UNL     1      -4.294   4.720  25.034  0.00  0.00    -0.223 OA
ATOM     31  C   UNL     1      -5.163   3.697  25.528  0.00  0.00    +0.033 C 
ATOM     32  C   UNL     1      -5.381   2.903  25.567  0.00  0.00    +0.003 C 
ATOM     33  C   UNL     1      -4.951   2.335  25.150  0.00  0.00    +0.006 C 
ATOM     34  C   UNL     1      -5.169   1.542  25.189  0.00  0.00    +0.068 C 
ATOM     35  C   UNL     1      -5.800   1.710  25.693  0.00  0.00    +0.006 C 
ENDROOT
BRANCH  34  36
ATOM     36  C   UNL     1      -5.685   0.972  25.488  0.00  0.00    +0.185 C 
ATOM     37  O   UNL     1      -6.306   1.197  25.984  0.00  0.00    -0.220 OA
ENDBRANCH  34  36
BRANCH  12  11
ATOM     11  O   UNL     1      -4.957   0.180  24.811  0.00  0.00    -0.437 OA
BRANCH  11   9
ATOM      8  N   UNL     1      -4.045  -0.865  25.159  0.00  0.00    -0.142 NA
ATOM      9  C   UNL     1      -4.424  -0.407  24.584  0.00  0.00    +0.425 C 
ATOM     10  O   UNL     1      -4.268  -0.538  23.785  0.00  0.00    -0.224 OA
BRANCH   8   7
ATOM      3  C   UNL     1      -2.171  -1.938  24.843  0.00  0.00    +0.027 A 
ATOM      4  C   UNL     1      -2.445  -2.626  24.479  0.00  0.00    +0.006 A 
ATOM      5  C   UNL     1      -3.253  -2.727  24.341  0.00  0.00    +0.002 A 
ATOM      6  C   UNL     1      -3.786  -2.139  24.568  0.00  0.00    +0.017 A 
ATOM      7  C   UNL     1      -3.512  -1.452  24.932  0.00  0.00    +0.077 A 
ATOM     38  C   UNL     1      -2.705  -1.351  25.070  0.00  0.00    +0.023 A 
BRANCH   3   2
ATOM      1  C   UNL     1      -0.931  -1.303  24.526  0.00  0.00    +0.074 C 
ATOM      2  S   UNL     1      -1.365  -1.838  24.981  0.00  0.00    -0.113 S 
ENDBRANCH   3   2
ENDBRANCH   8   7
ENDBRANCH  11   9
ENDBRANCH  12  11
BRANCH  17  18
ATOM     18  C   UNL     1      -3.433   3.585  24.201  0.00  0.00    +0.089 C 
BRANCH  18  19
ATOM     19  C   UNL     1      -2.764   3.905  24.566  0.00  0.00    +0.242 C 
ATOM     20  O   UNL     1      -2.763   4.695  24.802  0.00  0.00    -0.273 OA
ATOM     21  N   UNL     1      -2.100   3.435  24.693  0.00  0.00    -0.201 NA
BRANCH  21  22
ATOM     22  C   UNL     1      -1.432   3.754  25.057  0.00  0.00    +0.141 C 
BRANCH  22  23
ATOM     23  C   UNL     1      -0.829   3.257  25.322  0.00  0.00    -0.001 A 
ATOM     24  C   UNL     1      -0.292   2.938  24.784  0.00  0.00    -0.003 A 
ATOM     25  C   UNL     1       0.311   2.442  25.049  0.00  0.00    -0.000 A 
ATOM     26  C   UNL     1       0.377   2.264  25.852  0.00  0.00    -0.000 A 
ATOM     27  C   UNL     1      -0.161   2.583  26.389  0.00  0.00    -0.000 A 
ATOM     28  C   UNL     1      -0.764   3.080  26.124  0.00  0.00    -0.003 A 
ENDBRANCH  22  23
ENDBRANCH  21  22
ENDBRANCH  18  19
ENDBRANCH  17  18
TORSDOF 9
ENDMDL
MODEL 3
REMARK VINA RESULT:     -12.6      1.156      4.520
REMARK  Name = 
REMARK  9 active torsions:
REMARK  status: ('A' for Active; 'I' for Inactive)
REMARK    1  A    between atoms: S_2  and  C_3
REMARK    2  A    between atoms: C_7  and  N_8
REMARK    3  A    between atoms: C_9  and  O_11
REMARK    4  A    between atoms: O_11  and  C_12
REMARK    5  A    between atoms: C_17  and  C_18
REMARK    6  A    between atoms: C_18  and  C_19
REMARK    7  A    between atoms: N_21  and  C_22
REMARK    8  A    between atoms: C_22  and  C_23
REMARK    9  A    between atoms: C_34  and  C_36
REMARK                            x       y       z     vdW  Elec       q    Type
REMARK                         _______ _______ _______ _____ _____    ______ ____
ROOT
ATOM     12  C   UNL     1      -2.011   3.253  24.637  0.00  0.00    +0.173 C 
ATOM     13  C   UNL     1      -2.339   2.577  24.294  0.00  0.00    +0.044 C 
ATOM     14  C   UNL     1      -1.856   1.939  24.097  0.00  0.00    +0.004 C 
ATOM     15  C   UNL     1      -1.046   1.975  24.243  0.00  0.00    +0.003 C 
ATOM     16  C   UNL     1      -1.373   1.301  23.900  0.00  0.00    +0.000 C 
ATOM     17  C   UNL     1      -0.561   1.336  24.046  0.00  0.00    +0.040 C 
ATOM     29  C   UNL     1       0.249   1.372  24.192  0.00  0.00    +0.152 C 
ATOM     30  O   UNL     1       0.734   0.734  23.995  0.00  0.00    -0.223 OA
ATOM     31  C   UNL     1       0.577   2.048  24.536  0.00  0.00    +0.033 C 
ATOM     32  C   UNL     1       0.094   2.686  24.733  0.00  0.00    +0.003 C 
ATOM     33  C   UNL     1      -0.718   2.650  24.587  0.00  0.00    +0.006 C 
ATOM     34  C   UNL     1      -1.201   3.288  24.784  0.00  0.00    +0.068 C 
ATOM     35  C   UNL     1      -0.561   3.721  25.073  0.00  0.00    +0.006 C 
ENDROOT
BRANCH  34  36
ATOM     36  C   UNL     1      -1.263   4.047  25.101  0.00  0.00    +0.185 C 
ATOM     37  O   UNL     1      -0.620   4.564  25.063  0.00  0.00    -0.220 OA
ENDBRANCH  34  36
BRANCH  12  11
ATOM     11  O   UNL     1      -2.496   3.891  24.834  0.00  0.00    -0.437 OA
BRANCH  11   9
ATOM      8  N   UNL     1      -3.704   3.662  25.564  0.00  0.00    -0.142 NA
ATOM      9  C   UNL     1      -3.316   3.800  24.848  0.00  0.00    +0.425 C 
ATOM     10  O   UNL     1      -3.748   3.846  24.148  0.00  0.00    -0.224 OA
BRANCH   8   7
ATOM      3  C   UNL     1      -5.673   2.727  25.666  0.00  0.00    +0.027 A 
ATOM      4  C   UNL     1      -6.162   3.388  25.607  0.00  0.00    +0.006 A 
ATOM      5  C   UNL     1      -5.832   4.142  25.533  0.00  0.00    +0.002 A 
ATOM      6  C   UNL     1      -5.012   4.232  25.519  0.00  0.00    +0.017 A 
ATOM      7  C   UNL     1      -4.523   3.571  25.578  0.00  0.00    +0.077 A 
ATOM     38  C   UNL     1      -4.853   2.819  25.652  0.00  0.00    +0.023 A 
BRANCH   3   2
ATOM      1  C   UNL     1      -6.243   1.562  25.067  0.00  0.00    +0.074 C 
ATOM      2  S   UNL     1      -6.003   1.975  25.740  0.00  0.00    -0.113 S 
ENDBRANCH   3   2
ENDBRANCH   8   7
ENDBRANCH  11   9
ENDBRANCH  12  11
BRANCH  17  18
ATOM     18  C   UNL     1      -0.889   0.661  23.702  0.00  0.00    +0.089 C 
BRANCH  18  19
ATOM     19  C   UNL     1      -0.835  -0.066  24.089  0.00  0.00    +0.242 C 
ATOM     20  O   UNL     1      -0.098  -0.359  24.315  0.00  0.00    -0.273 OA
ATOM     21  N   UNL     1      -1.518  -0.499  24.249  0.00  0.00    -0.201 NA
BRANCH  21  22
ATOM     22  C   UNL     1      -1.465  -1.226  24.635  0.00  0.00    +0.141 C 
BRANCH  22  23
ATOM     23  C   UNL     1      -2.148  -1.664  24.787  0.00  0.00    -0.001 A 
ATOM     24  C   UNL     1      -2.662  -1.430  25.388  0.00  0.00    -0.003 A 
ATOM     25  C   UNL     1      -3.344  -1.868  25.540  0.00  0.00    -0.000 A 
ATOM     26  C   UNL     1      -3.513  -2.539  25.091  0.00  0.00    -0.000 A 
ATOM     27  C   UNL     1      -2.998  -2.772  24.490  0.00  0.00    -0.000 A 
ATOM     28  C   UNL     1      -2.316  -2.334  24.338  0.00  0.00    -0.003 A 
ENDBRANCH  22  23
ENDBRANCH  21  22
ENDBRANCH  18  19
ENDBRANCH  17  18
TORSDOF 9
ENDMDL
MODEL 4
REMARK VINA RESULT:     -12.5      1.661      3.700
REMARK  Name = 
REMARK  9 active torsions:
REMARK  status: ('A' for Active; 'I' for Inactive)
REMARK    1  A    between atoms: S_2  and  C_3
REMARK    2  A    between atoms: C_7  and  N_8
REMARK    3  A    between atoms: C_9  and  O_11
REMARK    4  A    between atoms: O_11  and  C_12
REMARK    5  A    between atoms: C_17  and  C_18
REMARK    6  A    between atoms: C_18  and  C_19
REMARK    7  A    between atoms: N_21  and  C_22
REMARK    8  A    between atoms: C_22  and  C_23
REMARK    9  A    between atoms: C_34  and  C_36
REMARK                            x       y       z     vdW  Elec       q    Type
REMARK                         _______ _______ _______ _____ _____    ______ ____
ROOT
ATOM     12  C   UNL     1      -1.934   3.233  24.636  0.00  0.00    +0.173 C 
ATOM     13  C   UNL     1      -2.304   2.664  24.165  0.00  0.00    +0.044 C 
ATOM     14  C   UNL     1      -3.112   2.521  24.251  0.00  0.00    +0.004 C 
ATOM     15  C   UNL     1      -3.549   2.945  24.806  0.00  0.00    +0.003 C 
ATOM     16  C   UNL     1      -3.919   2.377  24.337  0.00  0.00    +0.000 C 
ATOM     17  C   UNL     1      -4.358   2.801  24.892  0.00  0.00    +0.040 C 
ATOM     29  C   UNL     1      -4.795   3.225  25.447  0.00  0.00    +0.152 C 
ATOM     30  O   UNL     1      -5.603   3.082  25.533  0.00  0.00    -0.223 OA
ATOM     31  C   UNL     1      -4.425   3.795  25.918  0.00  0.00    +0.033 C 
ATOM     32  C   UNL     1      -3.618   3.938  25.832  0.00  0.00    +0.003 C 
ATOM     33  C   UNL     1      -3.179   3.514  25.276  0.00  0.00    +0.006 C 
ATOM     34  C   UNL     1      -2.372   3.658  25.190  0.00  0.00    +0.068 C 
ATOM     35  C   UNL     1      -2.383   4.235  25.779  0.00  0.00    +0.006 C 
ENDROOT
BRANCH  34  36
ATOM     36  C   UNL     1      -1.708   4.083  25.431  0.00  0.00    +0.185 C 
ATOM     37  O   UNL     1      -1.787   4.868  25.675  0.00  0.00    -0.220 OA
ENDBRANCH  34  36
BRANCH  12  11
ATOM     11  O   UNL     1      -1.126   3.377  24.549  0.00  0.00    -0.437 OA
BRANCH  11   9
ATOM      8  N   UNL     1      -0.266   2.236  24.605  0.00  0.00    -0.142 NA
ATOM      9  C   UNL     1      -0.646   2.825  24.167  0.00  0.00    +0.425 C 
ATOM     10  O   UNL     1      -0.546   2.860  23.350  0.00  0.00    -0.224 OA
BRANCH   8   7
ATOM      3  C   UNL     1       0.415   0.368  23.706  0.00  0.00    +0.027 A 
ATOM      4  C   UNL     1       1.174   0.580  23.462  0.00  0.00    +0.006 A 
ATOM      5  C   UNL     1       1.453   1.345  23.598  0.00  0.00    +0.002 A 
ATOM      6  C   UNL     1       0.972   1.897  23.980  0.00  0.00    +0.017 A 
ATOM      7  C   UNL     1       0.214   1.684  24.224  0.00  0.00    +0.077 A 
ATOM     38  C   UNL     1      -0.065   0.921  24.087  0.00  0.00    +0.023 A 
BRANCH   3   2
ATOM      1  C   UNL     1      -0.111  -0.865  24.201  0.00  0.00    +0.074 C 
ATOM      2  S   UNL     1       0.136  -0.396  23.569  0.00  0.00    -0.113 S 
ENDBRANCH   3   2
ENDBRANCH   8   7
ENDBRANCH  11   9
ENDBRANCH  12  11
BRANCH  17  18
ATOM     18  C   UNL     1      -4.727   2.233  24.423  0.00  0.00    +0.089 C 
BRANCH  18  19
ATOM     19  C   UNL     1      -4.997   1.529  24.761  0.00  0.00    +0.242 C 
ATOM     20  O   UNL     1      -5.676   1.531  25.228  0.00  0.00    -0.273 OA
ATOM     21  N   UNL     1      -4.586   0.826  24.631  0.00  0.00    -0.201 NA
BRANCH  21  22
ATOM     22  C   UNL     1      -4.855   0.123  24.968  0.00  0.00    +0.141 C 
BRANCH  22  23
ATOM     23  C   UNL     1      -4.412  -0.568  24.890  0.00  0.00    -0.001 A 
ATOM     24  C   UNL     1      -3.921  -0.815  25.504  0.00  0.00    -0.003 A 
ATOM     25  C   UNL     1      -3.478  -1.507  25.425  0.00  0.00    -0.000 A 
ATOM     26  C   UNL     1      -3.526  -1.951  24.732  0.00  0.00    -0.000 A 
ATOM     27  C   UNL     1      -4.018  -1.704  24.118  0.00  0.00    -0.000 A 
ATOM     28  C   UNL     1      -4.461  -1.012  24.197  0.00  0.00    -0.003 A 
ENDBRANCH  22  23
ENDBRANCH  21  22
ENDBRANCH  18  19
ENDBRANCH  17  18
TORSDOF 9
ENDMDL
MODEL 5
REMARK VINA RESULT:     -12.2      1.871      5.320
REMARK  Name = 
REMARK  9 active torsions:
REMARK  status: ('A' for Active; 'I' for Inactive)
REMARK    1  A    between atoms: S_2  and  C_3
REMARK    2  A    between atoms: C_7  and  N_8
REMARK    3  A    between atoms: C_9  and  O_11
REMARK    4  A    between atoms: O_11  and  C_12
REMARK    5  A    between atoms: C_17  and  C_18
REMARK    6  A    between atoms: C_18  and  C_19
REMARK    7  A    between atoms: N_21  and  C_22
REMARK    8  A    between atoms: C_22  and  C_23
REMARK    9  A    between atoms: C_34  and  C_36
REMARK                            x       y       z     vdW  Elec       q    Type
REMARK                         _______ _______ _______ _____ _____    ______ ____
ROOT
ATOM     12  C   UNL     1      -3.983  -0.540  24.861  0.00  0.00    +0.173 C 
ATOM     13  C   UNL     1      -3.441  -0.099  25.301  0.00  0.00    +0.044 C 
ATOM     14  C   UNL     1      -2.662  -0.359  25.375  0.00  0.00    +0.004 C 
ATOM     15  C   UNL     1      -2.424  -1.058  25.010  0.00  0.00    +0.003 C 
ATOM     16  C   UNL     1      -1.883  -0.618  25.449  0.00  0.00    +0.000 C 
ATOM     17  C   UNL     1      -1.645  -1.319  25.083  0.00  0.00    +0.040 C 
ATOM     29  C   UNL     1      -1.407  -2.018  24.718  0.00  0.00    +0.152 C 
ATOM     30  O   UNL     1      -0.627  -2.278  24.792  0.00  0.00    -0.223 OA
ATOM     31  C   UNL     1      -1.949  -2.459  24.278  0.00  0.00    +0.033 C 
ATOM     32  C   UNL     1      -2.728  -2.200  24.204  0.00  0.00    +0.003 C 
ATOM     33  C   UNL     1      -2.966  -1.500  24.570  0.00  0.00    +0.006 C 
ATOM     34  C   UNL     1      -3.745  -1.240  24.496  0.00  0.00    +0.068 C 
ATOM     35  C   UNL     1      -3.948  -1.889  24.029  0.00  0.00    +0.006 C 
ENDROOT
BRANCH  34  36
ATOM     36  C   UNL     1      -4.499  -1.369  24.187  0.00  0.00    +0.185 C 
ATOM     37  O   UNL     1      -4.663  -2.065  23.775  0.00  0.00    -0.220 OA
ENDBRANCH  34  36
BRANCH  12  11
ATOM     11  O   UNL     1      -4.763  -0.280  24.787  0.00  0.00    -0.437 OA
BRANCH  11   9
ATOM      8  N   UNL     1      -5.045   1.109  24.602  0.00  0.00    -0.142 NA
ATOM      9  C   UNL     1      -4.986   0.451  25.098  0.00  0.00    +0.425 C 
ATOM     10  O   UNL     1      -5.151   0.525  25.902  0.00  0.00    -0.224 OA
BRANCH   8   7
ATOM      3  C   UNL     1      -4.951   3.195  25.237  0.00  0.00    +0.027 A 
ATOM      4  C   UNL     1      -5.715   3.302  25.532  0.00  0.00    +0.006 A 
ATOM      5  C   UNL     1      -6.255   2.678  25.516  0.00  0.00    +0.002 A 
ATOM      6  C   UNL     1      -6.031   1.947  25.206  0.00  0.00    +0.017 A 
ATOM      7  C   UNL     1      -5.268   1.840  24.912  0.00  0.00    +0.077 A 
ATOM     38  C   UNL     1      -4.729   2.463  24.927  0.00  0.00    +0.023 A 
BRANCH   3   2
ATOM      1  C   UNL     1      -3.821   3.839  25.828  0.00  0.00    +0.074 C 
ATOM      2  S   UNL     1      -4.412   3.818  25.253  0.00  0.00    -0.113 S 
ENDBRANCH   3   2
ENDBRANCH   8   7
ENDBRANCH  11   9
ENDBRANCH  12  11
BRANCH  17  18
ATOM     18  C   UNL     1      -1.103  -0.878  25.523  0.00  0.00    +0.089 C 
BRANCH  18  19
ATOM     19  C   UNL     1      -0.560  -0.388  25.139  0.00  0.00    +0.242 C 
ATOM     20  O   UNL     1      -0.020  -0.711  24.606  0.00  0.00    -0.273 OA
ATOM     21  N   UNL     1      -0.559   0.422  25.288  0.00  0.00    -0.201 NA
BRANCH  21  22
ATOM     22  C   UNL     1      -0.017   0.911  24.904  0.00  0.00    +0.141 C 
BRANCH  22  23
ATOM     23  C   UNL     1      -0.104   1.731  24.938  0.00  0.00    -0.001 A 
ATOM     24  C   UNL     1      -0.313   2.152  24.261  0.00  0.00    -0.003 A 
ATOM     25  C   UNL     1      -0.400   2.972  24.296  0.00  0.00    -0.000 A 
ATOM     26  C   UNL     1      -0.278   3.370  25.007  0.00  0.00    -0.000 A 
ATOM     27  C   UNL     1      -0.069   2.948  25.684  0.00  0.00    -0.000 A 
ATOM     28  C   UNL     1       0.018   2.129  25.650  0.00  0.00    -0.003 A 
ENDBRANCH  22  23
ENDBRANCH  21  22
ENDBRANCH  18  19
ENDBRANCH  17  18
TORSDOF 9
ENDMDL
MODEL 6
REMARK VINA RESULT:     -11.8      2.323      4.087
REMARK  Name = 
REMARK  9 active torsions:
REMARK  status: ('A' for Active; 'I' for Inactive)
REMARK    1  A    between atoms: S_2  and  C_3
REMARK    2  A    between atoms: C_7  and  N_8
REMARK    3  A    between atoms: C_9  and  O_11
REMARK    4  A    between atoms: O_11  and  C_12
REMARK    5  A    between atoms: C_17  and  C_18
REMARK    6  A    between atoms: C_18  and  C_19
REMARK    7  A    between atoms: N_21  and  C_22
REMARK    8  A    between atoms: C_22  and  C_23
REMARK    9  A    between atoms: C_34  and  C_36
REMARK                            x       y       z     vdW  Elec       q    Type
REMARK                         _______ _______ _______ _____ _____    ______ ____
ROOT
ATOM     12  C   UNL     1      -0.614   2.136  24.501  0.00  0.00    +0.173 C 
ATOM     13  C   UNL     1      -0.983   1.584  24.009  0.00  0.00    +0.044 C 
ATOM     14  C   UNL     1      -1.806   1.545  23.979  0.00  0.00    +0.004 C 
ATOM     15  C   UNL     1      -2.261   2.056  24.438  0.00  0.00    +0.003 C 
ATOM     16  C   UNL     1      -2.629   1.505  23.948  0.00  0.00    +0.000 C 
ATOM     17  C   UNL     1      -3.085   2.017  24.408  0.00  0.00    +0.040 C 
ATOM     29  C   UNL     1      -3.539   2.528  24.867  0.00  0.00    +0.152 C 
ATOM     30  O   UNL     1      -4.363   2.489  24.837  0.00  0.00    -0.223 OA
ATOM     31  C   UNL     1      -3.171   3.080  25.359  0.00  0.00    +0.033 C 
ATOM     32  C   UNL     1      -2.348   3.119  25.390  0.00  0.00    +0.003 C 
ATOM     33  C   UNL     1      -1.892   2.608  24.930  0.00  0.00    +0.006 C 
ATOM     34  C   UNL     1      -1.069   2.647  24.960  0.00  0.00    +0.068 C 
ATOM     35  C   UNL     1      -1.090   3.261  25.510  0.00  0.00    +0.006 C 
ENDROOT
BRANCH  34  36
ATOM     36  C   UNL     1      -0.398   3.006  25.277  0.00  0.00    +0.185 C 
ATOM     37  O   UNL     1      -0.448   3.764  25.599  0.00  0.00    -0.220 OA
ENDBRANCH  34  36
BRANCH  12  11
ATOM     11  O   UNL     1       0.209   2.175  24.531  0.00  0.00    -0.437 OA
BRANCH  11   9
ATOM      8  N   UNL     1       1.223   1.756  23.614  0.00  0.00    -0.142 NA
ATOM      9  C   UNL     1       0.665   1.574  24.196  0.00  0.00    +0.425 C 
ATOM     10  O   UNL     1       0.564   0.793  24.440  0.00  0.00    -0.224 OA
BRANCH   8   7
ATOM      3  C   UNL     1       2.950   0.648  22.870  0.00  0.00    +0.027 A 
ATOM      4  C   UNL     1       2.589  -0.045  22.607  0.00  0.00    +0.006 A 
ATOM      5  C   UNL     1       1.771  -0.138  22.679  0.00  0.00    +0.002 A 
ATOM      6  C   UNL     1       1.317   0.463  23.015  0.00  0.00    +0.017 A 
ATOM      7  C   UNL     1       1.678   1.156  23.278  0.00  0.00    +0.077 A 
ATOM     38  C   UNL     1       2.494   1.248  23.206  0.00  0.00    +0.023 A 
BRANCH   3   2
ATOM      1  C   UNL     1       4.273   0.138  23.042  0.00  0.00    +0.074 C 
ATOM      2  S   UNL     1       3.766   0.741  22.798  0.00  0.00    -0.113 S 
ENDBRANCH   3   2
ENDBRANCH   8   7
ENDBRANCH  11   9
ENDBRANCH  12  11
BRANCH  17  18
ATOM     18  C   UNL     1      -3.453   1.466  23.917  0.00  0.00    +0.089 C 
BRANCH  18  19
ATOM     19  C   UNL     1      -3.961   0.900  24.239  0.00  0.00    +0.242 C 
ATOM     20  O   UNL     1      -4.669   1.136  24.592  0.00  0.00    -0.273 OA
ATOM     21  N   UNL     1      -3.762   0.101  24.208  0.00  0.00    -0.201 NA
BRANCH  21  22
ATOM     22  C   UNL     1      -4.269  -0.464  24.530  0.00  0.00    +0.141 C 
BRANCH  22  23
ATOM     23  C   UNL     1      -4.044  -1.257  24.549  0.00  0.00    -0.001 A 
ATOM     24  C   UNL     1      -3.662  -1.561  25.214  0.00  0.00    -0.003 A 
ATOM     25  C   UNL     1      -3.438  -2.355  25.233  0.00  0.00    -0.000 A 
ATOM     26  C   UNL     1      -3.595  -2.845  24.588  0.00  0.00    -0.000 A 
ATOM     27  C   UNL     1      -3.977  -2.540  23.924  0.00  0.00    -0.000 A 
ATOM     28  C   UNL     1      -4.202  -1.746  23.904  0.00  0.00    -0.003 A 
ENDBRANCH  22  23
ENDBRANCH  21  22
ENDBRANCH  18  19
ENDBRANCH  17  18
TORSDOF 9
ENDMDL
MODEL 7
REMARK VINA RESULT:     -11.8      1.744      4.286
REMARK  Name = 
REMARK  9 active torsions:
REMARK  status: ('A' for Active; 'I' for Inactive)
REMARK    1  A    between atoms: S_2  and  C_3
REMARK    2  A    between atoms: C_7  and  N_8
REMARK    3  A    between atoms: C_9  and  O_11
REMARK    4  A    between atoms: O_11  and  C_12
REMARK    5  A    between atoms: C_17  and  C_18
REMARK    6  A    between atoms: C_18  and  C_19
REMARK    7  A    between atoms: N_21  and  C_22
REMARK    8  A    between atoms: C_22  and  C_23
REMARK    9  A    between atoms: C_34  and  C_36
REMARK                            x       y       z     vdW  Elec       q    Type
REMARK                         _______ _______ _______ _____ _____    ______ ____
ROOT
ATOM     12  C   UNL     1      -0.578   0.676  24.787  0.00  0.00    +0.173 C 
ATOM     13  C   UNL     1      -1.208   0.805  25.306  0.00  0.00    +0.044 C 
ATOM     14  C   UNL     1      -1.764   0.210  25.435  0.00  0.00    +0.004 C 
ATOM     15  C   UNL     1      -1.693  -0.513  25.045  0.00  0.00    +0.003 C 
ATOM     16  C   UNL     1      -2.321  -0.384  25.563  0.00  0.00    +0.000 C 
ATOM     17  C   UNL     1      -2.250  -1.108  25.174  0.00  0.00    +0.040 C 
ATOM     29  C   UNL     1      -2.178  -1.831  24.784  0.00  0.00    +0.152 C 
ATOM     30  O   UNL     1      -2.735  -2.426  24.913  0.00  0.00    -0.223 OA
ATOM     31  C   UNL     1      -1.549  -1.960  24.266  0.00  0.00    +0.033 C 
ATOM     32  C   UNL     1      -0.992  -1.366  24.137  0.00  0.00    +0.003 C 
ATOM     33  C   UNL     1      -1.063  -0.642  24.527  0.00  0.00    +0.006 C 
ATOM     34  C   UNL     1      -0.507  -0.047  24.398  0.00  0.00    +0.068 C 
ATOM     35  C   UNL     1      -0.083  -0.518  23.870  0.00  0.00    +0.006 C 
ENDROOT
BRANCH  34  36
ATOM     36  C   UNL     1       0.180   0.196  24.011  0.00  0.00    +0.185 C 
ATOM     37  O   UNL     1       0.581  -0.327  23.514  0.00  0.00    -0.220 OA
ENDBRANCH  34  36
BRANCH  12  11
ATOM     11  O   UNL     1      -0.021   1.271  24.659  0.00  0.00    -0.437 OA
BRANCH  11   9
ATOM      8  N   UNL     1      -0.590   2.552  24.375  0.00  0.00    -0.142 NA
ATOM      9  C   UNL     1      -0.185   2.047  24.888  0.00  0.00    +0.425 C 
ATOM     10  O   UNL     1       0.057   2.318  25.628  0.00  0.00    -0.224 OA
BRANCH   8   7
ATOM      3  C   UNL     1      -1.674   4.306  25.090  0.00  0.00    +0.027 A 
ATOM      4  C   UNL     1      -1.080   4.878  25.061  0.00  0.00    +0.006 A 
ATOM      5  C   UNL     1      -0.322   4.674  24.804  0.00  0.00    +0.002 A 
ATOM      6  C   UNL     1      -0.159   3.899  24.576  0.00  0.00    +0.017 A 
ATOM      7  C   UNL     1      -0.753   3.327  24.604  0.00  0.00    +0.077 A 
ATOM     38  C   UNL     1      -1.510   3.530  24.861  0.00  0.00    +0.023 A 
BRANCH   3   2
ATOM      1  C   UNL     1      -2.699   4.255  26.084  0.00  0.00    +0.074 C 
ATOM      2  S   UNL     1      -2.430   4.510  25.346  0.00  0.00    -0.113 S 
ENDBRANCH   3   2
ENDBRANCH   8   7
ENDBRANCH  11   9
ENDBRANCH  12  11
BRANCH  17  18
ATOM     18  C   UNL     1      -2.879  -0.979  25.692  0.00  0.00    +0.089 C 
BRANCH  18  19
ATOM     19  C   UNL     1      -3.639  -0.855  25.396  0.00  0.00    +0.242 C 
ATOM     20  O   UNL     1      -4.053  -1.480  25.051  0.00  0.00    -0.273 OA
ATOM     21  N   UNL     1      -3.985  -0.109  25.445  0.00  0.00    -0.201 NA
BRANCH  21  22
ATOM     22  C   UNL     1      -4.745   0.015  25.149  0.00  0.00    +0.141 C 
BRANCH  22  23
ATOM     23  C   UNL     1      -5.064   0.776  25.136  0.00  0.00    -0.001 A 
ATOM     24  C   UNL     1      -4.892   1.285  24.511  0.00  0.00    -0.003 A 
ATOM     25  C   UNL     1      -5.211   2.045  24.499  0.00  0.00    -0.000 A 
ATOM     26  C   UNL     1      -5.703   2.297  25.112  0.00  0.00    -0.000 A 
ATOM     27  C   UNL     1      -5.875   1.787  25.737  0.00  0.00    -0.000 A 
ATOM     28  C   UNL     1      -5.555   1.026  25.749  0.00  0.00    -0.003 A 
ENDBRANCH  22  23
ENDBRANCH  21  22
ENDBRANCH  18  19
ENDBRANCH  17  18
TORSDOF 9
ENDMDL
MODEL 8
REMARK VINA RESULT:     -11.7      1.957      5.609
REMARK  Name = 
REMARK  9 active torsions:
REMARK  status: ('A' for Active; 'I' for Inactive)
REMARK    1  A    between atoms: S_2  and  C_3
REMARK    2  A    between atoms: C_7  and  N_8
REMARK    3  A    between atoms: C_9  and  O_11
REMARK    4  A    between atoms: O_11  and  C_12
REMARK    5  A    between atoms: C_17  and  C_18
REMARK    6  A    between atoms: C_18  and  C_19
REMARK    7  A    between atoms: N_21  and  C_22
REMARK    8  A    between atoms: C_22  and  C_23
REMARK    9  A    between atoms: C_34  and  C_36
REMARK                            x       y       z     vdW  Elec       q    Type
REMARK                         _______ _______ _______ _____ _____    ______ ____
ROOT
ATOM     12  C   UNL     1      -4.189   3.384  25.074  0.00  0.00    +0.173 C 
ATOM     13  C   UNL     1      -3.718   2.784  24.757  0.00  0.00    +0.044 C 
ATOM     14  C   UNL     1      -4.025   2.025  24.664  0.00  0.00    +0.004 C 
ATOM     15  C   UNL     1      -4.803   1.865  24.887  0.00  0.00    +0.003 C 
ATOM     16  C   UNL     1      -4.333   1.266  24.572  0.00  0.00    +0.000 C 
ATOM     17  C   UNL     1      -5.111   1.105  24.794  0.00  0.00    +0.040 C 
ATOM     29  C   UNL     1      -5.888   0.945  25.017  0.00  0.00    +0.152 C 
ATOM     30  O   UNL     1      -6.197   0.185  24.924  0.00  0.00    -0.223 OA
ATOM     31  C   UNL     1      -6.359   1.545  25.333  0.00  0.00    +0.033 C 
ATOM     32  C   UNL     1      -6.052   2.304  25.426  0.00  0.00    +0.003 C 
ATOM     33  C   UNL     1      -5.274   2.465  25.203  0.00  0.00    +0.006 C 
ATOM     34  C   UNL     1      -4.966   3.224  25.296  0.00  0.00    +0.068 C 
ATOM     35  C   UNL     1      -5.675   3.504  25.610  0.00  0.00    +0.006 C 
ENDROOT
BRANCH  34  36
ATOM     36  C   UNL     1      -5.087   4.003  25.540  0.00  0.00    +0.185 C 
ATOM     37  O   UNL     1      -5.846   4.259  25.739  0.00  0.00    -0.220 OA
ENDBRANCH  34  36
BRANCH  12  11
ATOM     11  O   UNL     1      -3.880   4.144  25.166  0.00  0.00    -0.437 OA
BRANCH  11   9
ATOM      8  N   UNL     1      -2.502   4.335  25.497  0.00  0.00    -0.142 NA
ATOM      9  C   UNL     1      -3.106   4.308  24.933  0.00  0.00    +0.425 C 
ATOM     10  O   UNL     1      -2.934   4.444  24.139  0.00  0.00    -0.224 OA
BRANCH   8   7
ATOM      3  C   UNL     1      -0.398   4.054  24.992  0.00  0.00    +0.027 A 
ATOM      4  C   UNL     1      -0.180   4.826  24.799  0.00  0.00    +0.006 A 
ATOM      5  C   UNL     1      -0.736   5.435  24.839  0.00  0.00    +0.002 A 
ATOM      6  C   UNL     1      -1.510   5.270  25.071  0.00  0.00    +0.017 A 
ATOM      7  C   UNL     1      -1.729   4.499  25.264  0.00  0.00    +0.077 A 
ATOM     38  C   UNL     1      -1.173   3.891  25.224  0.00  0.00    +0.023 A 
BRANCH   3   2
ATOM      1  C   UNL     1       0.100   2.872  24.362  0.00  0.00    +0.074 C 
ATOM      2  S   UNL     1       0.158   3.447  24.952  0.00  0.00    -0.113 S 
ENDBRANCH   3   2
ENDBRANCH   8   7
ENDBRANCH  11   9
ENDBRANCH  12  11
BRANCH  17  18
ATOM     18  C   UNL     1      -4.641   0.505  24.478  0.00  0.00    +0.089 C 
BRANCH  18  19
ATOM     19  C   UNL     1      -4.415  -0.134  24.950  0.00  0.00    +0.242 C 
ATOM     20  O   UNL     1      -4.612  -0.145  25.751  0.00  0.00    -0.273 OA
ATOM     21  N   UNL     1      -3.994  -0.761  24.620  0.00  0.00    -0.201 NA
BRANCH  21  22
ATOM     22  C   UNL     1      -3.768  -1.400  25.090  0.00  0.00    +0.141 C 
BRANCH  22  23
ATOM     23  C   UNL     1      -3.246  -1.967  24.795  0.00  0.00    -0.001 A 
ATOM     24  C   UNL     1      -2.433  -1.838  24.833  0.00  0.00    -0.003 A 
ATOM     25  C   UNL     1      -1.911  -2.404  24.538  0.00  0.00    -0.000 A 
ATOM     26  C   UNL     1      -2.203  -3.100  24.204  0.00  0.00    -0.000 A 
ATOM     27  C   UNL     1      -3.017  -3.228  24.165  0.00  0.00    -0.000 A 
ATOM     28  C   UNL     1      -3.539  -2.661  24.461  0.00  0.00    -0.003 A 
ENDBRANCH  22  23
ENDBRANCH  21  22
ENDBRANCH  18  19
ENDBRANCH  17  18
TORSDOF 9
ENDMDL
MODEL 9
REMARK VINA RESULT:     -11.0      2.217      5.970
REMARK  Name = 
REMARK  9 active torsions:
REMARK  status: ('A' for Active; 'I' for Inactive)
REMARK    1  A    between atoms: S_2  and  C_3
REMARK    2  A    between atoms: C_7  and  N_8
REMARK    3  A    between atoms: C_9  and  O_11
REMARK    4  A    between atoms: O_11  and  C_12
REMARK    5  A    between atoms: C_17  and  C_18
REMARK    6  A    between atoms: C_18  and  C_19
REMARK    7  A    between atoms: N_21  and  C_22
REMARK    8  A    between atoms: C_22  and  C_23
REMARK    9  A    between atoms: C_34  and  C_36
REMARK                            x       y       z     vdW  Elec       q    Type
REMARK                         _______ _______ _______ _____ _____    ______ ____
ROOT
ATOM     12  C   UNL     1      -3.221  -0.026  24.674  0.00  0.00    +0.173 C 
ATOM     13  C   UNL     1      -2.675   0.531  24.403  0.00  0.00    +0.044 C 
ATOM     14  C   UNL     1      -1.877   0.330  24.343  0.00  0.00    +0.004 C 
ATOM     15  C   UNL     1      -1.626  -0.427  24.552  0.00  0.00    +0.003 C 
ATOM     16  C   UNL     1      -1.080   0.128  24.282  0.00  0.00    +0.000 C 
ATOM     17  C   UNL     1      -0.828  -0.629  24.492  0.00  0.00    +0.040 C 
ATOM     29  C   UNL     1      -0.576  -1.385  24.701  0.00  0.00    +0.152 C 
ATOM     30  O   UNL     1       0.221  -1.587  24.641  0.00  0.00    -0.223 OA
ATOM     31  C   UNL     1      -1.123  -1.942  24.972  0.00  0.00    +0.033 C 
ATOM     32  C   UNL     1      -1.920  -1.741  25.033  0.00  0.00    +0.003 C 
ATOM     33  C   UNL     1      -2.173  -0.984  24.823  0.00  0.00    +0.006 C 
ATOM     34  C   UNL     1      -2.970  -0.782  24.884  0.00  0.00    +0.068 C 
ATOM     35  C   UNL     1      -3.168  -1.533  25.163  0.00  0.00    +0.006 C 
ENDROOT
BRANCH  34  36
ATOM     36  C   UNL     1      -3.736  -1.014  25.082  0.00  0.00    +0.185 C 
ATOM     37  O   UNL     1      -3.939  -1.814  25.081  0.00  0.00    -0.220 OA
ENDBRANCH  34  36
BRANCH  12  11
ATOM     11  O   UNL     1      -4.019   0.176  24.735  0.00  0.00    -0.437 OA
BRANCH  11   9
ATOM      8  N   UNL     1      -4.477   1.347  25.414  0.00  0.00    -0.142 NA
ATOM      9  C   UNL     1      -4.248   0.969  24.717  0.00  0.00    +0.425 C 
ATOM     10  O   UNL     1      -4.248   1.382  24.004  0.00  0.00    -0.224 OA
BRANCH   8   7
ATOM      3  C   UNL     1      -4.365   3.527  25.431  0.00  0.00    +0.027 A 
ATOM      4  C   UNL     1      -5.163   3.724  25.363  0.00  0.00    +0.006 A 
ATOM      5  C   UNL     1      -5.733   3.129  25.312  0.00  0.00    +0.002 A 
ATOM      6  C   UNL     1      -5.504   2.337  25.329  0.00  0.00    +0.017 A 
ATOM      7  C   UNL     1      -4.705   2.139  25.397  0.00  0.00    +0.077 A 
ATOM     38  C   UNL     1      -4.137   2.734  25.448  0.00  0.00    +0.023 A 
BRANCH   3   2
ATOM      1  C   UNL     1      -3.317   4.179  26.151  0.00  0.00    +0.074 C 
ATOM      2  S   UNL     1      -3.797   4.121  25.482  0.00  0.00    -0.113 S 
ENDBRANCH   3   2
ENDBRANCH   8   7
ENDBRANCH  11   9
ENDBRANCH  12  11
BRANCH  17  18
ATOM     18  C   UNL     1      -0.282  -0.073  24.221  0.00  0.00    +0.089 C 
BRANCH  18  19
ATOM     19  C   UNL     1       0.192  -0.244  23.567  0.00  0.00    +0.242 C 
ATOM     20  O   UNL     1      -0.056  -0.803  23.014  0.00  0.00    -0.273 OA
ATOM     21  N   UNL     1       0.912   0.144  23.467  0.00  0.00    -0.201 NA
BRANCH  21  22
ATOM     22  C   UNL     1       1.386  -0.026  22.813  0.00  0.00    +0.141 C 
BRANCH  22  23
ATOM     23  C   UNL     1       2.153   0.275  22.769  0.00  0.00    -0.001 A 
ATOM     24  C   UNL     1       2.330   1.003  23.113  0.00  0.00    -0.003 A 
ATOM     25  C   UNL     1       3.097   1.304  23.069  0.00  0.00    -0.000 A 
ATOM     26  C   UNL     1       3.687   0.876  22.682  0.00  0.00    -0.000 A 
ATOM     27  C   UNL     1       3.508   0.147  22.338  0.00  0.00    -0.000 A 
ATOM     28  C   UNL     1       2.741  -0.153  22.382  0.00  0.00    -0.003 A 
ENDBRANCH  22  23
ENDBRANCH  21  22
ENDBRANCH  18  19
ENDBRANCH  17  18
TORSDOF 9
ENDMDL
MODEL 10
REMARK VINA RESULT:     -10.4      1.608      3.948
REMARK  Name = 
REMARK  9 active torsions:
REMARK  status: ('A' for Active; 'I' for Inactive)
REMARK    1  A    between atoms: S_2  and  C_3
REMARK    2  A    between atoms: C_7  and  N_8
REMARK    3  A    between atoms: C_9  and  O_11
REMARK    4  A    between atoms: O_11  and  C_12
REMARK    5  A    between atoms: C_17  and  C_18
REMARK    6  A    between atoms: C_18  and  C_19
REMARK    7  A    between atoms: N_21  and  C_22
REMARK    8  A    between atoms: C_22  and  C_23
REMARK    9  A    between atoms: C_34  and  C_36
REMARK                            x       y       z     vdW  Elec       q    Type
REMARK                         _______ _______ _______ _____ _____    ______ ____
ROOT
ATOM     12  C   UNL     1      -3.757   1.396  24.881  0.00  0.00    +0.173 C 
ATOM     13  C   UNL     1      -3.012   1.135  25.124  0.00  0.00    +0.044 C 
ATOM     14  C   UNL     1      -2.400   1.677  25.231  0.00  0.00    +0.004 C 
ATOM     15  C   UNL     1      -2.531   2.479  25.096  0.00  0.00    +0.003 C 
ATOM     16  C   UNL     1      -1.788   2.218  25.338  0.00  0.00    +0.000 C 
ATOM     17  C   UNL     1      -1.918   3.022  25.203  0.00  0.00    +0.040 C 
ATOM     29  C   UNL     1      -2.049   3.824  25.067  0.00  0.00    +0.152 C 
ATOM     30  O   UNL     1      -1.437   4.367  25.174  0.00  0.00    -0.223 OA
ATOM     31  C   UNL     1      -2.794   4.086  24.824  0.00  0.00    +0.033 C 
ATOM     32  C   UNL     1      -3.406   3.544  24.717  0.00  0.00    +0.003 C 
ATOM     33  C   UNL     1      -3.276   2.740  24.853  0.00  0.00    +0.006 C 
ATOM     34  C   UNL     1      -3.888   2.199  24.746  0.00  0.00    +0.068 C 
ATOM     35  C   UNL     1      -4.414   2.793  24.524  0.00  0.00    +0.006 C 
ENDROOT
BRANCH  34  36
ATOM     36  C   UNL     1      -4.675   2.065  24.540  0.00  0.00    +0.185 C 
ATOM     37  O   UNL     1      -5.229   2.672  24.612  0.00  0.00    -0.220 OA
ENDBRANCH  34  36
BRANCH  12  11
ATOM     11  O   UNL     1      -4.369   0.853  24.775  0.00  0.00    -0.437 OA
BRANCH  11   9
ATOM      8  N   UNL     1      -4.016  -0.364  24.114  0.00  0.00    -0.142 NA
ATOM      9  C   UNL     1      -4.214   0.043  24.805  0.00  0.00    +0.425 C 
ATOM     10  O   UNL     1      -4.256  -0.359  25.523  0.00  0.00    -0.224 OA
BRANCH   8   7
ATOM      3  C   UNL     1      -2.928  -2.253  24.229  0.00  0.00    +0.027 A 
ATOM      4  C   UNL     1      -3.551  -2.793  24.202  0.00  0.00    +0.006 A 
ATOM      5  C   UNL     1      -4.330  -2.524  24.146  0.00  0.00    +0.002 A 
ATOM      6  C   UNL     1      -4.484  -1.714  24.117  0.00  0.00    +0.017 A 
ATOM      7  C   UNL     1      -3.861  -1.174  24.143  0.00  0.00    +0.077 A 
ATOM     38  C   UNL     1      -3.084  -1.443  24.199  0.00  0.00    +0.023 A 
BRANCH   3   2
ATOM      1  C   UNL     1      -1.730  -2.426  24.988  0.00  0.00    +0.074 C 
ATOM      2  S   UNL     1      -2.151  -2.522  24.285  0.00  0.00    -0.113 S 
ENDBRANCH   3   2
ENDBRANCH   8   7
ENDBRANCH  11   9
ENDBRANCH  12  11
BRANCH  17  18
ATOM     18  C   UNL     1      -1.174   2.761  25.445  0.00  0.00    +0.089 C 
BRANCH  18  19
ATOM     19  C   UNL     1      -0.534   2.797  24.925  0.00  0.00    +0.242 C 
ATOM     20  O   UNL     1      -0.241   3.529  24.683  0.00  0.00    -0.273 OA
ATOM     21  N   UNL     1      -0.188   2.102  24.648  0.00  0.00    -0.201 NA
BRANCH  21  22
ATOM     22  C   UNL     1       0.451   2.138  24.128  0.00  0.00    +0.141 C 
BRANCH  22  23
ATOM     23  C   UNL     1       0.748   1.447  23.790  0.00  0.00    -0.001 A 
ATOM     24  C   UNL     1       0.234   0.836  23.584  0.00  0.00    -0.003 A 
ATOM     25  C   UNL     1       0.530   0.144  23.245  0.00  0.00    -0.000 A 
ATOM     26  C   UNL     1       1.340   0.064  23.112  0.00  0.00    -0.000 A 
ATOM     27  C   UNL     1       1.854   0.675  23.318  0.00  0.00    -0.000 A 
ATOM     28  C   UNL     1       1.557   1.367  23.657  0.00  0.00    -0.003 A 
ENDBRANCH  22  23
ENDBRANCH  21  22
ENDBRANCH  18  19
ENDBRANCH  17  18
TORSDOF 9
ENDMDL
