MODEL 1
REMARK VINA RESULT:     -18.3      0.000      0.000
REMARK  Name = 
REMARK  2 active torsions:
REMARK  status: ('A' for Active; 'I' for Inactive)
REMARK    1  A    between atoms: C_2  and  C_27
REMARK    2  A    between atoms: C_12  and  C_17
REMARK                            x       y       z     vdW  Elec       q    Type
REMARK                         _______ _______ _______ _____ _____    ______ ____
ROOT
ATOM      1  O   UNL     1      -3.300   1.270  24.810  0.00  0.00    -0.269 OA
ATOM      2  C   UNL     1      -2.894   1.973  24.664  0.00  0.00    +0.255 C 
ATOM      3  N   UNL     1      -3.283   2.698  24.739  0.00  0.00    -0.275 N 
ATOM      4  C   UNL     1      -3.396   3.525  24.733  0.00  0.00    +0.096 C 
ATOM      5  C   UNL     1      -4.348   3.564  24.997  0.00  0.00    +0.043 C 
ATOM      6  C   UNL     1      -5.110   3.764  25.202  0.00  0.00    +0.011 C 
ATOM      7  C   UNL     1      -4.731   3.178  25.123  0.00  0.00    +0.058 C 
ATOM      8  C   UNL     1      -3.811   3.158  24.866  0.00  0.00    +0.100 C 
ATOM      9  C   UNL     1      -4.796   2.264  25.183  0.00  0.00    +0.041 A 
ATOM     10  C   UNL     1      -5.340   1.671  25.362  0.00  0.00    +0.013 A 
ATOM     11  C   UNL     1      -5.110   0.879  25.335  0.00  0.00    +0.006 A 
ATOM     12  C   UNL     1      -4.337   0.680  25.127  0.00  0.00    +0.056 A 
ATOM     13  C   UNL     1      -3.793   1.273  24.948  0.00  0.00    +0.261 A 
ATOM     14  O   UNL     1      -3.114   0.837  24.777  0.00  0.00    -0.267 OA
ATOM     15  N   UNL     1      -4.022   2.065  24.975  0.00  0.00    -0.299 N 
ATOM     16  C   UNL     1      -4.406   2.607  25.058  0.00  0.00    +0.110 C 
ENDROOT
BRANCH  12  17
ATOM     17  C   UNL     1      -4.109  -0.112  25.100  0.00  0.00    +0.005 A 
ATOM     18  C   UNL     1      -3.711  -0.449  25.740  0.00  0.00    +0.000 A 
ATOM     19  C   UNL     1      -3.483  -1.241  25.713  0.00  0.00    +0.000 A 
ATOM     20  C   UNL     1      -3.651  -1.696  25.046  0.00  0.00    +0.000 A 
ATOM     21  C   UNL     1      -3.422  -2.489  25.019  0.00  0.00    +0.000 A 
ATOM     22  C   UNL     1      -3.591  -2.944  24.352  0.00  0.00    +0.000 A 
ATOM     23  C   UNL     1      -3.988  -2.608  23.713  0.00  0.00    +0.000 A 
ATOM     24  C   UNL     1      -4.216  -1.816  23.739  0.00  0.00    +0.000 A 
ATOM     25  C   UNL     1      -4.048  -1.360  24.406  0.00  0.00    +0.000 A 
ATOM     26  C   UNL     1      -4.277  -0.567  24.433  0.00  0.00    +0.000 A 
ENDBRANCH  12  17
BRANCH   2  27
ATOM     27  C   UNL     1      -2.100   1.953  24.442  0.00  0.00    +0.083 A 
ATOM     28  C   UNL     1      -1.812   1.867  23.674  0.00  0.00    +0.012 A 
ATOM     29  C   UNL     1      -0.988   1.876  23.708  0.00  0.00    +0.008 A 
ATOM     30  C   UNL     1      -0.766   1.968  24.497  0.00  0.00    +0.036 A 
ATOM     31  S   UNL     1      -1.452   2.016  24.951  0.00  0.00    -0.082 S 
ENDBRANCH   2  27
TORSDOF 2
ENDMDL
MODEL 2
REMARK VINA RESULT:     -16.3      1.386      3.990
REMARK  Name = 
REMARK  2 active torsions:
REMARK  status: ('A' for Active; 'I' for Inactive)
REMARK    1  A    between atoms: C_2  and  C_27
REMARK    2  A    between atoms: C_12  and  C_17
REMARK                            x       y       z     vdW  Elec       q    Type
REMARK                         _______ _______ _______ _____ _____    ______ ____
ROOT
ATOM      1  O   UNL     1      -2.855   0.094  24.673  0.00  0.00    -0.269 OA
ATOM      2  C   UNL     1      -2.160  -0.341  24.774  0.00  0.00    +0.255 C 
ATOM      3  N   UNL     1      -2.175  -1.164  24.708  0.00  0.00    -0.275 N 
ATOM      4  C   UNL     1      -1.894  -1.951  24.703  0.00  0.00    +0.096 C 
ATOM      5  C   UNL     1      -2.736  -2.427  24.503  0.00  0.00    +0.043 C 
ATOM      6  C   UNL     1      -3.333  -2.959  24.347  0.00  0.00    +0.011 C 
ATOM      7  C   UNL     1      -3.262  -2.264  24.414  0.00  0.00    +0.058 C 
ATOM      8  C   UNL     1      -2.440  -1.818  24.607  0.00  0.00    +0.100 C 
ATOM      9  C   UNL     1      -3.745  -1.483  24.380  0.00  0.00    +0.041 A 
ATOM     10  C   UNL     1      -4.513  -1.210  24.252  0.00  0.00    +0.013 A 
ATOM     11  C   UNL     1      -4.674  -0.401  24.282  0.00  0.00    +0.006 A 
ATOM     12  C   UNL     1      -4.067   0.134  24.441  0.00  0.00    +0.056 A 
ATOM     13  C   UNL     1      -3.299  -0.138  24.569  0.00  0.00    +0.261 A 
ATOM     14  O   UNL     1      -2.887   0.564  24.703  0.00  0.00    -0.267 OA
ATOM     15  N   UNL     1      -3.138  -0.947  24.538  0.00  0.00    -0.299 N 
ATOM     16  C   UNL     1      -3.233  -1.606  24.470  0.00  0.00    +0.110 C 
ENDROOT
BRANCH  12  17
ATOM     17  C   UNL     1      -4.228   0.942  24.472  0.00  0.00    +0.005 A 
ATOM     18  C   UNL     1      -3.985   1.435  23.856  0.00  0.00    +0.000 A 
ATOM     19  C   UNL     1      -4.146   2.243  23.885  0.00  0.00    +0.000 A 
ATOM     20  C   UNL     1      -4.550   2.559  24.531  0.00  0.00    +0.000 A 
ATOM     21  C   UNL     1      -4.712   3.369  24.561  0.00  0.00    +0.000 A 
ATOM     22  C   UNL     1      -5.116   3.685  25.207  0.00  0.00    +0.000 A 
ATOM     23  C   UNL     1      -5.359   3.193  25.822  0.00  0.00    +0.000 A 
ATOM     24  C   UNL     1      -5.198   2.384  25.793  0.00  0.00    +0.000 A 
ATOM     25  C   UNL     1      -4.794   2.068  25.147  0.00  0.00    +0.000 A 
ATOM     26  C   UNL     1      -4.632   1.259  25.117  0.00  0.00    +0.000 A 
ENDBRANCH  12  17
BRANCH   2  27
ATOM     27  C   UNL     1      -1.452   0.046  24.941  0.00  0.00    +0.083 A 
ATOM     28  C   UNL     1      -1.197   0.292  25.686  0.00  0.00    +0.012 A 
ATOM     29  C   UNL     1      -0.461   0.654  25.597  0.00  0.00    +0.008 A 
ATOM     30  C   UNL     1      -0.260   0.630  24.798  0.00  0.00    +0.036 A 
ATOM     31  S   UNL     1      -0.871   0.255  24.392  0.00  0.00    -0.082 S 
ENDBRANCH   2  27
TORSDOF 2
ENDMDL
MODEL 3
REMARK VINA RESULT:     -16.2      1.291      2.733
REMARK  Name = 
REMARK  2 active torsions:
REMARK  status: ('A' for Active; 'I' for Inactive)
REMARK    1  A    between atoms: C_2  and  C_27
REMARK    2  A    between atoms: C_12  and  C_17
REMARK                            x       y       z     vdW  Elec       q    Type
REMARK                         _______ _______ _______ _____ _____    ______ ____
ROOT
ATOM      1  O   UNL     1      -3.217   2.244  24.976  0.00  0.00    -0.269 OA
ATOM      2  C   UNL     1      -3.456   2.988  25.242  0.00  0.00    +0.255 C 
ATOM      3  N   UNL     1      -2.901   3.592  25.335  0.00  0.00    -0.275 N 
ATOM      4  C   UNL     1      -2.595   4.348  25.516  0.00  0.00    +0.096 C 
ATOM      5  C   UNL     1      -1.640   4.193  25.313  0.00  0.00    +0.043 C 
ATOM      6  C   UNL     1      -0.835   4.228  25.192  0.00  0.00    +0.011 C 
ATOM      7  C   UNL     1      -1.349   3.753  25.131  0.00  0.00    +0.058 C 
ATOM      8  C   UNL     1      -2.268   3.919  25.332  0.00  0.00    +0.100 C 
ATOM      9  C   UNL     1      -1.498   2.879  24.889  0.00  0.00    +0.041 A 
ATOM     10  C   UNL     1      -1.096   2.212  24.620  0.00  0.00    +0.013 A 
ATOM     11  C   UNL     1      -1.508   1.512  24.475  0.00  0.00    +0.006 A 
ATOM     12  C   UNL     1      -2.324   1.481  24.598  0.00  0.00    +0.056 A 
ATOM     13  C   UNL     1      -2.726   2.148  24.867  0.00  0.00    +0.261 A 
ATOM     14  O   UNL     1      -3.503   1.875  24.910  0.00  0.00    -0.267 OA
ATOM     15  N   UNL     1      -2.313   2.848  25.013  0.00  0.00    -0.299 N 
ATOM     16  C   UNL     1      -1.806   3.281  25.062  0.00  0.00    +0.110 C 
ENDROOT
BRANCH  12  17
ATOM     17  C   UNL     1      -2.735   0.781  24.452  0.00  0.00    +0.005 A 
ATOM     18  C   UNL     1      -3.139   0.682  23.740  0.00  0.00    +0.000 A 
ATOM     19  C   UNL     1      -3.551  -0.017  23.593  0.00  0.00    +0.000 A 
ATOM     20  C   UNL     1      -3.560  -0.617  24.159  0.00  0.00    +0.000 A 
ATOM     21  C   UNL     1      -3.972  -1.318  24.012  0.00  0.00    +0.000 A 
ATOM     22  C   UNL     1      -3.980  -1.918  24.579  0.00  0.00    +0.000 A 
ATOM     23  C   UNL     1      -3.576  -1.818  25.290  0.00  0.00    +0.000 A 
ATOM     24  C   UNL     1      -3.164  -1.119  25.437  0.00  0.00    +0.000 A 
ATOM     25  C   UNL     1      -3.156  -0.519  24.871  0.00  0.00    +0.000 A 
ATOM     26  C   UNL     1      -2.743   0.181  25.018  0.00  0.00    +0.000 A 
ENDBRANCH  12  17
BRANCH   2  27
ATOM     27  C   UNL     1      -4.250   3.129  25.414  0.00  0.00    +0.083 A 
ATOM     28  C   UNL     1      -4.642   2.913  26.108  0.00  0.00    +0.012 A 
ATOM     29  C   UNL     1      -5.426   3.161  26.045  0.00  0.00    +0.008 A 
ATOM     30  C   UNL     1      -5.520   3.530  25.313  0.00  0.00    +0.036 A 
ATOM     31  S   UNL     1      -4.794   3.510  24.923  0.00  0.00    -0.082 S 
ENDBRANCH   2  27
TORSDOF 2
ENDMDL
MODEL 4
REMARK VINA RESULT:     -15.3      1.543      2.158
REMARK  Name = 
REMARK  2 active torsions:
REMARK  status: ('A' for Active; 'I' for Inactive)
REMARK    1  A    between atoms: C_2  and  C_27
REMARK    2  A    between atoms: C_12  and  C_17
REMARK                            x       y       z     vdW  Elec       q    Type
REMARK                         _______ _______ _______ _____ _____    ______ ____
ROOT
ATOM      1  O   UNL     1      -3.270   2.020  25.047  0.00  0.00    -0.269 OA
ATOM      2  C   UNL     1      -3.468   2.802  25.226  0.00  0.00    +0.255 C 
ATOM      3  N   UNL     1      -4.259   3.013  25.332  0.00  0.00    -0.275 N 
ATOM      4  C   UNL     1      -4.922   3.497  25.485  0.00  0.00    +0.096 C 
ATOM      5  C   UNL     1      -5.641   2.824  25.400  0.00  0.00    +0.043 C 
ATOM      6  C   UNL     1      -6.336   2.400  25.366  0.00  0.00    +0.011 C 
ATOM      7  C   UNL     1      -5.650   2.278  25.287  0.00  0.00    +0.058 C 
ATOM      8  C   UNL     1      -4.966   2.940  25.372  0.00  0.00    +0.100 C 
ATOM      9  C   UNL     1      -5.055   1.603  25.100  0.00  0.00    +0.041 A 
ATOM     10  C   UNL     1      -5.034   0.796  24.930  0.00  0.00    +0.013 A 
ATOM     11  C   UNL     1      -4.312   0.422  24.795  0.00  0.00    +0.006 A 
ATOM     12  C   UNL     1      -3.610   0.854  24.830  0.00  0.00    +0.056 A 
ATOM     13  C   UNL     1      -3.630   1.661  25.000  0.00  0.00    +0.261 A 
ATOM     14  O   UNL     1      -2.831   1.861  24.979  0.00  0.00    -0.267 OA
ATOM     15  N   UNL     1      -4.353   2.035  25.135  0.00  0.00    -0.299 N 
ATOM     16  C   UNL     1      -5.012   2.125  25.205  0.00  0.00    +0.110 C 
ENDROOT
BRANCH  12  17
ATOM     17  C   UNL     1      -2.888   0.479  24.695  0.00  0.00    +0.005 A 
ATOM     18  C   UNL     1      -2.526   0.535  23.956  0.00  0.00    +0.000 A 
ATOM     19  C   UNL     1      -1.804   0.160  23.820  0.00  0.00    +0.000 A 
ATOM     20  C   UNL     1      -1.444  -0.272  24.424  0.00  0.00    +0.000 A 
ATOM     21  C   UNL     1      -0.721  -0.647  24.288  0.00  0.00    +0.000 A 
ATOM     22  C   UNL     1      -0.361  -1.079  24.893  0.00  0.00    +0.000 A 
ATOM     23  C   UNL     1      -0.723  -1.135  25.631  0.00  0.00    +0.000 A 
ATOM     24  C   UNL     1      -1.445  -0.760  25.767  0.00  0.00    +0.000 A 
ATOM     25  C   UNL     1      -1.805  -0.329  25.163  0.00  0.00    +0.000 A 
ATOM     26  C   UNL     1      -2.528   0.047  25.299  0.00  0.00    +0.000 A 
ENDBRANCH  12  17
BRANCH   2  27
ATOM     27  C   UNL     1      -2.876   3.371  25.298  0.00  0.00    +0.083 A 
ATOM     28  C   UNL     1      -2.450   3.543  25.983  0.00  0.00    +0.012 A 
ATOM     29  C   UNL     1      -1.917   4.148  25.806  0.00  0.00    +0.008 A 
ATOM     30  C   UNL     1      -2.014   4.350  25.013  0.00  0.00    +0.036 A 
ATOM     31  S   UNL     1      -2.606   3.870  24.698  0.00  0.00    -0.082 S 
ENDBRANCH   2  27
TORSDOF 2
ENDMDL
MODEL 5
REMARK VINA RESULT:     -15.0      1.044      3.576
REMARK  Name = 
REMARK  2 active torsions:
REMARK  status: ('A' for Active; 'I' for Inactive)
REMARK    1  A    between atoms: C_2  and  C_27
REMARK    2  A    between atoms: C_12  and  C_17
REMARK                            x       y       z     vdW  Elec       q    Type
REMARK                         _______ _______ _______ _____ _____    ______ ____
ROOT
ATOM      1  O   UNL     1      -3.613   1.496  24.871  0.00  0.00    -0.269 OA
ATOM      2  C   UNL     1      -4.228   0.945  24.899  0.00  0.00    +0.255 C 
ATOM      3  N   UNL     1      -4.999   1.195  25.057  0.00  0.00    -0.275 N 
ATOM      4  C   UNL     1      -5.823   1.145  25.186  0.00  0.00    +0.096 C 
ATOM      5  C   UNL     1      -6.023   2.100  25.344  0.00  0.00    +0.043 C 
ATOM      6  C   UNL     1      -6.348   2.832  25.493  0.00  0.00    +0.011 C 
ATOM      7  C   UNL     1      -5.714   2.564  25.355  0.00  0.00    +0.058 C 
ATOM      8  C   UNL     1      -5.536   1.638  25.204  0.00  0.00    +0.100 C 
ATOM      9  C   UNL     1      -4.836   2.811  25.244  0.00  0.00    +0.041 A 
ATOM     10  C   UNL     1      -4.352   3.479  25.252  0.00  0.00    +0.013 A 
ATOM     11  C   UNL     1      -3.543   3.404  25.110  0.00  0.00    +0.006 A 
ATOM     12  C   UNL     1      -3.217   2.661  24.959  0.00  0.00    +0.056 A 
ATOM     13  C   UNL     1      -3.701   1.993  24.950  0.00  0.00    +0.261 A 
ATOM     14  O   UNL     1      -3.161   1.393  24.783  0.00  0.00    -0.267 OA
ATOM     15  N   UNL     1      -4.510   2.068  25.092  0.00  0.00    -0.299 N 
ATOM     16  C   UNL     1      -5.103   2.348  25.226  0.00  0.00    +0.110 C 
ENDROOT
BRANCH  12  17
ATOM     17  C   UNL     1      -2.409   2.588  24.817  0.00  0.00    +0.005 A 
ATOM     18  C   UNL     1      -2.126   2.571  24.042  0.00  0.00    +0.000 A 
ATOM     19  C   UNL     1      -1.317   2.497  23.899  0.00  0.00    +0.000 A 
ATOM     20  C   UNL     1      -0.790   2.440  24.532  0.00  0.00    +0.000 A 
ATOM     21  C   UNL     1       0.020   2.366  24.389  0.00  0.00    +0.000 A 
ATOM     22  C   UNL     1       0.546   2.309  25.022  0.00  0.00    +0.000 A 
ATOM     23  C   UNL     1       0.264   2.325  25.796  0.00  0.00    +0.000 A 
ATOM     24  C   UNL     1      -0.545   2.399  25.939  0.00  0.00    +0.000 A 
ATOM     25  C   UNL     1      -1.072   2.457  25.307  0.00  0.00    +0.000 A 
ATOM     26  C   UNL     1      -1.882   2.530  25.450  0.00  0.00    +0.000 A 
ENDBRANCH  12  17
BRANCH   2  27
ATOM     27  C   UNL     1      -4.072   0.146  24.768  0.00  0.00    +0.083 A 
ATOM     28  C   UNL     1      -4.090  -0.239  24.038  0.00  0.00    +0.012 A 
ATOM     29  C   UNL     1      -3.900  -1.032  24.165  0.00  0.00    +0.008 A 
ATOM     30  C   UNL     1      -3.765  -1.138  24.971  0.00  0.00    +0.036 A 
ATOM     31  S   UNL     1      -3.871  -0.410  25.345  0.00  0.00    -0.082 S 
ENDBRANCH   2  27
TORSDOF 2
ENDMDL
