MODEL 1
REMARK VINA RESULT:     -13.0      0.000      0.000
REMARK  Name = 
REMARK  7 active torsions:
REMARK  status: ('A' for Active; 'I' for Inactive)
REMARK    1  A    between atoms: O_2  and  C_3
REMARK    2  A    between atoms: C_6  and  C_9
REMARK    3  A    between atoms: C_14  and  C_15
REMARK    4  A    between atoms: C_15  and  C_16
REMARK    5  A    between atoms: C_19  and  C_20
REMARK    6  A    between atoms: C_20  and  C_21
REMARK    7  A    between atoms: C_21  and  N_22
REMARK                            x       y       z     vdW  Elec       q    Type
REMARK                         _______ _______ _______ _____ _____    ______ ____
ROOT
ATOM      9  C   UNL     1      -1.970   1.972  24.958  0.00  0.00    +0.249 C 
ATOM     10  O   UNL     1      -1.502   1.295  24.924  0.00  0.00    -0.270 OA
ATOM     11  N   UNL     1      -2.789   1.904  25.033  0.00  0.00    -0.276 N 
ATOM     12  C   UNL     1      -3.259   2.582  25.068  0.00  0.00    +0.094 C 
ATOM     13  C   UNL     1      -4.077   2.514  25.143  0.00  0.00    +0.022 C 
ATOM     14  C   UNL     1      -4.427   1.768  25.185  0.00  0.00    +0.015 C 
ATOM     19  C   UNL     1      -3.958   1.090  25.150  0.00  0.00    +0.022 C 
ATOM     36  C   UNL     1      -3.138   1.158  25.075  0.00  0.00    +0.094 C 
ENDROOT
BRANCH   9   6
ATOM      3  C   UNL     1      -0.922   4.212  24.836  0.00  0.00    +0.139 A 
ATOM      4  C   UNL     1      -1.085   3.793  24.143  0.00  0.00    +0.037 A 
ATOM      5  C   UNL     1      -1.434   3.047  24.183  0.00  0.00    +0.008 A 
ATOM      6  C   UNL     1      -1.621   2.718  24.916  0.00  0.00    +0.054 A 
ATOM      7  C   UNL     1      -1.458   3.137  25.609  0.00  0.00    +0.008 A 
ATOM      8  C   UNL     1      -1.110   3.882  25.568  0.00  0.00    +0.037 A 
BRANCH   3   2
ATOM      1  C   UNL     1      -1.040   5.636  24.859  0.00  0.00    +0.252 C 
ATOM      2  O   UNL     1      -0.574   4.957  24.795  0.00  0.00    -0.471 OA
ENDBRANCH   3   2
ENDBRANCH   9   6
BRANCH  14  15
ATOM     15  C   UNL     1      -5.245   1.699  25.260  0.00  0.00    +0.114 C 
BRANCH  15  16
ATOM     16  C   UNL     1      -5.689   2.339  25.534  0.00  0.00    +0.365 C 
ATOM     17  O   UNL     1      -5.773   2.466  26.345  0.00  0.00    -0.246 OA
ATOM     18  O   UNL     1      -6.048   2.852  24.997  0.00  0.00    -0.246 OA
ENDBRANCH  15  16
ENDBRANCH  14  15
BRANCH  19  20
ATOM     20  C   UNL     1      -4.308   0.343  25.192  0.00  0.00    +0.019 C 
BRANCH  20  21
ATOM     21  C   UNL     1      -3.866  -0.330  25.013  0.00  0.00    +0.072 C 
BRANCH  21  22
ATOM     22  N   UNL     1      -4.049  -0.778  24.345  0.00  0.00    -0.272 NA
ATOM     23  C   UNL     1      -4.314  -0.953  23.572  0.00  0.00    +0.074 C 
ATOM     24  C   UNL     1      -4.168  -1.930  23.564  0.00  0.00    +0.039 C 
ATOM     25  C   UNL     1      -4.109  -2.725  23.398  0.00  0.00    +0.011 C 
ATOM     26  C   UNL     1      -3.972  -2.296  23.936  0.00  0.00    +0.054 C 
ATOM     27  C   UNL     1      -4.119  -1.352  23.929  0.00  0.00    +0.078 C 
ATOM     28  C   UNL     1      -3.647  -2.298  24.796  0.00  0.00    +0.041 A 
ATOM     29  C   UNL     1      -3.352  -2.814  25.367  0.00  0.00    +0.013 A 
ATOM     30  C   UNL     1      -3.118  -2.524  26.103  0.00  0.00    +0.006 A 
ATOM     31  C   UNL     1      -3.180  -1.718  26.268  0.00  0.00    +0.061 A 
ATOM     32  C   UNL     1      -3.475  -1.201  25.696  0.00  0.00    +0.261 A 
ATOM     33  O   UNL     1      -3.536  -0.395  25.860  0.00  0.00    -0.267 OA
ATOM     34  N   UNL     1      -3.708  -1.492  24.960  0.00  0.00    -0.299 N 
ATOM     35  C   UNL     1      -3.830  -1.922  24.462  0.00  0.00    +0.110 C 
ENDBRANCH  21  22
ENDBRANCH  20  21
ENDBRANCH  19  20
TORSDOF 7
ENDMDL
MODEL 2
REMARK VINA RESULT:     -11.2      1.880      3.027
REMARK  Name = 
REMARK  7 active torsions:
REMARK  status: ('A' for Active; 'I' for Inactive)
REMARK    1  A    between atoms: O_2  and  C_3
REMARK    2  A    between atoms: C_6  and  C_9
REMARK    3  A    between atoms: C_14  and  C_15
REMARK    4  A    between atoms: C_15  and  C_16
REMARK    5  A    between atoms: C_19  and  C_20
REMARK    6  A    between atoms: C_20  and  C_21
REMARK    7  A    between atoms: C_21  and  N_22
REMARK                            x       y       z     vdW  Elec       q    Type
REMARK                         _______ _______ _______ _____ _____    ______ ____
ROOT
ATOM      9  C   UNL     1      -4.742   1.665  25.261  0.00  0.00    +0.249 C 
ATOM     10  O   UNL     1      -4.922   1.012  25.730  0.00  0.00    -0.270 OA
ATOM     11  N   UNL     1      -4.221   1.586  24.626  0.00  0.00    -0.276 N 
ATOM     12  C   UNL     1      -4.040   2.240  24.156  0.00  0.00    +0.094 C 
ATOM     13  C   UNL     1      -3.519   2.160  23.522  0.00  0.00    +0.022 C 
ATOM     14  C   UNL     1      -3.178   1.428  23.357  0.00  0.00    +0.015 C 
ATOM     19  C   UNL     1      -3.359   0.774  23.827  0.00  0.00    +0.022 C 
ATOM     36  C   UNL     1      -3.880   0.853  24.462  0.00  0.00    +0.094 C 
ENDROOT
BRANCH   9   6
ATOM      3  C   UNL     1      -5.765   3.865  25.754  0.00  0.00    +0.139 A 
ATOM      4  C   UNL     1      -4.969   3.731  25.928  0.00  0.00    +0.037 A 
ATOM      5  C   UNL     1      -4.628   2.998  25.765  0.00  0.00    +0.008 A 
ATOM      6  C   UNL     1      -5.082   2.398  25.426  0.00  0.00    +0.054 A 
ATOM      7  C   UNL     1      -5.878   2.533  25.251  0.00  0.00    +0.008 A 
ATOM      8  C   UNL     1      -6.218   3.265  25.415  0.00  0.00    +0.037 A 
BRANCH   3   2
ATOM      1  C   UNL     1      -6.035   5.216  25.377  0.00  0.00    +0.252 C 
ATOM      2  O   UNL     1      -6.105   4.597  25.918  0.00  0.00    -0.471 OA
ENDBRANCH   3   2
ENDBRANCH   9   6
BRANCH  14  15
ATOM     15  C   UNL     1      -2.658   1.348  22.722  0.00  0.00    +0.114 C 
BRANCH  15  16
ATOM     16  C   UNL     1      -2.360   2.020  22.347  0.00  0.00    +0.365 C 
ATOM     17  O   UNL     1      -2.704   2.288  21.646  0.00  0.00    -0.246 OA
ATOM     18  O   UNL     1      -1.718   2.424  22.671  0.00  0.00    -0.246 OA
ENDBRANCH  15  16
ENDBRANCH  14  15
BRANCH  19  20
ATOM     20  C   UNL     1      -3.018   0.040  23.661  0.00  0.00    +0.019 C 
BRANCH  20  21
ATOM     21  C   UNL     1      -3.021  -0.554  24.233  0.00  0.00    +0.072 C 
BRANCH  21  22
ATOM     22  N   UNL     1      -3.495  -1.223  24.131  0.00  0.00    -0.272 NA
ATOM     23  C   UNL     1      -4.161  -1.681  23.922  0.00  0.00    +0.074 C 
ATOM     24  C   UNL     1      -3.832  -2.577  24.176  0.00  0.00    +0.039 C 
ATOM     25  C   UNL     1      -3.714  -3.368  24.330  0.00  0.00    +0.011 C 
ATOM     26  C   UNL     1      -3.356  -2.767  24.395  0.00  0.00    +0.054 C 
ATOM     27  C   UNL     1      -3.688  -1.908  24.144  0.00  0.00    +0.078 C 
ATOM     28  C   UNL     1      -2.547  -2.437  24.679  0.00  0.00    +0.041 A 
ATOM     29  C   UNL     1      -1.831  -2.688  25.003  0.00  0.00    +0.013 A 
ATOM     30  C   UNL     1      -1.239  -2.138  25.170  0.00  0.00    +0.006 A 
ATOM     31  C   UNL     1      -1.363  -1.338  25.012  0.00  0.00    +0.061 A 
ATOM     32  C   UNL     1      -2.079  -1.087  24.688  0.00  0.00    +0.261 A 
ATOM     33  O   UNL     1      -2.202  -0.287  24.530  0.00  0.00    -0.267 OA
ATOM     34  N   UNL     1      -2.671  -1.637  24.521  0.00  0.00    -0.299 N 
ATOM     35  C   UNL     1      -2.990  -2.223  24.470  0.00  0.00    +0.110 C 
ENDBRANCH  21  22
ENDBRANCH  20  21
ENDBRANCH  19  20
TORSDOF 7
ENDMDL
MODEL 3
REMARK VINA RESULT:     -10.5      1.448      2.708
REMARK  Name = 
REMARK  7 active torsions:
REMARK  status: ('A' for Active; 'I' for Inactive)
REMARK    1  A    between atoms: O_2  and  C_3
REMARK    2  A    between atoms: C_6  and  C_9
REMARK    3  A    between atoms: C_14  and  C_15
REMARK    4  A    between atoms: C_15  and  C_16
REMARK    5  A    between atoms: C_19  and  C_20
REMARK    6  A    between atoms: C_20  and  C_21
REMARK    7  A    between atoms: C_21  and  N_22
REMARK                            x       y       z     vdW  Elec       q    Type
REMARK                         _______ _______ _______ _____ _____    ______ ____
ROOT
ATOM      9  C   UNL     1      -2.420   2.341  25.049  0.00  0.00    +0.249 C 
ATOM     10  O   UNL     1      -3.170   2.089  25.281  0.00  0.00    -0.270 OA
ATOM     11  N   UNL     1      -1.874   1.796  24.754  0.00  0.00    -0.276 N 
ATOM     12  C   UNL     1      -1.123   2.049  24.522  0.00  0.00    +0.094 C 
ATOM     13  C   UNL     1      -0.578   1.504  24.228  0.00  0.00    +0.022 C 
ATOM     14  C   UNL     1      -0.783   0.708  24.165  0.00  0.00    +0.015 C 
ATOM     19  C   UNL     1      -1.534   0.455  24.398  0.00  0.00    +0.022 C 
ATOM     36  C   UNL     1      -2.080   1.000  24.692  0.00  0.00    +0.094 C 
ENDROOT
BRANCH   9   6
ATOM      3  C   UNL     1      -1.804   4.732  25.234  0.00  0.00    +0.139 A 
ATOM      4  C   UNL     1      -1.551   4.194  25.807  0.00  0.00    +0.037 A 
ATOM      5  C   UNL     1      -1.756   3.398  25.746  0.00  0.00    +0.008 A 
ATOM      6  C   UNL     1      -2.214   3.138  25.111  0.00  0.00    +0.054 A 
ATOM      7  C   UNL     1      -2.467   3.675  24.538  0.00  0.00    +0.008 A 
ATOM      8  C   UNL     1      -2.262   4.471  24.599  0.00  0.00    +0.037 A 
BRANCH   3   2
ATOM      1  C   UNL     1      -0.961   5.824  24.863  0.00  0.00    +0.252 C 
ATOM      2  O   UNL     1      -1.598   5.527  25.295  0.00  0.00    -0.471 OA
ENDBRANCH   3   2
ENDBRANCH   9   6
BRANCH  14  15
ATOM     15  C   UNL     1      -0.238   0.163  23.871  0.00  0.00    +0.114 C 
BRANCH  15  16
ATOM     16  C   UNL     1       0.419   0.426  23.446  0.00  0.00    +0.365 C 
ATOM     17  O   UNL     1       1.043   0.796  23.839  0.00  0.00    -0.246 OA
ATOM     18  O   UNL     1       0.452   0.318  22.629  0.00  0.00    -0.246 OA
ENDBRANCH  15  16
ENDBRANCH  14  15
BRANCH  19  20
ATOM     20  C   UNL     1      -1.739  -0.342  24.335  0.00  0.00    +0.019 C 
BRANCH  20  21
ATOM     21  C   UNL     1      -2.459  -0.607  24.637  0.00  0.00    +0.072 C 
BRANCH  21  22
ATOM     22  N   UNL     1      -3.065  -0.829  24.122  0.00  0.00    -0.272 NA
ATOM     23  C   UNL     1      -3.581  -0.796  23.466  0.00  0.00    +0.074 C 
ATOM     24  C   UNL     1      -4.112  -1.613  23.632  0.00  0.00    +0.039 C 
ATOM     25  C   UNL     1      -4.631  -2.241  23.626  0.00  0.00    +0.011 C 
ATOM     26  C   UNL     1      -4.106  -2.005  24.028  0.00  0.00    +0.054 C 
ATOM     27  C   UNL     1      -3.601  -1.213  23.854  0.00  0.00    +0.078 C 
ATOM     28  C   UNL     1      -3.638  -2.205  24.793  0.00  0.00    +0.041 A 
ATOM     29  C   UNL     1      -3.604  -2.770  25.394  0.00  0.00    +0.013 A 
ATOM     30  C   UNL     1      -3.046  -2.697  25.997  0.00  0.00    +0.006 A 
ATOM     31  C   UNL     1      -2.522  -2.059  26.000  0.00  0.00    +0.061 A 
ATOM     32  C   UNL     1      -2.556  -1.495  25.399  0.00  0.00    +0.261 A 
ATOM     33  O   UNL     1      -2.032  -0.858  25.402  0.00  0.00    -0.267 OA
ATOM     34  N   UNL     1      -3.114  -1.568  24.796  0.00  0.00    -0.299 N 
ATOM     35  C   UNL     1      -3.618  -1.814  24.430  0.00  0.00    +0.110 C 
ENDBRANCH  21  22
ENDBRANCH  20  21
ENDBRANCH  19  20
TORSDOF 7
ENDMDL
MODEL 4
REMARK VINA RESULT:     -10.3      1.208      5.204
REMARK  Name = 
REMARK  7 active torsions:
REMARK  status: ('A' for Active; 'I' for Inactive)
REMARK    1  A    between atoms: O_2  and  C_3
REMARK    2  A    between atoms: C_6  and  C_9
REMARK    3  A    between atoms: C_14  and  C_15
REMARK    4  A    between atoms: C_15  and  C_16
REMARK    5  A    between atoms: C_19  and  C_20
REMARK    6  A    between atoms: C_20  and  C_21
REMARK    7  A    between atoms: C_21  and  N_22
REMARK                            x       y       z     vdW  Elec       q    Type
REMARK                         _______ _______ _______ _____ _____    ______ ____
ROOT
ATOM      9  C   UNL     1      -2.949  -0.165  24.583  0.00  0.00    +0.249 C 
ATOM     10  O   UNL     1      -2.169   0.061  24.443  0.00  0.00    -0.270 OA
ATOM     11  N   UNL     1      -3.545   0.405  24.611  0.00  0.00    -0.276 N 
ATOM     12  C   UNL     1      -4.327   0.178  24.751  0.00  0.00    +0.094 C 
ATOM     13  C   UNL     1      -4.922   0.748  24.779  0.00  0.00    +0.022 C 
ATOM     14  C   UNL     1      -4.738   1.544  24.666  0.00  0.00    +0.015 C 
ATOM     19  C   UNL     1      -3.956   1.770  24.526  0.00  0.00    +0.022 C 
ATOM     36  C   UNL     1      -3.360   1.200  24.498  0.00  0.00    +0.094 C 
ENDROOT
BRANCH   9   6
ATOM      3  C   UNL     1      -3.505  -2.554  24.924  0.00  0.00    +0.139 A 
ATOM      4  C   UNL     1      -3.557  -2.220  24.170  0.00  0.00    +0.037 A 
ATOM      5  C   UNL     1      -3.372  -1.425  24.056  0.00  0.00    +0.008 A 
ATOM      6  C   UNL     1      -3.134  -0.961  24.696  0.00  0.00    +0.054 A 
ATOM      7  C   UNL     1      -3.082  -1.294  25.450  0.00  0.00    +0.008 A 
ATOM      8  C   UNL     1      -3.267  -2.089  25.563  0.00  0.00    +0.037 A 
BRANCH   3   2
ATOM      1  C   UNL     1      -3.716  -3.863  24.392  0.00  0.00    +0.252 C 
ATOM      2  O   UNL     1      -3.690  -3.348  25.037  0.00  0.00    -0.471 OA
ENDBRANCH   3   2
ENDBRANCH   9   6
BRANCH  14  15
ATOM     15  C   UNL     1      -5.333   2.114  24.693  0.00  0.00    +0.114 C 
BRANCH  15  16
ATOM     16  C   UNL     1      -6.075   1.921  25.001  0.00  0.00    +0.365 C 
ATOM     17  O   UNL     1      -6.205   1.954  25.815  0.00  0.00    -0.246 OA
ATOM     18  O   UNL     1      -6.685   1.695  24.494  0.00  0.00    -0.246 OA
ENDBRANCH  15  16
ENDBRANCH  14  15
BRANCH  19  20
ATOM     20  C   UNL     1      -3.772   2.567  24.413  0.00  0.00    +0.019 C 
BRANCH  20  21
ATOM     21  C   UNL     1      -3.084   2.881  24.741  0.00  0.00    +0.072 C 
BRANCH  21  22
ATOM     22  N   UNL     1      -3.133   3.412  25.371  0.00  0.00    -0.272 NA
ATOM     23  C   UNL     1      -3.443   3.793  26.047  0.00  0.00    +0.074 C 
ATOM     24  C   UNL     1      -2.729   4.458  26.205  0.00  0.00    +0.039 C 
ATOM     25  C   UNL     1      -2.238   5.052  26.467  0.00  0.00    +0.011 C 
ATOM     26  C   UNL     1      -2.249   4.579  25.949  0.00  0.00    +0.054 C 
ATOM     27  C   UNL     1      -2.947   3.942  25.809  0.00  0.00    +0.078 C 
ATOM     28  C   UNL     1      -1.759   4.288  25.228  0.00  0.00    +0.041 A 
ATOM     29  C   UNL     1      -1.055   4.443  24.828  0.00  0.00    +0.013 A 
ATOM     30  C   UNL     1      -0.850   3.996  24.165  0.00  0.00    +0.006 A 
ATOM     31  C   UNL     1      -1.350   3.394  23.903  0.00  0.00    +0.061 A 
ATOM     32  C   UNL     1      -2.055   3.239  24.303  0.00  0.00    +0.261 A 
ATOM     33  O   UNL     1      -2.555   2.637  24.041  0.00  0.00    -0.267 OA
ATOM     34  N   UNL     1      -2.259   3.686  24.966  0.00  0.00    -0.299 N 
ATOM     35  C   UNL     1      -2.225   4.147  25.450  0.00  0.00    +0.110 C 
ENDBRANCH  21  22
ENDBRANCH  20  21
ENDBRANCH  19  20
TORSDOF 7
ENDMDL
MODEL 5
REMARK VINA RESULT:     -10.1      1.648      5.689
REMARK  Name = 
REMARK  7 active torsions:
REMARK  status: ('A' for Active; 'I' for Inactive)
REMARK    1  A    between atoms: O_2  and  C_3
REMARK    2  A    between atoms: C_6  and  C_9
REMARK    3  A    between atoms: C_14  and  C_15
REMARK    4  A    between atoms: C_15  and  C_16
REMARK    5  A    between atoms: C_19  and  C_20
REMARK    6  A    between atoms: C_20  and  C_21
REMARK    7  A    between atoms: C_21  and  N_22
REMARK                            x       y       z     vdW  Elec       q    Type
REMARK                         _______ _______ _______ _____ _____    ______ ____
ROOT
ATOM      9  C   UNL     1      -3.448  -0.274  24.688  0.00  0.00    +0.249 C 
ATOM     10  O   UNL     1      -4.089   0.198  24.900  0.00  0.00    -0.270 OA
ATOM     11  N   UNL     1      -2.739   0.076  24.451  0.00  0.00    -0.276 N 
ATOM     12  C   UNL     1      -2.096  -0.397  24.238  0.00  0.00    +0.094 C 
ATOM     13  C   UNL     1      -1.388  -0.047  24.001  0.00  0.00    +0.022 C 
ATOM     14  C   UNL     1      -1.321   0.775  23.977  0.00  0.00    +0.015 C 
ATOM     19  C   UNL     1      -1.964   1.247  24.190  0.00  0.00    +0.022 C 
ATOM     36  C   UNL     1      -2.673   0.898  24.427  0.00  0.00    +0.094 C 
ENDROOT
BRANCH   9   6
ATOM      3  C   UNL     1      -3.646  -2.741  24.758  0.00  0.00    +0.139 A 
ATOM      4  C   UNL     1      -3.322  -2.334  25.398  0.00  0.00    +0.037 A 
ATOM      5  C   UNL     1      -3.256  -1.512  25.376  0.00  0.00    +0.008 A 
ATOM      6  C   UNL     1      -3.514  -1.096  24.711  0.00  0.00    +0.054 A 
ATOM      7  C   UNL     1      -3.838  -1.503  24.071  0.00  0.00    +0.008 A 
ATOM      8  C   UNL     1      -3.904  -2.324  24.094  0.00  0.00    +0.037 A 
BRANCH   3   2
ATOM      1  C   UNL     1      -3.636  -4.002  24.087  0.00  0.00    +0.252 C 
ATOM      2  O   UNL     1      -3.712  -3.562  24.781  0.00  0.00    -0.471 OA
ENDBRANCH   3   2
ENDBRANCH   9   6
BRANCH  14  15
ATOM     15  C   UNL     1      -0.613   1.125  23.741  0.00  0.00    +0.114 C 
BRANCH  15  16
ATOM     16  C   UNL     1       0.091   0.696  23.778  0.00  0.00    +0.365 C 
ATOM     17  O   UNL     1       0.551   0.716  24.463  0.00  0.00    -0.246 OA
ATOM     18  O   UNL     1       0.336   0.248  23.130  0.00  0.00    -0.246 OA
ENDBRANCH  15  16
ENDBRANCH  14  15
BRANCH  19  20
ATOM     20  C   UNL     1      -1.897   2.070  24.166  0.00  0.00    +0.019 C 
BRANCH  20  21
ATOM     21  C   UNL     1      -2.489   2.541  24.494  0.00  0.00    +0.072 C 
BRANCH  21  22
ATOM     22  N   UNL     1      -2.339   2.971  25.182  0.00  0.00    -0.272 NA
ATOM     23  C   UNL     1      -1.985   3.179  25.910  0.00  0.00    +0.074 C 
ATOM     24  C   UNL     1      -2.492   4.002  26.112  0.00  0.00    +0.039 C 
ATOM     25  C   UNL     1      -2.814   4.685  26.419  0.00  0.00    +0.011 C 
ATOM     26  C   UNL     1      -2.899   4.281  25.852  0.00  0.00    +0.054 C 
ATOM     27  C   UNL     1      -2.400   3.487  25.670  0.00  0.00    +0.078 C 
ATOM     28  C   UNL     1      -3.396   4.215  25.082  0.00  0.00    +0.041 A 
ATOM     29  C   UNL     1      -3.997   4.604  24.672  0.00  0.00    +0.013 A 
ATOM     30  C   UNL     1      -4.270   4.301  23.954  0.00  0.00    +0.006 A 
ATOM     31  C   UNL     1      -3.941   3.610  23.646  0.00  0.00    +0.061 A 
ATOM     32  C   UNL     1      -3.340   3.221  24.056  0.00  0.00    +0.261 A 
ATOM     33  O   UNL     1      -3.012   2.529  23.748  0.00  0.00    -0.267 OA
ATOM     34  N   UNL     1      -3.068   3.523  24.774  0.00  0.00    -0.299 N 
ATOM     35  C   UNL     1      -3.007   3.925  25.306  0.00  0.00    +0.110 C 
ENDBRANCH  21  22
ENDBRANCH  20  21
ENDBRANCH  19  20
TORSDOF 7
ENDMDL
MODEL 6
REMARK VINA RESULT:     -10.0      2.821      3.793
REMARK  Name = 
REMARK  7 active torsions:
REMARK  status: ('A' for Active; 'I' for Inactive)
REMARK    1  A    between atoms: O_2  and  C_3
REMARK    2  A    between atoms: C_6  and  C_9
REMARK    3  A    between atoms: C_14  and  C_15
REMARK    4  A    between atoms: C_15  and  C_16
REMARK    5  A    between atoms: C_19  and  C_20
REMARK    6  A    between atoms: C_20  and  C_21
REMARK    7  A    between atoms: C_21  and  N_22
REMARK                            x       y       z     vdW  Elec       q    Type
REMARK                         _______ _______ _______ _____ _____    ______ ____
ROOT
ATOM      9  C   UNL     1       0.534  -0.075  23.470  0.00  0.00    +0.249 C 
ATOM     10  O   UNL     1       0.197  -0.827  23.470  0.00  0.00    -0.270 OA
ATOM     11  N   UNL     1       0.137   0.555  23.828  0.00  0.00    -0.276 N 
ATOM     12  C   UNL     1       0.474   1.308  23.828  0.00  0.00    +0.094 C 
ATOM     13  C   UNL     1       0.077   1.937  24.185  0.00  0.00    +0.022 C 
ATOM     14  C   UNL     1      -0.655   1.813  24.543  0.00  0.00    +0.015 C 
ATOM     19  C   UNL     1      -0.992   1.059  24.543  0.00  0.00    +0.022 C 
ATOM     36  C   UNL     1      -0.595   0.430  24.185  0.00  0.00    +0.094 C 
ENDROOT
BRANCH   9   6
ATOM      3  C   UNL     1       2.733   0.300  22.396  0.00  0.00    +0.139 A 
ATOM      4  C   UNL     1       2.645   0.414  23.209  0.00  0.00    +0.037 A 
ATOM      5  C   UNL     1       1.913   0.289  23.567  0.00  0.00    +0.008 A 
ATOM      6  C   UNL     1       1.267   0.050  23.113  0.00  0.00    +0.054 A 
ATOM      7  C   UNL     1       1.354  -0.064  22.300  0.00  0.00    +0.008 A 
ATOM      8  C   UNL     1       2.086   0.061  21.942  0.00  0.00    +0.037 A 
BRANCH   3   2
ATOM      1  C   UNL     1       4.083   0.760  22.469  0.00  0.00    +0.252 C 
ATOM      2  O   UNL     1       3.464   0.424  22.038  0.00  0.00    -0.471 OA
ENDBRANCH   3   2
ENDBRANCH   9   6
BRANCH  14  15
ATOM     15  C   UNL     1      -1.052   2.441  24.901  0.00  0.00    +0.114 C 
BRANCH  15  16
ATOM     16  C   UNL     1      -0.663   3.160  25.020  0.00  0.00    +0.365 C 
ATOM     17  O   UNL     1      -0.700   3.749  24.443  0.00  0.00    -0.246 OA
ATOM     18  O   UNL     1      -0.239   3.289  25.715  0.00  0.00    -0.246 OA
ENDBRANCH  15  16
ENDBRANCH  14  15
BRANCH  19  20
ATOM     20  C   UNL     1      -1.725   0.935  24.901  0.00  0.00    +0.019 C 
BRANCH  20  21
ATOM     21  C   UNL     1      -2.102   0.205  24.827  0.00  0.00    +0.072 C 
BRANCH  21  22
ATOM     22  N   UNL     1      -2.775   0.134  24.354  0.00  0.00    -0.272 NA
ATOM     23  C   UNL     1      -3.302   0.280  23.722  0.00  0.00    +0.074 C 
ATOM     24  C   UNL     1      -4.017  -0.362  23.952  0.00  0.00    +0.039 C 
ATOM     25  C   UNL     1      -4.681  -0.831  24.001  0.00  0.00    +0.011 C 
ATOM     26  C   UNL     1      -4.090  -0.729  24.366  0.00  0.00    +0.054 C 
ATOM     27  C   UNL     1      -3.408  -0.104  24.130  0.00  0.00    +0.078 C 
ATOM     28  C   UNL     1      -3.646  -1.021  25.115  0.00  0.00    +0.041 A 
ATOM     29  C   UNL     1      -3.725  -1.554  25.739  0.00  0.00    +0.013 A 
ATOM     30  C   UNL     1      -3.132  -1.611  26.310  0.00  0.00    +0.006 A 
ATOM     31  C   UNL     1      -2.461  -1.135  26.257  0.00  0.00    +0.061 A 
ATOM     32  C   UNL     1      -2.382  -0.601  25.634  0.00  0.00    +0.261 A 
ATOM     33  O   UNL     1      -1.711  -0.124  25.581  0.00  0.00    -0.267 OA
ATOM     34  N   UNL     1      -2.975  -0.544  25.063  0.00  0.00    -0.299 N 
ATOM     35  C   UNL     1      -3.546  -0.660  24.734  0.00  0.00    +0.110 C 
ENDBRANCH  21  22
ENDBRANCH  20  21
ENDBRANCH  19  20
TORSDOF 7
ENDMDL
MODEL 7
REMARK VINA RESULT:      -9.9      1.731      5.481
REMARK  Name = 
REMARK  7 active torsions:
REMARK  status: ('A' for Active; 'I' for Inactive)
REMARK    1  A    between atoms: O_2  and  C_3
REMARK    2  A    between atoms: C_6  and  C_9
REMARK    3  A    between atoms: C_14  and  C_15
REMARK    4  A    between atoms: C_15  and  C_16
REMARK    5  A    between atoms: C_19  and  C_20
REMARK    6  A    between atoms: C_20  and  C_21
REMARK    7  A    between atoms: C_21  and  N_22
REMARK                            x       y       z     vdW  Elec       q    Type
REMARK                         _______ _______ _______ _____ _____    ______ ____
ROOT
ATOM      9  C   UNL     1      -4.047  -0.272  24.771  0.00  0.00    +0.249 C 
ATOM     10  O   UNL     1      -4.505  -0.037  25.414  0.00  0.00    -0.270 OA
ATOM     11  N   UNL     1      -3.744   0.293  24.251  0.00  0.00    -0.276 N 
ATOM     12  C   UNL     1      -3.284   0.058  23.607  0.00  0.00    +0.094 C 
ATOM     13  C   UNL     1      -2.983   0.623  23.089  0.00  0.00    +0.022 C 
ATOM     14  C   UNL     1      -3.139   1.423  23.212  0.00  0.00    +0.015 C 
ATOM     19  C   UNL     1      -3.599   1.658  23.856  0.00  0.00    +0.022 C 
ATOM     36  C   UNL     1      -3.901   1.093  24.376  0.00  0.00    +0.094 C 
ENDROOT
BRANCH   9   6
ATOM      3  C   UNL     1      -3.575  -2.673  24.396  0.00  0.00    +0.139 A 
ATOM      4  C   UNL     1      -3.141  -2.249  24.956  0.00  0.00    +0.037 A 
ATOM      5  C   UNL     1      -3.297  -1.450  25.082  0.00  0.00    +0.008 A 
ATOM      6  C   UNL     1      -3.889  -1.072  24.647  0.00  0.00    +0.054 A 
ATOM      7  C   UNL     1      -4.323  -1.496  24.087  0.00  0.00    +0.008 A 
ATOM      8  C   UNL     1      -4.166  -2.295  23.962  0.00  0.00    +0.037 A 
BRANCH   3   2
ATOM      1  C   UNL     1      -2.745  -3.701  23.852  0.00  0.00    +0.252 C 
ATOM      2  O   UNL     1      -3.418  -3.473  24.272  0.00  0.00    -0.471 OA
ENDBRANCH   3   2
ENDBRANCH   9   6
BRANCH  14  15
ATOM     15  C   UNL     1      -2.837   1.988  22.693  0.00  0.00    +0.114 C 
BRANCH  15  16
ATOM     16  C   UNL     1      -2.247   1.780  22.155  0.00  0.00    +0.365 C 
ATOM     17  O   UNL     1      -2.435   1.674  21.358  0.00  0.00    -0.246 OA
ATOM     18  O   UNL     1      -1.471   1.678  22.413  0.00  0.00    -0.246 OA
ENDBRANCH  15  16
ENDBRANCH  14  15
BRANCH  19  20
ATOM     20  C   UNL     1      -3.756   2.459  23.980  0.00  0.00    +0.019 C 
BRANCH  20  21
ATOM     21  C   UNL     1      -3.908   2.736  24.741  0.00  0.00    +0.072 C 
BRANCH  21  22
ATOM     22  N   UNL     1      -3.315   3.122  25.167  0.00  0.00    -0.272 NA
ATOM     23  C   UNL     1      -2.549   3.305  25.444  0.00  0.00    +0.074 C 
ATOM     24  C   UNL     1      -2.767   4.050  26.055  0.00  0.00    +0.039 C 
ATOM     25  C   UNL     1      -2.779   4.667  26.586  0.00  0.00    +0.011 C 
ATOM     26  C   UNL     1      -3.241   4.305  26.202  0.00  0.00    +0.054 C 
ATOM     27  C   UNL     1      -3.014   3.586  25.615  0.00  0.00    +0.078 C 
ATOM     28  C   UNL     1      -4.139   4.251  26.016  0.00  0.00    +0.041 A 
ATOM     29  C   UNL     1      -4.857   4.607  26.213  0.00  0.00    +0.013 A 
ATOM     30  C   UNL     1      -5.558   4.338  25.872  0.00  0.00    +0.006 A 
ATOM     31  C   UNL     1      -5.542   3.712  25.333  0.00  0.00    +0.061 A 
ATOM     32  C   UNL     1      -4.824   3.356  25.136  0.00  0.00    +0.261 A 
ATOM     33  O   UNL     1      -4.808   2.731  24.598  0.00  0.00    -0.267 OA
ATOM     34  N   UNL     1      -4.123   3.625  25.477  0.00  0.00    -0.299 N 
ATOM     35  C   UNL     1      -3.704   3.986  25.854  0.00  0.00    +0.110 C 
ENDBRANCH  21  22
ENDBRANCH  20  21
ENDBRANCH  19  20
TORSDOF 7
ENDMDL
MODEL 8
REMARK VINA RESULT:      -9.3      2.739      4.744
REMARK  Name = 
REMARK  7 active torsions:
REMARK  status: ('A' for Active; 'I' for Inactive)
REMARK    1  A    between atoms: O_2  and  C_3
REMARK    2  A    between atoms: C_6  and  C_9
REMARK    3  A    between atoms: C_14  and  C_15
REMARK    4  A    between atoms: C_15  and  C_16
REMARK    5  A    between atoms: C_19  and  C_20
REMARK    6  A    between atoms: C_20  and  C_21
REMARK    7  A    between atoms: C_21  and  N_22
REMARK                            x       y       z     vdW  Elec       q    Type
REMARK                         _______ _______ _______ _____ _____    ______ ____
ROOT
ATOM      9  C   UNL     1       0.419   1.207  23.623  0.00  0.00    +0.249 C 
ATOM     10  O   UNL     1       0.303   2.018  23.526  0.00  0.00    -0.270 OA
ATOM     11  N   UNL     1      -0.143   0.755  24.025  0.00  0.00    -0.276 N 
ATOM     12  C   UNL     1      -0.027  -0.056  24.121  0.00  0.00    +0.094 C 
ATOM     13  C   UNL     1      -0.589  -0.507  24.523  0.00  0.00    +0.022 C 
ATOM     14  C   UNL     1      -1.265  -0.148  24.829  0.00  0.00    +0.015 C 
ATOM     19  C   UNL     1      -1.381   0.664  24.732  0.00  0.00    +0.022 C 
ATOM     36  C   UNL     1      -0.819   1.116  24.330  0.00  0.00    +0.094 C 
ENDROOT
BRANCH   9   6
ATOM      3  C   UNL     1       2.450   0.127  22.708  0.00  0.00    +0.139 A 
ATOM      4  C   UNL     1       1.707  -0.066  22.405  0.00  0.00    +0.037 A 
ATOM      5  C   UNL     1       1.030   0.293  22.709  0.00  0.00    +0.008 A 
ATOM      6  C   UNL     1       1.096   0.847  23.318  0.00  0.00    +0.054 A 
ATOM      7  C   UNL     1       1.839   1.041  23.621  0.00  0.00    +0.008 A 
ATOM      8  C   UNL     1       2.515   0.681  23.316  0.00  0.00    +0.037 A 
BRANCH   3   2
ATOM      1  C   UNL     1       3.858   0.146  22.463  0.00  0.00    +0.252 C 
ATOM      2  O   UNL     1       3.126  -0.232  22.404  0.00  0.00    -0.471 OA
ENDBRANCH   3   2
ENDBRANCH   9   6
BRANCH  14  15
ATOM     15  C   UNL     1      -1.827  -0.599  25.230  0.00  0.00    +0.114 C 
BRANCH  15  16
ATOM     16  C   UNL     1      -1.856  -1.416  25.118  0.00  0.00    +0.365 C 
ATOM     17  O   UNL     1      -2.376  -1.738  24.563  0.00  0.00    -0.246 OA
ATOM     18  O   UNL     1      -1.367  -1.911  25.561  0.00  0.00    -0.246 OA
ENDBRANCH  15  16
ENDBRANCH  14  15
BRANCH  19  20
ATOM     20  C   UNL     1      -2.058   1.023  25.037  0.00  0.00    +0.019 C 
BRANCH  20  21
ATOM     21  C   UNL     1      -2.227   1.809  24.851  0.00  0.00    +0.072 C 
BRANCH  21  22
ATOM     22  N   UNL     1      -2.855   1.987  24.346  0.00  0.00    -0.272 NA
ATOM     23  C   UNL     1      -3.403   1.896  23.722  0.00  0.00    +0.074 C 
ATOM     24  C   UNL     1      -3.913   2.736  23.827  0.00  0.00    +0.039 C 
ATOM     25  C   UNL     1      -4.423   3.370  23.780  0.00  0.00    +0.011 C 
ATOM     26  C   UNL     1      -3.882   3.167  24.179  0.00  0.00    +0.054 C 
ATOM     27  C   UNL     1      -3.398   2.352  24.065  0.00  0.00    +0.078 C 
ATOM     28  C   UNL     1      -3.374   3.437  24.895  0.00  0.00    +0.041 A 
ATOM     29  C   UNL     1      -3.302   4.061  25.431  0.00  0.00    +0.013 A 
ATOM     30  C   UNL     1      -2.716   4.040  26.011  0.00  0.00    +0.006 A 
ATOM     31  C   UNL     1      -2.202   3.396  26.056  0.00  0.00    +0.061 A 
ATOM     32  C   UNL     1      -2.274   2.773  25.520  0.00  0.00    +0.261 A 
ATOM     33  O   UNL     1      -1.759   2.130  25.565  0.00  0.00    -0.267 OA
ATOM     34  N   UNL     1      -2.860   2.794  24.940  0.00  0.00    -0.299 N 
ATOM     35  C   UNL     1      -3.377   3.010  24.575  0.00  0.00    +0.110 C 
ENDBRANCH  21  22
ENDBRANCH  20  21
ENDBRANCH  19  20
TORSDOF 7
ENDMDL
