REMARK  Name = 
REMARK  8 active torsions:
REMARK  status: ('A' for Active; 'I' for Inactive)
REMARK    1  A    between atoms: C_2  and  C_3
REMARK    2  A    between atoms: C_3  and  N_4
REMARK    3  A    between atoms: C_8  and  C_9
REMARK    4  A    between atoms: C_11  and  C_14
REMARK    5  A    between atoms: C_17  and  N_18
REMARK    6  A    between atoms: N_18  and  C_19
REMARK    7  A    between atoms: C_19  and  C_20
REMARK    8  A    between atoms: C_20  and  O_21
REMARK                            x       y       z     vdW  Elec       q    Type
REMARK                         _______ _______ _______ _____ _____    ______ ____
ROOT
ATOM      9  C   UNL     1      -3.449   0.960   0.000  0.00  0.00    +0.251 A 
ATOM     10  N   UNL     1      -2.897   1.573   0.000  0.00  0.00    -0.190 NA
ATOM     11  C   UNL     1      -2.143   1.238   0.000  0.00  0.00    +0.205 A 
ATOM     12  N   UNL     1      -2.230   0.417   0.000  0.00  0.00    -0.056 NA
ATOM     13  O   UNL     1      -3.037   0.245   0.000  0.00  0.00    -0.336 OA
ENDROOT
BRANCH  11  14
ATOM     14  C   UNL     1      -1.429   1.650   0.000  0.00  0.00    +0.058 A 
ATOM     15  C   UNL     1      -1.429   2.475   0.000  0.00  0.00    +0.008 A 
ATOM     16  C   UNL     1      -0.715   2.888   0.000  0.00  0.00    +0.036 A 
ATOM     17  C   UNL     1       0.000   2.475   0.000  0.00  0.00    +0.148 A 
ATOM     23  N   UNL     1       0.000   1.650   0.000  0.00  0.00    -0.228 NA
ATOM     24  C   UNL     1      -0.715   1.238   0.000  0.00  0.00    +0.103 A 
BRANCH  17  18
ATOM     18  N   UNL     1       0.715   2.888   0.000  0.00  0.00    -0.218 NA
BRANCH  18  19
ATOM     19  C   UNL     1       1.429   2.475   0.000  0.00  0.00    +0.146 C 
BRANCH  19  20
ATOM     20  C   UNL     1       2.143   2.888   0.000  0.00  0.00    +0.166 C 
BRANCH  20  21
ATOM     21  O   UNL     1       2.858   2.475   0.000  0.00  0.00    -0.349 OA
ATOM     22  C   UNL     1       3.572   2.888   0.000  0.00  0.00    +0.174 C 
ENDBRANCH  20  21
ENDBRANCH  19  20
ENDBRANCH  18  19
ENDBRANCH  17  18
ENDBRANCH  11  14
BRANCH   9   8
ATOM      4  N   UNL     1      -4.822   0.433   0.000  0.00  0.00    -0.266 NA
ATOM      5  C   UNL     1      -5.575   0.769   0.000  0.00  0.00    +0.073 C 
ATOM      6  C   UNL     1      -5.489   1.589   0.000  0.00  0.00    +0.019 C 
ATOM      7  C   UNL     1      -4.682   1.761   0.000  0.00  0.00    +0.027 C 
ATOM      8  C   UNL     1      -4.270   1.046   0.000  0.00  0.00    +0.138 C 
BRANCH   4   3
ATOM      3  C   UNL     1      -4.650  -0.374   0.000  0.00  0.00    +0.072 C 
BRANCH   3   2
ATOM      1  C   UNL     1      -5.092  -1.733   0.000  0.00  0.00    +0.001 C 
ATOM      2  C   UNL     1      -5.263  -0.926   0.000  0.00  0.00    +0.017 C 
ENDBRANCH   3   2
ENDBRANCH   4   3
ENDBRANCH   9   8
TORSDOF 8
