MODEL 1
REMARK VINA RESULT:     -14.3      0.000      0.000
REMARK  Name = 
REMARK  4 active torsions:
REMARK  status: ('A' for Active; 'I' for Inactive)
REMARK    1  A    between atoms: N_2  and  C_4
REMARK    2  A    between atoms: C_6  and  C_10
REMARK    3  A    between atoms: C_13  and  C_15
REMARK    4  A    between atoms: N_23  and  C_24
REMARK                            x       y       z     vdW  Elec       q    Type
REMARK                         _______ _______ _______ _____ _____    ______ ____
ROOT
ATOM     15  C   UNL     1      -3.761   1.910  24.515  0.00  0.00    +0.162 C 
ATOM     16  C   UNL     1      -4.018   2.679  24.663  0.00  0.00    +0.077 C 
ATOM     17  C   UNL     1      -4.719   2.808  25.079  0.00  0.00    +0.078 A 
ATOM     18  C   UNL     1      -5.163   2.166  25.348  0.00  0.00    +0.094 A 
ATOM     19  C   UNL     1      -4.905   1.396  25.199  0.00  0.00    +0.143 C 
ATOM     20  N   UNL     1      -4.205   1.268  24.783  0.00  0.00    -0.249 N 
ATOM     21  C   UNL     1      -3.948   0.498  24.635  0.00  0.00    +0.328 C 
ATOM     22  O   UNL     1      -3.247   0.371  24.219  0.00  0.00    -0.250 OA
ATOM     23  N   UNL     1      -4.392  -0.143  24.904  0.00  0.00    -0.162 NA
ATOM     31  N   UNL     1      -5.825   2.460  25.740  0.00  0.00    -0.225 NA
ATOM     32  C   UNL     1      -5.792   3.284  25.715  0.00  0.00    +0.198 A 
ATOM     33  N   UNL     1      -5.108   3.498  25.307  0.00  0.00    -0.227 NA
ENDROOT
BRANCH  23  24
ATOM     24  C   UNL     1      -4.134  -0.913  24.755  0.00  0.00    +0.077 A 
ATOM     25  C   UNL     1      -3.626  -1.287  25.287  0.00  0.00    +0.017 A 
ATOM     26  C   UNL     1      -3.368  -2.057  25.139  0.00  0.00    +0.004 A 
ATOM     27  C   UNL     1      -3.618  -2.452  24.459  0.00  0.00    +0.030 A 
ATOM     28  C   UNL     1      -4.126  -2.078  23.928  0.00  0.00    +0.141 A 
ATOM     29  F   UNL     1      -4.376  -2.474  23.249  0.00  0.00    -0.204 F 
ATOM     30  C   UNL     1      -4.384  -1.308  24.076  0.00  0.00    +0.046 A 
ENDBRANCH  23  24
BRANCH  15  13
ATOM     10  C   UNL     1      -1.771   1.592  23.812  0.00  0.00    +0.203 A 
ATOM     11  N   UNL     1      -2.194   1.578  23.104  0.00  0.00    -0.056 NA
ATOM     12  O   UNL     1      -2.991   1.695  23.282  0.00  0.00    -0.335 OA
ATOM     13  C   UNL     1      -3.061   1.782  24.099  0.00  0.00    +0.255 A 
ATOM     14  N   UNL     1      -2.306   1.718  24.427  0.00  0.00    -0.189 NA
BRANCH  10   6
ATOM      4  C   UNL     1       0.221   0.706  23.709  0.00  0.00    +0.143 A 
ATOM      5  C   UNL     1      -0.594   0.802  23.629  0.00  0.00    +0.027 A 
ATOM      6  C   UNL     1      -0.955   1.496  23.892  0.00  0.00    +0.041 A 
ATOM      7  C   UNL     1      -0.501   2.093  24.233  0.00  0.00    +0.003 A 
ATOM      8  C   UNL     1       0.315   1.998  24.313  0.00  0.00    +0.002 A 
ATOM      9  C   UNL     1       0.676   1.303  24.051  0.00  0.00    +0.024 A 
BRANCH   4   2
ATOM      1  O   UNL     1       1.148   0.042  22.847  0.00  0.00    -0.126 OA
ATOM      2  N   UNL     1       0.582   0.012  23.447  0.00  0.00    +0.058 N 
ATOM      3  O   UNL     1       0.378  -0.713  23.785  0.00  0.00    -0.126 OA
ENDBRANCH   4   2
ENDBRANCH  10   6
ENDBRANCH  15  13
TORSDOF 4
ENDMDL
MODEL 2
REMARK VINA RESULT:     -13.7      1.926      3.697
REMARK  Name = 
REMARK  4 active torsions:
REMARK  status: ('A' for Active; 'I' for Inactive)
REMARK    1  A    between atoms: N_2  and  C_4
REMARK    2  A    between atoms: C_6  and  C_10
REMARK    3  A    between atoms: C_13  and  C_15
REMARK    4  A    between atoms: N_23  and  C_24
REMARK                            x       y       z     vdW  Elec       q    Type
REMARK                         _______ _______ _______ _____ _____    ______ ____
ROOT
ATOM     15  C   UNL     1      -4.191   1.904  24.763  0.00  0.00    +0.162 C 
ATOM     16  C   UNL     1      -5.002   2.027  24.852  0.00  0.00    +0.077 C 
ATOM     17  C   UNL     1      -5.279   2.709  25.223  0.00  0.00    +0.078 A 
ATOM     18  C   UNL     1      -4.744   3.270  25.507  0.00  0.00    +0.094 A 
ATOM     19  C   UNL     1      -3.932   3.148  25.419  0.00  0.00    +0.143 C 
ATOM     20  N   UNL     1      -3.656   2.465  25.047  0.00  0.00    -0.249 N 
ATOM     21  C   UNL     1      -2.845   2.344  24.959  0.00  0.00    +0.328 C 
ATOM     22  O   UNL     1      -2.569   1.660  24.587  0.00  0.00    -0.250 OA
ATOM     23  N   UNL     1      -2.311   2.904  25.242  0.00  0.00    -0.162 NA
ATOM     31  N   UNL     1      -5.175   3.885  25.847  0.00  0.00    -0.225 NA
ATOM     32  C   UNL     1      -5.977   3.705  25.774  0.00  0.00    +0.198 A 
ATOM     33  N   UNL     1      -6.040   2.978  25.388  0.00  0.00    -0.227 NA
ENDROOT
BRANCH  23  24
ATOM     24  C   UNL     1      -1.499   2.781  25.154  0.00  0.00    +0.077 A 
ATOM     25  C   UNL     1      -1.122   3.008  24.456  0.00  0.00    +0.017 A 
ATOM     26  C   UNL     1      -0.311   2.886  24.366  0.00  0.00    +0.004 A 
ATOM     27  C   UNL     1       0.123   2.537  24.976  0.00  0.00    +0.030 A 
ATOM     28  C   UNL     1      -0.255   2.310  25.673  0.00  0.00    +0.141 A 
ATOM     29  F   UNL     1       0.179   1.961  26.281  0.00  0.00    -0.204 F 
ATOM     30  C   UNL     1      -1.066   2.432  25.762  0.00  0.00    +0.046 A 
ENDBRANCH  23  24
BRANCH  15  13
ATOM     10  C   UNL     1      -3.595  -0.051  24.150  0.00  0.00    +0.203 A 
ATOM     11  N   UNL     1      -3.383   0.394  23.489  0.00  0.00    -0.056 NA
ATOM     12  O   UNL     1      -3.581   1.181  23.639  0.00  0.00    -0.335 OA
ATOM     13  C   UNL     1      -3.915   1.222  24.392  0.00  0.00    +0.255 A 
ATOM     14  N   UNL     1      -3.924   0.460  24.708  0.00  0.00    -0.189 NA
BRANCH  10   6
ATOM      4  C   UNL     1      -2.647  -1.989  24.485  0.00  0.00    +0.143 A 
ATOM      5  C   UNL     1      -2.747  -1.175  24.397  0.00  0.00    +0.027 A 
ATOM      6  C   UNL     1      -3.496  -0.866  24.238  0.00  0.00    +0.041 A 
ATOM      7  C   UNL     1      -4.144  -1.370  24.168  0.00  0.00    +0.003 A 
ATOM      8  C   UNL     1      -4.044  -2.185  24.256  0.00  0.00    +0.002 A 
ATOM      9  C   UNL     1      -3.296  -2.494  24.415  0.00  0.00    +0.024 A 
BRANCH   4   2
ATOM      1  O   UNL     1      -1.583  -2.884  24.158  0.00  0.00    -0.126 OA
ATOM      2  N   UNL     1      -1.899  -2.298  24.644  0.00  0.00    +0.058 N 
ATOM      3  O   UNL     1      -1.467  -2.020  25.290  0.00  0.00    -0.126 OA
ENDBRANCH   4   2
ENDBRANCH  10   6
ENDBRANCH  15  13
TORSDOF 4
ENDMDL
MODEL 3
REMARK VINA RESULT:     -13.3      2.058      5.030
REMARK  Name = 
REMARK  4 active torsions:
REMARK  status: ('A' for Active; 'I' for Inactive)
REMARK    1  A    between atoms: N_2  and  C_4
REMARK    2  A    between atoms: C_6  and  C_10
REMARK    3  A    between atoms: C_13  and  C_15
REMARK    4  A    between atoms: N_23  and  C_24
REMARK                            x       y       z     vdW  Elec       q    Type
REMARK                         _______ _______ _______ _____ _____    ______ ____
ROOT
ATOM     15  C   UNL     1      -3.077  -0.469  24.417  0.00  0.00    +0.162 C 
ATOM     16  C   UNL     1      -3.476  -1.184  24.321  0.00  0.00    +0.077 C 
ATOM     17  C   UNL     1      -3.075  -1.898  24.419  0.00  0.00    +0.078 A 
ATOM     18  C   UNL     1      -2.273  -1.897  24.614  0.00  0.00    +0.094 A 
ATOM     19  C   UNL     1      -1.873  -1.181  24.711  0.00  0.00    +0.143 C 
ATOM     20  N   UNL     1      -2.276  -0.468  24.612  0.00  0.00    -0.249 N 
ATOM     21  C   UNL     1      -1.875   0.247  24.709  0.00  0.00    +0.328 C 
ATOM     22  O   UNL     1      -2.278   0.961  24.611  0.00  0.00    -0.250 OA
ATOM     23  N   UNL     1      -1.074   0.248  24.904  0.00  0.00    -0.162 NA
ATOM     31  N   UNL     1      -2.025  -2.680  24.675  0.00  0.00    -0.225 NA
ATOM     32  C   UNL     1      -2.672  -3.166  24.518  0.00  0.00    +0.198 A 
ATOM     33  N   UNL     1      -3.321  -2.683  24.360  0.00  0.00    -0.227 NA
ENDROOT
BRANCH  23  24
ATOM     24  C   UNL     1      -0.675   0.964  25.001  0.00  0.00    +0.077 A 
ATOM     25  C   UNL     1      -0.253   1.289  24.370  0.00  0.00    +0.017 A 
ATOM     26  C   UNL     1       0.146   2.005  24.466  0.00  0.00    +0.004 A 
ATOM     27  C   UNL     1       0.124   2.395  25.193  0.00  0.00    +0.030 A 
ATOM     28  C   UNL     1      -0.297   2.070  25.823  0.00  0.00    +0.141 A 
ATOM     29  F   UNL     1      -0.318   2.460  26.549  0.00  0.00    -0.204 F 
ATOM     30  C   UNL     1      -0.696   1.354  25.727  0.00  0.00    +0.046 A 
ENDBRANCH  23  24
BRANCH  15  13
ATOM     10  C   UNL     1      -4.269   1.298  24.538  0.00  0.00    +0.203 A 
ATOM     11  N   UNL     1      -3.924   1.389  23.795  0.00  0.00    -0.056 NA
ATOM     12  O   UNL     1      -3.436   0.738  23.660  0.00  0.00    -0.335 OA
ATOM     13  C   UNL     1      -3.478   0.244  24.319  0.00  0.00    +0.255 A 
ATOM     14  N   UNL     1      -3.994   0.590  24.863  0.00  0.00    -0.189 NA
BRANCH  10   6
ATOM      4  C   UNL     1      -5.077   3.106  25.455  0.00  0.00    +0.143 A 
ATOM      5  C   UNL     1      -4.550   2.583  25.098  0.00  0.00    +0.027 A 
ATOM      6  C   UNL     1      -4.797   1.821  24.897  0.00  0.00    +0.041 A 
ATOM      7  C   UNL     1      -5.571   1.584  25.053  0.00  0.00    +0.003 A 
ATOM      8  C   UNL     1      -6.099   2.108  25.411  0.00  0.00    +0.002 A 
ATOM      9  C   UNL     1      -5.852   2.869  25.612  0.00  0.00    +0.024 A 
BRANCH   4   2
ATOM      1  O   UNL     1      -4.110   3.979  26.043  0.00  0.00    -0.126 OA
ATOM      2  N   UNL     1      -4.830   3.867  25.656  0.00  0.00    +0.058 N 
ATOM      3  O   UNL     1      -5.304   4.517  25.470  0.00  0.00    -0.126 OA
ENDBRANCH   4   2
ENDBRANCH  10   6
ENDBRANCH  15  13
TORSDOF 4
ENDMDL
MODEL 4
REMARK VINA RESULT:     -13.1      2.116      4.546
REMARK  Name = 
REMARK  4 active torsions:
REMARK  status: ('A' for Active; 'I' for Inactive)
REMARK    1  A    between atoms: N_2  and  C_4
REMARK    2  A    between atoms: C_6  and  C_10
REMARK    3  A    between atoms: C_13  and  C_15
REMARK    4  A    between atoms: N_23  and  C_24
REMARK                            x       y       z     vdW  Elec       q    Type
REMARK                         _______ _______ _______ _____ _____    ______ ____
ROOT
ATOM     15  C   UNL     1      -0.054   1.071  24.341  0.00  0.00    +0.162 C 
ATOM     16  C   UNL     1       0.683   1.182  23.989  0.00  0.00    +0.077 C 
ATOM     17  C   UNL     1       0.983   0.614  23.471  0.00  0.00    +0.078 A 
ATOM     18  C   UNL     1       0.546  -0.065  23.307  0.00  0.00    +0.094 A 
ATOM     19  C   UNL     1      -0.193  -0.177  23.659  0.00  0.00    +0.143 C 
ATOM     20  N   UNL     1      -0.492   0.392  24.177  0.00  0.00    -0.249 N 
ATOM     21  C   UNL     1      -1.229   0.280  24.529  0.00  0.00    +0.328 C 
ATOM     22  O   UNL     1      -1.529   0.849  25.047  0.00  0.00    -0.250 OA
ATOM     23  N   UNL     1      -1.667  -0.400  24.364  0.00  0.00    -0.162 NA
ATOM     31  N   UNL     1       0.979  -0.526  22.778  0.00  0.00    -0.225 NA
ATOM     32  C   UNL     1       1.685  -0.132  22.616  0.00  0.00    +0.198 A 
ATOM     33  N   UNL     1       1.687   0.573  23.045  0.00  0.00    -0.227 NA
ENDROOT
BRANCH  23  24
ATOM     24  C   UNL     1      -2.404  -0.511  24.717  0.00  0.00    +0.077 A 
ATOM     25  C   UNL     1      -3.085  -0.228  24.347  0.00  0.00    +0.017 A 
ATOM     26  C   UNL     1      -3.823  -0.338  24.698  0.00  0.00    +0.004 A 
ATOM     27  C   UNL     1      -3.880  -0.731  25.422  0.00  0.00    +0.030 A 
ATOM     28  C   UNL     1      -3.199  -1.014  25.793  0.00  0.00    +0.141 A 
ATOM     29  F   UNL     1      -3.257  -1.407  26.515  0.00  0.00    -0.204 F 
ATOM     30  C   UNL     1      -2.462  -0.903  25.440  0.00  0.00    +0.046 A 
ENDBRANCH  23  24
BRANCH  15  13
ATOM     10  C   UNL     1      -0.952   2.734  25.334  0.00  0.00    +0.203 A 
ATOM     11  N   UNL     1      -0.679   2.294  25.976  0.00  0.00    -0.056 NA
ATOM     12  O   UNL     1      -0.309   1.617  25.682  0.00  0.00    -0.335 OA
ATOM     13  C   UNL     1      -0.354   1.639  24.858  0.00  0.00    +0.255 A 
ATOM     14  N   UNL     1      -0.751   2.330  24.643  0.00  0.00    -0.189 NA
BRANCH  10   6
ATOM      4  C   UNL     1      -2.533   4.193  25.705  0.00  0.00    +0.143 A 
ATOM      5  C   UNL     1      -2.129   3.476  25.664  0.00  0.00    +0.027 A 
ATOM      6  C   UNL     1      -1.356   3.453  25.375  0.00  0.00    +0.041 A 
ATOM      7  C   UNL     1      -0.987   4.147  25.128  0.00  0.00    +0.003 A 
ATOM      8  C   UNL     1      -1.391   4.866  25.169  0.00  0.00    +0.002 A 
ATOM      9  C   UNL     1      -2.164   4.889  25.457  0.00  0.00    +0.024 A 
BRANCH   4   2
ATOM      1  O   UNL     1      -3.442   4.345  26.796  0.00  0.00    -0.126 OA
ATOM      2  N   UNL     1      -3.305   4.216  25.993  0.00  0.00    +0.058 N 
ATOM      3  O   UNL     1      -3.941   4.111  25.477  0.00  0.00    -0.126 OA
ENDBRANCH   4   2
ENDBRANCH  10   6
ENDBRANCH  15  13
TORSDOF 4
ENDMDL
MODEL 5
REMARK VINA RESULT:     -13.0      1.367      4.279
REMARK  Name = 
REMARK  4 active torsions:
REMARK  status: ('A' for Active; 'I' for Inactive)
REMARK    1  A    between atoms: N_2  and  C_4
REMARK    2  A    between atoms: C_6  and  C_10
REMARK    3  A    between atoms: C_13  and  C_15
REMARK    4  A    between atoms: N_23  and  C_24
REMARK                            x       y       z     vdW  Elec       q    Type
REMARK                         _______ _______ _______ _____ _____    ______ ____
ROOT
ATOM     15  C   UNL     1      -1.676   1.358  24.105  0.00  0.00    +0.162 C 
ATOM     16  C   UNL     1      -1.076   1.899  23.943  0.00  0.00    +0.077 C 
ATOM     17  C   UNL     1      -0.286   1.662  23.978  0.00  0.00    +0.078 A 
ATOM     18  C   UNL     1      -0.098   0.883  24.175  0.00  0.00    +0.094 A 
ATOM     19  C   UNL     1      -0.699   0.342  24.338  0.00  0.00    +0.143 C 
ATOM     20  N   UNL     1      -1.488   0.580  24.302  0.00  0.00    -0.249 N 
ATOM     21  C   UNL     1      -2.089   0.038  24.465  0.00  0.00    +0.328 C 
ATOM     22  O   UNL     1      -2.879   0.276  24.430  0.00  0.00    -0.250 OA
ATOM     23  N   UNL     1      -1.901  -0.740  24.662  0.00  0.00    -0.162 NA
ATOM     31  N   UNL     1       0.723   0.809  24.166  0.00  0.00    -0.225 NA
ATOM     32  C   UNL     1       1.043   1.542  23.963  0.00  0.00    +0.198 A 
ATOM     33  N   UNL     1       0.419   2.068  23.847  0.00  0.00    -0.227 NA
ENDROOT
BRANCH  23  24
ATOM     24  C   UNL     1      -2.503  -1.281  24.825  0.00  0.00    +0.077 A 
ATOM     25  C   UNL     1      -2.830  -1.318  25.581  0.00  0.00    +0.017 A 
ATOM     26  C   UNL     1      -3.432  -1.858  25.745  0.00  0.00    +0.004 A 
ATOM     27  C   UNL     1      -3.706  -2.362  25.151  0.00  0.00    +0.030 A 
ATOM     28  C   UNL     1      -3.379  -2.325  24.394  0.00  0.00    +0.141 A 
ATOM     29  F   UNL     1      -3.653  -2.828  23.802  0.00  0.00    -0.204 F 
ATOM     30  C   UNL     1      -2.777  -1.784  24.232  0.00  0.00    +0.046 A 
ENDBRANCH  23  24
BRANCH  15  13
ATOM     10  C   UNL     1      -3.641   2.147  24.382  0.00  0.00    +0.203 A 
ATOM     11  N   UNL     1      -3.720   1.775  23.651  0.00  0.00    -0.056 NA
ATOM     12  O   UNL     1      -2.994   1.434  23.458  0.00  0.00    -0.335 OA
ATOM     13  C   UNL     1      -2.465   1.596  24.070  0.00  0.00    +0.255 A 
ATOM     14  N   UNL     1      -2.865   2.037  24.642  0.00  0.00    -0.189 NA
BRANCH  10   6
ATOM      4  C   UNL     1      -5.477   2.562  25.487  0.00  0.00    +0.143 A 
ATOM      5  C   UNL     1      -4.886   2.152  25.084  0.00  0.00    +0.027 A 
ATOM      6  C   UNL     1      -4.232   2.558  24.785  0.00  0.00    +0.041 A 
ATOM      7  C   UNL     1      -4.171   3.374  24.887  0.00  0.00    +0.003 A 
ATOM      8  C   UNL     1      -4.763   3.785  25.290  0.00  0.00    +0.002 A 
ATOM      9  C   UNL     1      -5.416   3.379  25.589  0.00  0.00    +0.024 A 
BRANCH   4   2
ATOM      1  O   UNL     1      -6.653   1.780  25.273  0.00  0.00    -0.126 OA
ATOM      2  N   UNL     1      -6.130   2.157  25.786  0.00  0.00    +0.058 N 
ATOM      3  O   UNL     1      -6.259   2.128  26.601  0.00  0.00    -0.126 OA
ENDBRANCH   4   2
ENDBRANCH  10   6
ENDBRANCH  15  13
TORSDOF 4
ENDMDL
MODEL 6
REMARK VINA RESULT:     -12.7      2.073      3.630
REMARK  Name = 
REMARK  4 active torsions:
REMARK  status: ('A' for Active; 'I' for Inactive)
REMARK    1  A    between atoms: N_2  and  C_4
REMARK    2  A    between atoms: C_6  and  C_10
REMARK    3  A    between atoms: C_13  and  C_15
REMARK    4  A    between atoms: N_23  and  C_24
REMARK                            x       y       z     vdW  Elec       q    Type
REMARK                         _______ _______ _______ _____ _____    ______ ____
ROOT
ATOM     15  C   UNL     1      -2.084   2.611  24.647  0.00  0.00    +0.162 C 
ATOM     16  C   UNL     1      -1.360   3.003  24.609  0.00  0.00    +0.077 C 
ATOM     17  C   UNL     1      -1.306   3.795  24.835  0.00  0.00    +0.078 A 
ATOM     18  C   UNL     1      -1.978   4.195  25.098  0.00  0.00    +0.094 A 
ATOM     19  C   UNL     1      -2.704   3.803  25.135  0.00  0.00    +0.143 C 
ATOM     20  N   UNL     1      -2.756   3.011  24.910  0.00  0.00    -0.249 N 
ATOM     21  C   UNL     1      -3.481   2.619  24.947  0.00  0.00    +0.328 C 
ATOM     22  O   UNL     1      -3.533   1.827  24.722  0.00  0.00    -0.250 OA
ATOM     23  N   UNL     1      -4.153   3.019  25.210  0.00  0.00    -0.162 NA
ATOM     31  N   UNL     1      -1.759   4.968  25.282  0.00  0.00    -0.225 NA
ATOM     32  C   UNL     1      -0.952   5.047  25.134  0.00  0.00    +0.198 A 
ATOM     33  N   UNL     1      -0.673   4.322  24.857  0.00  0.00    -0.227 NA
ENDROOT
BRANCH  23  24
ATOM     24  C   UNL     1      -4.878   2.626  25.247  0.00  0.00    +0.077 A 
ATOM     25  C   UNL     1      -5.287   2.450  24.553  0.00  0.00    +0.017 A 
ATOM     26  C   UNL     1      -6.011   2.057  24.589  0.00  0.00    +0.004 A 
ATOM     27  C   UNL     1      -6.327   1.840  25.320  0.00  0.00    +0.030 A 
ATOM     28  C   UNL     1      -5.918   2.017  26.015  0.00  0.00    +0.141 A 
ATOM     29  F   UNL     1      -6.234   1.801  26.745  0.00  0.00    -0.204 F 
ATOM     30  C   UNL     1      -5.193   2.410  25.978  0.00  0.00    +0.046 A 
ENDBRANCH  23  24
BRANCH  15  13
ATOM     10  C   UNL     1      -2.058   0.487  24.436  0.00  0.00    +0.203 A 
ATOM     11  N   UNL     1      -2.379   0.715  23.712  0.00  0.00    -0.056 NA
ATOM     12  O   UNL     1      -2.427   1.539  23.703  0.00  0.00    -0.335 OA
ATOM     13  C   UNL     1      -2.137   1.820  24.421  0.00  0.00    +0.255 A 
ATOM     14  N   UNL     1      -1.908   1.170  24.876  0.00  0.00    -0.189 NA
BRANCH  10   6
ATOM      4  C   UNL     1      -2.380  -1.614  24.931  0.00  0.00    +0.143 A 
ATOM      5  C   UNL     1      -2.525  -0.840  24.687  0.00  0.00    +0.027 A 
ATOM      6  C   UNL     1      -1.911  -0.288  24.680  0.00  0.00    +0.041 A 
ATOM      7  C   UNL     1      -1.154  -0.510  24.918  0.00  0.00    +0.003 A 
ATOM      8  C   UNL     1      -1.008  -1.284  25.162  0.00  0.00    +0.002 A 
ATOM      9  C   UNL     1      -1.621  -1.837  25.168  0.00  0.00    +0.024 A 
BRANCH   4   2
ATOM      1  O   UNL     1      -3.074  -2.699  24.314  0.00  0.00    -0.126 OA
ATOM      2  N   UNL     1      -2.992  -2.167  24.938  0.00  0.00    +0.058 N 
ATOM      3  O   UNL     1      -3.522  -2.186  25.570  0.00  0.00    -0.126 OA
ENDBRANCH   4   2
ENDBRANCH  10   6
ENDBRANCH  15  13
TORSDOF 4
ENDMDL
