REMARK  Name = 
REMARK  8 active torsions:
REMARK  status: ('A' for Active; 'I' for Inactive)
REMARK    1  A    between atoms: O_2  and  C_3
REMARK    2  A    between atoms: C_3  and  C_5
REMARK    3  A    between atoms: C_5  and  N_6
REMARK    4  A    between atoms: C_5  and  C_34
REMARK    5  A    between atoms: C_7  and  C_9
REMARK    6  A    between atoms: C_10  and  N_22
REMARK    7  A    between atoms: C_14  and  C_16
REMARK    8  A    between atoms: N_25  and  C_26
REMARK                            x       y       z     vdW  Elec       q    Type
REMARK                         _______ _______ _______ _____ _____    ______ ____
ROOT
ATOM      9  C   UNL     1       4.306  -7.391   0.000  0.00  0.00    +0.174 C 
ATOM     10  C   UNL     1       5.059  -7.055   0.000  0.00  0.00    +0.126 C 
ATOM     11  C   UNL     1       5.612  -7.668   0.000  0.00  0.00    +0.045 C 
ATOM     12  C   UNL     1       5.199  -8.383   0.000  0.00  0.00    +0.096 C 
ATOM     13  N   UNL     1       4.392  -8.211   0.000  0.00  0.00    -0.267 N 
ATOM     14  C   UNL     1       3.779  -8.763   0.000  0.00  0.00    +0.265 C 
ATOM     15  O   UNL     1       2.994  -8.508   0.000  0.00  0.00    -0.268 OA
ENDROOT
BRANCH  14  16
ATOM     16  C   UNL     1       3.950  -9.570   0.000  0.00  0.00    +0.114 A 
ATOM     17  C   UNL     1       4.704  -9.906   0.000  0.00  0.00    +0.023 A 
ATOM     18  C   UNL     1       4.618 -10.726   0.000  0.00  0.00    +0.020 A 
ATOM     19  C   UNL     1       3.811 -10.898   0.000  0.00  0.00    +0.076 A 
ATOM     20  N   UNL     1       3.398 -10.183   0.000  0.00  0.00    -0.320 N 
ATOM     21  C   UNL     1       2.578 -10.097   0.000  0.00  0.00    +0.131 C 
ENDBRANCH  14  16
BRANCH  10  22
ATOM     22  N   UNL     1       5.231  -6.248   0.000  0.00  0.00    -0.186 NA
ATOM     23  C   UNL     1       6.016  -5.993   0.000  0.00  0.00    +0.344 C 
ATOM     24  O   UNL     1       6.629  -6.545   0.000  0.00  0.00    -0.249 OA
ATOM     25  N   UNL     1       6.187  -5.186   0.000  0.00  0.00    -0.159 NA
BRANCH  25  26
ATOM     26  C   UNL     1       6.972  -4.931   0.000  0.00  0.00    +0.102 A 
ATOM     27  C   UNL     1       7.143  -4.124   0.000  0.00  0.00    +0.158 A 
ATOM     28  F   UNL     1       6.530  -3.572   0.000  0.00  0.00    -0.203 F 
ATOM     29  C   UNL     1       7.928  -3.869   0.000  0.00  0.00    +0.061 A 
ATOM     30  C   UNL     1       8.541  -4.421   0.000  0.00  0.00    +0.142 A 
ATOM     31  F   UNL     1       9.326  -4.166   0.000  0.00  0.00    -0.204 F 
ATOM     32  C   UNL     1       8.370  -5.228   0.000  0.00  0.00    +0.031 A 
ATOM     33  C   UNL     1       7.585  -5.483   0.000  0.00  0.00    +0.021 A 
ENDBRANCH  25  26
ENDBRANCH  10  22
BRANCH   9   7
ATOM      6  N   UNL     1       2.877  -7.391   0.000  0.00  0.00    -0.194 NA
ATOM      7  C   UNL     1       3.591  -6.978   0.000  0.00  0.00    +0.262 C 
ATOM      8  O   UNL     1       3.591  -6.153   0.000  0.00  0.00    -0.271 OA
BRANCH   6   5
ATOM      5  C   UNL     1       2.162  -6.978   0.000  0.00  0.00    +0.193 C 
BRANCH   5  34
ATOM     34  C   UNL     1       2.162  -6.153   0.000  0.00  0.00    +0.031 C 
ATOM     35  C   UNL     1       2.877  -5.740   0.000  0.00  0.00    +0.002 C 
ATOM     36  C   UNL     1       1.448  -5.740   0.000  0.00  0.00    +0.002 C 
ENDBRANCH   5  34
BRANCH   5   3
ATOM      3  C   UNL     1       1.448  -7.391   0.000  0.00  0.00    +0.337 C 
ATOM      4  O   UNL     1       1.448  -8.216   0.000  0.00  0.00    -0.248 OA
BRANCH   3   2
ATOM      1  C   UNL     1       0.019  -7.391   0.000  0.00  0.00    +0.256 C 
ATOM      2  O   UNL     1       0.733  -6.978   0.000  0.00  0.00    -0.443 OA
ENDBRANCH   3   2
ENDBRANCH   5   3
ENDBRANCH   6   5
ENDBRANCH   9   7
TORSDOF 8
