REMARK  Name = 
REMARK  9 active torsions:
REMARK  status: ('A' for Active; 'I' for Inactive)
REMARK    1  A    between atoms: C_2  and  N_4
REMARK    2  A    between atoms: N_4  and  C_5
REMARK    3  A    between atoms: C_5  and  C_6
REMARK    4  A    between atoms: C_8  and  C_9
REMARK    5  A    between atoms: C_9  and  C_10
REMARK    6  A    between atoms: C_13  and  C_14
REMARK    7  A    between atoms: C_14  and  N_15
REMARK    8  A    between atoms: N_15  and  C_17
REMARK    9  A    between atoms: C_17  and  C_18
REMARK                            x       y       z     vdW  Elec       q    Type
REMARK                         _______ _______ _______ _____ _____    ______ ____
ROOT
ATOM     10  C   UNL     1       2.751  -2.537   0.000  0.00  0.00    +0.103 A 
ATOM     11  N   UNL     1       3.419  -3.022   0.000  0.00  0.00    -0.082 NA
ATOM     12  O   UNL     1       3.164  -3.806   0.000  0.00  0.00    -0.357 OA
ATOM     13  C   UNL     1       2.339  -3.806   0.000  0.00  0.00    +0.170 A 
ATOM     24  C   UNL     1       2.084  -3.022   0.000  0.00  0.00    +0.055 A 
ENDROOT
BRANCH  10   9
ATOM      9  C   UNL     1       2.751  -1.712   0.000  0.00  0.00    +0.079 C 
BRANCH   9   8
ATOM      6  C   UNL     1       4.895  -1.299   0.000  0.00  0.00    +0.163 C 
ATOM      7  O   UNL     1       4.180  -1.712   0.000  0.00  0.00    -0.354 OA
ATOM      8  C   UNL     1       3.466  -1.299   0.000  0.00  0.00    +0.121 C 
ATOM     25  C   UNL     1       3.466  -0.474   0.000  0.00  0.00    +0.033 C 
ATOM     26  C   UNL     1       4.180  -0.062   0.000  0.00  0.00    +0.038 C 
ATOM     27  C   UNL     1       4.895  -0.474   0.000  0.00  0.00    +0.180 C 
ATOM     28  O   UNL     1       5.609  -0.062   0.000  0.00  0.00    -0.220 OA
BRANCH   6   5
ATOM      5  C   UNL     1       5.609  -1.712   0.000  0.00  0.00    +0.121 C 
BRANCH   5   4
ATOM      4  N   UNL     1       6.324  -1.299   0.000  0.00  0.00    -0.217 NA
BRANCH   4   2
ATOM      1  C   UNL     1       7.753  -1.299   0.000  0.00  0.00    +0.019 C 
ATOM      2  C   UNL     1       7.038  -1.712   0.000  0.00  0.00    +0.073 C 
ATOM      3  C   UNL     1       7.038  -2.537   0.000  0.00  0.00    +0.019 C 
ENDBRANCH   4   2
ENDBRANCH   5   4
ENDBRANCH   6   5
ENDBRANCH   9   8
ENDBRANCH  10   9
BRANCH  13  14
ATOM     14  C   UNL     1       1.854  -4.474   0.000  0.00  0.00    +0.141 C 
BRANCH  14  15
ATOM     15  N   UNL     1       1.033  -4.387   0.000  0.00  0.00    -0.261 NA
ATOM     16  C   UNL     1       0.698  -3.634   0.000  0.00  0.00    +0.090 C 
BRANCH  15  17
ATOM     17  C   UNL     1       0.548  -5.055   0.000  0.00  0.00    +0.100 C 
BRANCH  17  18
ATOM     18  C   UNL     1      -0.272  -4.969   0.000  0.00  0.00    -0.006 A 
ATOM     19  C   UNL     1      -0.757  -5.636   0.000  0.00  0.00    -0.003 A 
ATOM     20  C   UNL     1      -1.577  -5.550   0.000  0.00  0.00    -0.000 A 
ATOM     21  C   UNL     1      -1.913  -4.796   0.000  0.00  0.00    -0.000 A 
ATOM     22  C   UNL     1      -1.428  -4.129   0.000  0.00  0.00    -0.000 A 
ATOM     23  C   UNL     1      -0.608  -4.215   0.000  0.00  0.00    -0.003 A 
ENDBRANCH  17  18
ENDBRANCH  15  17
ENDBRANCH  14  15
ENDBRANCH  13  14
TORSDOF 9
