MODEL 1
REMARK VINA RESULT:     -12.5      0.000      0.000
REMARK  Name = 
REMARK  3 active torsions:
REMARK  status: ('A' for Active; 'I' for Inactive)
REMARK    1  A    between atoms: O_2  and  C_3
REMARK    2  A    between atoms: C_10  and  C_15
REMARK    3  A    between atoms: C_15  and  C_17
REMARK                            x       y       z     vdW  Elec       q    Type
REMARK                         _______ _______ _______ _____ _____    ______ ____
ROOT
ATOM      3  C   UNL     1      -2.221  -1.193  24.662  0.00  0.00    +0.134 A 
ATOM      4  C   UNL     1      -2.934  -1.591  24.537  0.00  0.00    +0.032 A 
ATOM      5  C   UNL     1      -3.622  -1.164  24.385  0.00  0.00    -0.023 A 
ATOM      6  C   UNL     1      -4.335  -1.561  24.260  0.00  0.00    +0.031 C 
ATOM      7  C   UNL     1      -3.599  -0.340  24.358  0.00  0.00    -0.030 A 
ATOM      8  C   UNL     1      -4.288   0.088  24.205  0.00  0.00    +0.026 C 
ATOM      9  C   UNL     1      -4.265   0.911  24.178  0.00  0.00    +0.005 C 
ATOM     10  C   UNL     1      -3.552   1.309  24.303  0.00  0.00    +0.013 C 
ATOM     11  C   UNL     1      -2.864   0.882  24.455  0.00  0.00    +0.026 C 
ATOM     12  C   UNL     1      -2.886   0.057  24.483  0.00  0.00    -0.027 A 
ATOM     13  C   UNL     1      -2.198  -0.370  24.635  0.00  0.00    +0.008 A 
ATOM     14  C   UNL     1      -1.485   0.027  24.759  0.00  0.00    +0.034 C 
ENDROOT
BRANCH   3   2
ATOM      1  C   UNL     1      -1.502  -2.430  24.651  0.00  0.00    +0.252 C 
ATOM      2  O   UNL     1      -1.532  -1.621  24.814  0.00  0.00    -0.472 OA
ENDBRANCH   3   2
BRANCH  10  15
ATOM     15  C   UNL     1      -3.529   2.133  24.276  0.00  0.00    +0.077 C 
ATOM     16  C   UNL     1      -3.326   2.517  23.574  0.00  0.00    +0.010 C 
BRANCH  15  17
ATOM     17  C   UNL     1      -3.710   2.574  24.949  0.00  0.00    +0.225 C 
ATOM     18  O   UNL     1      -4.395   2.408  25.379  0.00  0.00    -0.275 OA
ATOM     19  N   UNL     1      -3.207   3.181  25.192  0.00  0.00    -0.280 N 
ATOM     20  C   UNL     1      -3.388   3.622  25.865  0.00  0.00    +0.093 C 
ATOM     21  C   UNL     1      -2.885   4.229  26.109  0.00  0.00    +0.022 C 
ATOM     22  C   UNL     1      -2.201   4.396  25.678  0.00  0.00    +0.004 C 
ATOM     23  C   UNL     1      -2.020   3.954  25.004  0.00  0.00    +0.022 C 
ATOM     24  C   UNL     1      -2.523   3.347  24.762  0.00  0.00    +0.093 C 
ENDBRANCH  15  17
ENDBRANCH  10  15
TORSDOF 3
ENDMDL
MODEL 2
REMARK VINA RESULT:     -12.4      1.417      4.668
REMARK  Name = 
REMARK  3 active torsions:
REMARK  status: ('A' for Active; 'I' for Inactive)
REMARK    1  A    between atoms: O_2  and  C_3
REMARK    2  A    between atoms: C_10  and  C_15
REMARK    3  A    between atoms: C_15  and  C_17
REMARK                            x       y       z     vdW  Elec       q    Type
REMARK                         _______ _______ _______ _____ _____    ______ ____
ROOT
ATOM      3  C   UNL     1      -5.032   3.132  25.384  0.00  0.00    +0.134 A 
ATOM      4  C   UNL     1      -4.377   3.624  25.491  0.00  0.00    +0.032 A 
ATOM      5  C   UNL     1      -3.621   3.349  25.313  0.00  0.00    -0.023 A 
ATOM      6  C   UNL     1      -2.967   3.840  25.421  0.00  0.00    +0.031 C 
ATOM      7  C   UNL     1      -3.518   2.582  25.028  0.00  0.00    -0.030 A 
ATOM      8  C   UNL     1      -2.761   2.306  24.850  0.00  0.00    +0.026 C 
ATOM      9  C   UNL     1      -2.657   1.540  24.564  0.00  0.00    +0.005 C 
ATOM     10  C   UNL     1      -3.312   1.047  24.457  0.00  0.00    +0.013 C 
ATOM     11  C   UNL     1      -4.068   1.323  24.635  0.00  0.00    +0.026 C 
ATOM     12  C   UNL     1      -4.172   2.090  24.920  0.00  0.00    -0.027 A 
ATOM     13  C   UNL     1      -4.929   2.365  25.098  0.00  0.00    +0.008 A 
ATOM     14  C   UNL     1      -5.582   1.874  24.991  0.00  0.00    +0.034 C 
ENDROOT
BRANCH   3   2
ATOM      1  C   UNL     1      -5.922   4.216  25.661  0.00  0.00    +0.252 C 
ATOM      2  O   UNL     1      -5.789   3.408  25.562  0.00  0.00    -0.472 OA
ENDBRANCH   3   2
BRANCH  10  15
ATOM     15  C   UNL     1      -3.208   0.280  24.171  0.00  0.00    +0.077 C 
ATOM     16  C   UNL     1      -3.312   0.122  23.368  0.00  0.00    +0.010 C 
BRANCH  15  17
ATOM     17  C   UNL     1      -3.000  -0.328  24.687  0.00  0.00    +0.225 C 
ATOM     18  O   UNL     1      -2.473  -0.182  25.306  0.00  0.00    -0.275 OA
ATOM     19  N   UNL     1      -3.318  -1.083  24.586  0.00  0.00    -0.280 N 
ATOM     20  C   UNL     1      -3.110  -1.691  25.103  0.00  0.00    +0.093 C 
ATOM     21  C   UNL     1      -3.429  -2.446  25.002  0.00  0.00    +0.022 C 
ATOM     22  C   UNL     1      -3.955  -2.591  24.384  0.00  0.00    +0.004 C 
ATOM     23  C   UNL     1      -4.164  -1.982  23.867  0.00  0.00    +0.022 C 
ATOM     24  C   UNL     1      -3.845  -1.228  23.968  0.00  0.00    +0.093 C 
ENDBRANCH  15  17
ENDBRANCH  10  15
TORSDOF 3
ENDMDL
MODEL 3
REMARK VINA RESULT:     -12.4      1.469      4.503
REMARK  Name = 
REMARK  3 active torsions:
REMARK  status: ('A' for Active; 'I' for Inactive)
REMARK    1  A    between atoms: O_2  and  C_3
REMARK    2  A    between atoms: C_10  and  C_15
REMARK    3  A    between atoms: C_15  and  C_17
REMARK                            x       y       z     vdW  Elec       q    Type
REMARK                         _______ _______ _______ _____ _____    ______ ____
ROOT
ATOM      3  C   UNL     1      -3.454   3.487  25.083  0.00  0.00    +0.134 A 
ATOM      4  C   UNL     1      -4.225   3.582  25.365  0.00  0.00    +0.032 A 
ATOM      5  C   UNL     1      -4.744   2.942  25.372  0.00  0.00    -0.023 A 
ATOM      6  C   UNL     1      -5.513   3.038  25.654  0.00  0.00    +0.031 C 
ATOM      7  C   UNL     1      -4.494   2.206  25.097  0.00  0.00    -0.030 A 
ATOM      8  C   UNL     1      -5.013   1.565  25.103  0.00  0.00    +0.026 C 
ATOM      9  C   UNL     1      -4.764   0.829  24.828  0.00  0.00    +0.005 C 
ATOM     10  C   UNL     1      -3.994   0.733  24.546  0.00  0.00    +0.013 C 
ATOM     11  C   UNL     1      -3.474   1.373  24.539  0.00  0.00    +0.026 C 
ATOM     12  C   UNL     1      -3.724   2.110  24.815  0.00  0.00    -0.027 A 
ATOM     13  C   UNL     1      -3.205   2.751  24.808  0.00  0.00    +0.008 A 
ATOM     14  C   UNL     1      -2.435   2.655  24.526  0.00  0.00    +0.034 C 
ENDROOT
BRANCH   3   2
ATOM      1  C   UNL     1      -2.790   4.550  25.771  0.00  0.00    +0.252 C 
ATOM      2  O   UNL     1      -2.935   4.128  25.077  0.00  0.00    -0.472 OA
ENDBRANCH   3   2
BRANCH  10  15
ATOM     15  C   UNL     1      -3.744  -0.004  24.271  0.00  0.00    +0.077 C 
ATOM     16  C   UNL     1      -3.765  -0.171  23.463  0.00  0.00    +0.010 C 
BRANCH  15  17
ATOM     17  C   UNL     1      -3.474  -0.574  24.802  0.00  0.00    +0.225 C 
ATOM     18  O   UNL     1      -3.074  -0.343  25.487  0.00  0.00    -0.275 OA
ATOM     19  N   UNL     1      -3.603  -1.375  24.651  0.00  0.00    -0.280 N 
ATOM     20  C   UNL     1      -3.333  -1.944  25.182  0.00  0.00    +0.093 C 
ATOM     21  C   UNL     1      -3.462  -2.745  25.031  0.00  0.00    +0.022 C 
ATOM     22  C   UNL     1      -3.861  -2.976  24.347  0.00  0.00    +0.004 C 
ATOM     23  C   UNL     1      -4.132  -2.405  23.814  0.00  0.00    +0.022 C 
ATOM     24  C   UNL     1      -4.003  -1.605  23.967  0.00  0.00    +0.093 C 
ENDBRANCH  15  17
ENDBRANCH  10  15
TORSDOF 3
ENDMDL
MODEL 4
REMARK VINA RESULT:     -11.7      1.576      4.098
REMARK  Name = 
REMARK  3 active torsions:
REMARK  status: ('A' for Active; 'I' for Inactive)
REMARK    1  A    between atoms: O_2  and  C_3
REMARK    2  A    between atoms: C_10  and  C_15
REMARK    3  A    between atoms: C_15  and  C_17
REMARK                            x       y       z     vdW  Elec       q    Type
REMARK                         _______ _______ _______ _____ _____    ______ ____
ROOT
ATOM      3  C   UNL     1      -4.127   2.657  24.139  0.00  0.00    +0.134 A 
ATOM      4  C   UNL     1      -4.856   2.663  24.528  0.00  0.00    +0.032 A 
ATOM      5  C   UNL     1      -5.134   1.979  24.894  0.00  0.00    -0.023 A 
ATOM      6  C   UNL     1      -5.862   1.986  25.282  0.00  0.00    +0.031 C 
ATOM      7  C   UNL     1      -4.685   1.288  24.873  0.00  0.00    -0.030 A 
ATOM      8  C   UNL     1      -4.962   0.603  25.239  0.00  0.00    +0.026 C 
ATOM      9  C   UNL     1      -4.513  -0.087  25.219  0.00  0.00    +0.005 C 
ATOM     10  C   UNL     1      -3.784  -0.094  24.830  0.00  0.00    +0.013 C 
ATOM     11  C   UNL     1      -3.506   0.590  24.464  0.00  0.00    +0.026 C 
ATOM     12  C   UNL     1      -3.956   1.282  24.485  0.00  0.00    -0.027 A 
ATOM     13  C   UNL     1      -3.678   1.966  24.118  0.00  0.00    +0.008 A 
ATOM     14  C   UNL     1      -2.950   1.960  23.731  0.00  0.00    +0.034 C 
ENDROOT
BRANCH   3   2
ATOM      1  C   UNL     1      -3.948   4.076  24.138  0.00  0.00    +0.252 C 
ATOM      2  O   UNL     1      -3.850   3.342  23.773  0.00  0.00    -0.472 OA
ENDBRANCH   3   2
BRANCH  10  15
ATOM     15  C   UNL     1      -3.334  -0.786  24.810  0.00  0.00    +0.077 C 
ATOM     16  C   UNL     1      -3.447  -1.332  24.202  0.00  0.00    +0.010 C 
BRANCH  15  17
ATOM     17  C   UNL     1      -2.773  -0.931  25.395  0.00  0.00    +0.225 C 
ATOM     18  O   UNL     1      -2.985  -0.883  26.192  0.00  0.00    -0.275 OA
ATOM     19  N   UNL     1      -1.998  -1.123  25.186  0.00  0.00    -0.280 N 
ATOM     20  C   UNL     1      -1.436  -1.268  25.772  0.00  0.00    +0.093 C 
ATOM     21  C   UNL     1      -0.661  -1.461  25.563  0.00  0.00    +0.022 C 
ATOM     22  C   UNL     1      -0.449  -1.508  24.767  0.00  0.00    +0.004 C 
ATOM     23  C   UNL     1      -1.012  -1.363  24.180  0.00  0.00    +0.022 C 
ATOM     24  C   UNL     1      -1.786  -1.171  24.391  0.00  0.00    +0.093 C 
ENDBRANCH  15  17
ENDBRANCH  10  15
TORSDOF 3
ENDMDL
