MODEL 1
REMARK VINA RESULT:     -11.2      0.000      0.000
REMARK  Name = 
REMARK  3 active torsions:
REMARK  status: ('A' for Active; 'I' for Inactive)
REMARK    1  A    between atoms: O_2  and  C_3
REMARK    2  A    between atoms: C_3  and  C_5
REMARK    3  A    between atoms: C_11  and  C_13
REMARK                            x       y       z     vdW  Elec       q    Type
REMARK                         _______ _______ _______ _____ _____    ______ ____
ROOT
ATOM      5  C   UNL     1      -3.839   1.830  24.679  0.00  0.00    +0.181 C 
ATOM      6  C   UNL     1      -3.272   2.394  24.481  0.00  0.00    +0.078 C 
ATOM      7  C   UNL     1      -2.506   2.158  24.282  0.00  0.00    +0.076 A 
ATOM      8  C   UNL     1      -2.309   1.357  24.281  0.00  0.00    +0.072 A 
ATOM      9  C   UNL     1      -2.877   0.792  24.479  0.00  0.00    +0.139 C 
ATOM     10  N   UNL     1      -3.642   1.029  24.678  0.00  0.00    -0.262 N 
ATOM     11  C   UNL     1      -4.209   0.464  24.876  0.00  0.00    +0.250 C 
ATOM     12  O   UNL     1      -4.975   0.700  25.075  0.00  0.00    -0.270 OA
ATOM     20  N   UNL     1      -1.517   1.290  24.063  0.00  0.00    -0.309 N 
ATOM     21  C   UNL     1      -1.091   0.586  23.991  0.00  0.00    +0.132 C 
ATOM     22  C   UNL     1      -1.224   2.049  23.929  0.00  0.00    +0.178 A 
ATOM     23  N   UNL     1      -1.836   2.585  24.064  0.00  0.00    -0.229 NA
ENDROOT
BRANCH  11  13
ATOM     13  C   UNL     1      -4.012  -0.337  24.875  0.00  0.00    +0.054 A 
ATOM     14  C   UNL     1      -3.700  -0.686  25.554  0.00  0.00    +0.007 A 
ATOM     15  C   UNL     1      -3.503  -1.487  25.553  0.00  0.00    +0.030 A 
ATOM     16  C   UNL     1      -3.618  -1.940  24.873  0.00  0.00    +0.140 A 
ATOM     17  F   UNL     1      -3.421  -2.741  24.872  0.00  0.00    -0.204 F 
ATOM     18  C   UNL     1      -3.930  -1.590  24.193  0.00  0.00    +0.030 A 
ATOM     19  C   UNL     1      -4.128  -0.789  24.194  0.00  0.00    +0.007 A 
ENDBRANCH  11  13
BRANCH   5   3
ATOM      3  C   UNL     1      -4.604   2.066  24.877  0.00  0.00    +0.336 C 
ATOM      4  O   UNL     1      -5.202   2.045  24.310  0.00  0.00    -0.248 OA
BRANCH   3   2
ATOM      1  C   UNL     1      -5.444   2.775  25.789  0.00  0.00    +0.256 C 
ATOM      2  O   UNL     1      -4.771   2.323  25.643  0.00  0.00    -0.443 OA
ENDBRANCH   3   2
ENDBRANCH   5   3
TORSDOF 3
ENDMDL
MODEL 2
REMARK VINA RESULT:     -10.6      1.515      2.687
REMARK  Name = 
REMARK  3 active torsions:
REMARK  status: ('A' for Active; 'I' for Inactive)
REMARK    1  A    between atoms: O_2  and  C_3
REMARK    2  A    between atoms: C_3  and  C_5
REMARK    3  A    between atoms: C_11  and  C_13
REMARK                            x       y       z     vdW  Elec       q    Type
REMARK                         _______ _______ _______ _____ _____    ______ ____
ROOT
ATOM      5  C   UNL     1      -2.996   2.371  24.645  0.00  0.00    +0.181 C 
ATOM      6  C   UNL     1      -3.424   3.046  24.848  0.00  0.00    +0.078 C 
ATOM      7  C   UNL     1      -4.213   2.980  25.081  0.00  0.00    +0.076 A 
ATOM      8  C   UNL     1      -4.573   2.239  25.111  0.00  0.00    +0.072 A 
ATOM      9  C   UNL     1      -4.145   1.563  24.908  0.00  0.00    +0.139 C 
ATOM     10  N   UNL     1      -3.356   1.630  24.675  0.00  0.00    -0.262 N 
ATOM     11  C   UNL     1      -2.929   0.954  24.471  0.00  0.00    +0.250 C 
ATOM     12  O   UNL     1      -2.139   1.021  24.238  0.00  0.00    -0.270 OA
ATOM     20  N   UNL     1      -5.352   2.343  25.360  0.00  0.00    -0.309 N 
ATOM     21  C   UNL     1      -5.912   1.747  25.466  0.00  0.00    +0.132 C 
ATOM     22  C   UNL     1      -5.474   3.150  25.484  0.00  0.00    +0.178 A 
ATOM     23  N   UNL     1      -4.769   3.542  25.312  0.00  0.00    -0.229 NA
ENDROOT
BRANCH  11  13
ATOM     13  C   UNL     1      -3.289   0.213  24.501  0.00  0.00    +0.054 A 
ATOM     14  C   UNL     1      -3.685  -0.080  23.840  0.00  0.00    +0.007 A 
ATOM     15  C   UNL     1      -4.045  -0.822  23.870  0.00  0.00    +0.030 A 
ATOM     16  C   UNL     1      -4.010  -1.270  24.561  0.00  0.00    +0.140 A 
ATOM     17  F   UNL     1      -4.370  -2.012  24.591  0.00  0.00    -0.204 F 
ATOM     18  C   UNL     1      -3.614  -0.977  25.223  0.00  0.00    +0.030 A 
ATOM     19  C   UNL     1      -3.253  -0.235  25.193  0.00  0.00    +0.007 A 
ENDBRANCH  11  13
BRANCH   5   3
ATOM      3  C   UNL     1      -2.208   2.437  24.412  0.00  0.00    +0.336 C 
ATOM      4  O   UNL     1      -2.015   2.449  23.610  0.00  0.00    -0.248 OA
BRANCH   3   2
ATOM      1  C   UNL     1      -0.872   2.791  24.775  0.00  0.00    +0.256 C 
ATOM      2  O   UNL     1      -1.612   2.492  24.980  0.00  0.00    -0.443 OA
ENDBRANCH   3   2
ENDBRANCH   5   3
TORSDOF 3
ENDMDL
MODEL 3
REMARK VINA RESULT:      -9.9      1.841      3.312
REMARK  Name = 
REMARK  3 active torsions:
REMARK  status: ('A' for Active; 'I' for Inactive)
REMARK    1  A    between atoms: O_2  and  C_3
REMARK    2  A    between atoms: C_3  and  C_5
REMARK    3  A    between atoms: C_11  and  C_13
REMARK                            x       y       z     vdW  Elec       q    Type
REMARK                         _______ _______ _______ _____ _____    ______ ____
ROOT
ATOM      5  C   UNL     1      -2.887  -0.215  24.600  0.00  0.00    +0.181 C 
ATOM      6  C   UNL     1      -2.143  -0.565  24.656  0.00  0.00    +0.078 C 
ATOM      7  C   UNL     1      -1.463  -0.097  24.637  0.00  0.00    +0.076 A 
ATOM      8  C   UNL     1      -1.529   0.722  24.562  0.00  0.00    +0.072 A 
ATOM      9  C   UNL     1      -2.274   1.073  24.507  0.00  0.00    +0.139 C 
ATOM     10  N   UNL     1      -2.953   0.605  24.526  0.00  0.00    -0.262 N 
ATOM     11  C   UNL     1      -3.697   0.956  24.471  0.00  0.00    +0.250 C 
ATOM     12  O   UNL     1      -4.376   0.487  24.490  0.00  0.00    -0.270 OA
ATOM     20  N   UNL     1      -0.768   1.039  24.559  0.00  0.00    -0.309 N 
ATOM     21  C   UNL     1      -0.576   1.839  24.495  0.00  0.00    +0.132 C 
ATOM     22  C   UNL     1      -0.232   0.417  24.631  0.00  0.00    +0.178 A 
ATOM     23  N   UNL     1      -0.662  -0.285  24.679  0.00  0.00    -0.229 NA
ENDROOT
BRANCH  11  13
ATOM     13  C   UNL     1      -3.762   1.775  24.396  0.00  0.00    +0.054 A 
ATOM     14  C   UNL     1      -3.736   2.124  23.650  0.00  0.00    +0.007 A 
ATOM     15  C   UNL     1      -3.802   2.943  23.576  0.00  0.00    +0.030 A 
ATOM     16  C   UNL     1      -3.893   3.413  24.248  0.00  0.00    +0.140 A 
ATOM     17  F   UNL     1      -3.959   4.232  24.173  0.00  0.00    -0.204 F 
ATOM     18  C   UNL     1      -3.919   3.063  24.995  0.00  0.00    +0.030 A 
ATOM     19  C   UNL     1      -3.854   2.244  25.069  0.00  0.00    +0.007 A 
ENDBRANCH  11  13
BRANCH   5   3
ATOM      3  C   UNL     1      -3.566  -0.682  24.619  0.00  0.00    +0.336 C 
ATOM      4  O   UNL     1      -3.977  -0.783  25.327  0.00  0.00    -0.248 OA
BRANCH   3   2
ATOM      1  C   UNL     1      -4.294  -1.732  23.979  0.00  0.00    +0.256 C 
ATOM      2  O   UNL     1      -3.834  -1.049  23.931  0.00  0.00    -0.443 OA
ENDBRANCH   3   2
ENDBRANCH   5   3
TORSDOF 3
ENDMDL
MODEL 4
REMARK VINA RESULT:      -9.9      2.166      3.598
REMARK  Name = 
REMARK  3 active torsions:
REMARK  status: ('A' for Active; 'I' for Inactive)
REMARK    1  A    between atoms: O_2  and  C_3
REMARK    2  A    between atoms: C_3  and  C_5
REMARK    3  A    between atoms: C_11  and  C_13
REMARK                            x       y       z     vdW  Elec       q    Type
REMARK                         _______ _______ _______ _____ _____    ______ ____
ROOT
ATOM      5  C   UNL     1      -4.120   1.673  24.900  0.00  0.00    +0.181 C 
ATOM      6  C   UNL     1      -3.971   0.874  24.764  0.00  0.00    +0.078 C 
ATOM      7  C   UNL     1      -3.194   0.603  24.700  0.00  0.00    +0.076 A 
ATOM      8  C   UNL     1      -2.566   1.133  24.772  0.00  0.00    +0.072 A 
ATOM      9  C   UNL     1      -2.715   1.934  24.908  0.00  0.00    +0.139 C 
ATOM     10  N   UNL     1      -3.492   2.203  24.972  0.00  0.00    -0.262 N 
ATOM     11  C   UNL     1      -3.640   3.003  25.108  0.00  0.00    +0.250 C 
ATOM     12  O   UNL     1      -4.418   3.273  25.172  0.00  0.00    -0.270 OA
ATOM     20  N   UNL     1      -1.864   0.710  24.684  0.00  0.00    -0.309 N 
ATOM     21  C   UNL     1      -1.101   1.024  24.717  0.00  0.00    +0.132 C 
ATOM     22  C   UNL     1      -2.057  -0.081  24.558  0.00  0.00    +0.178 A 
ATOM     23  N   UNL     1      -2.879  -0.147  24.568  0.00  0.00    -0.229 NA
ENDROOT
BRANCH  11  13
ATOM     13  C   UNL     1      -3.012   3.533  25.181  0.00  0.00    +0.054 A 
ATOM     14  C   UNL     1      -2.707   3.904  24.511  0.00  0.00    +0.007 A 
ATOM     15  C   UNL     1      -2.079   4.434  24.583  0.00  0.00    +0.030 A 
ATOM     16  C   UNL     1      -1.756   4.593  25.325  0.00  0.00    +0.140 A 
ATOM     17  F   UNL     1      -1.128   5.123  25.397  0.00  0.00    -0.204 F 
ATOM     18  C   UNL     1      -2.062   4.222  25.996  0.00  0.00    +0.030 A 
ATOM     19  C   UNL     1      -2.690   3.692  25.924  0.00  0.00    +0.007 A 
ENDBRANCH  11  13
BRANCH   5   3
ATOM      3  C   UNL     1      -4.896   1.943  24.964  0.00  0.00    +0.336 C 
ATOM      4  O   UNL     1      -5.268   2.288  24.313  0.00  0.00    -0.248 OA
BRANCH   3   2
ATOM      1  C   UNL     1      -6.124   1.932  25.695  0.00  0.00    +0.256 C 
ATOM      2  O   UNL     1      -5.302   1.868  25.678  0.00  0.00    -0.443 OA
ENDBRANCH   3   2
ENDBRANCH   5   3
TORSDOF 3
ENDMDL
MODEL 5
REMARK VINA RESULT:      -9.8      2.626      4.359
REMARK  Name = 
REMARK  3 active torsions:
REMARK  status: ('A' for Active; 'I' for Inactive)
REMARK    1  A    between atoms: O_2  and  C_3
REMARK    2  A    between atoms: C_3  and  C_5
REMARK    3  A    between atoms: C_11  and  C_13
REMARK                            x       y       z     vdW  Elec       q    Type
REMARK                         _______ _______ _______ _____ _____    ______ ____
ROOT
ATOM      5  C   UNL     1      -2.093   0.614  25.010  0.00  0.00    +0.181 C 
ATOM      6  C   UNL     1      -2.842   0.284  24.904  0.00  0.00    +0.078 C 
ATOM      7  C   UNL     1      -3.496   0.774  24.787  0.00  0.00    +0.076 A 
ATOM      8  C   UNL     1      -3.401   1.593  24.777  0.00  0.00    +0.072 A 
ATOM      9  C   UNL     1      -2.652   1.923  24.883  0.00  0.00    +0.139 C 
ATOM     10  N   UNL     1      -1.998   1.433  25.000  0.00  0.00    -0.262 N 
ATOM     11  C   UNL     1      -1.250   1.764  25.107  0.00  0.00    +0.250 C 
ATOM     12  O   UNL     1      -0.596   1.274  25.223  0.00  0.00    -0.270 OA
ATOM     20  N   UNL     1      -4.141   1.934  24.651  0.00  0.00    -0.309 N 
ATOM     21  C   UNL     1      -4.301   2.742  24.602  0.00  0.00    +0.132 C 
ATOM     22  C   UNL     1      -4.694   1.326  24.584  0.00  0.00    +0.178 A 
ATOM     23  N   UNL     1      -4.294   0.609  24.668  0.00  0.00    -0.229 NA
ENDROOT
BRANCH  11  13
ATOM     13  C   UNL     1      -1.155   2.583  25.096  0.00  0.00    +0.054 A 
ATOM     14  C   UNL     1      -1.265   3.019  25.787  0.00  0.00    +0.007 A 
ATOM     15  C   UNL     1      -1.170   3.839  25.777  0.00  0.00    +0.030 A 
ATOM     16  C   UNL     1      -0.965   4.222  25.076  0.00  0.00    +0.140 A 
ATOM     17  F   UNL     1      -0.870   5.042  25.066  0.00  0.00    -0.204 F 
ATOM     18  C   UNL     1      -0.856   3.785  24.384  0.00  0.00    +0.030 A 
ATOM     19  C   UNL     1      -0.951   2.966  24.394  0.00  0.00    +0.007 A 
ENDBRANCH  11  13
BRANCH   5   3
ATOM      3  C   UNL     1      -1.440   0.125  25.127  0.00  0.00    +0.336 C 
ATOM      4  O   UNL     1      -1.172  -0.030  25.892  0.00  0.00    -0.248 OA
BRANCH   3   2
ATOM      1  C   UNL     1      -0.559  -0.861  24.585  0.00  0.00    +0.256 C 
ATOM      2  O   UNL     1      -1.054  -0.211  24.479  0.00  0.00    -0.443 OA
ENDBRANCH   3   2
ENDBRANCH   5   3
TORSDOF 3
ENDMDL
MODEL 6
REMARK VINA RESULT:      -9.7      1.920      3.350
REMARK  Name = 
REMARK  3 active torsions:
REMARK  status: ('A' for Active; 'I' for Inactive)
REMARK    1  A    between atoms: O_2  and  C_3
REMARK    2  A    between atoms: C_3  and  C_5
REMARK    3  A    between atoms: C_11  and  C_13
REMARK                            x       y       z     vdW  Elec       q    Type
REMARK                         _______ _______ _______ _____ _____    ______ ____
ROOT
ATOM      5  C   UNL     1      -3.885   0.201  24.749  0.00  0.00    +0.181 C 
ATOM      6  C   UNL     1      -4.605   0.600  24.793  0.00  0.00    +0.078 C 
ATOM      7  C   UNL     1      -4.619   1.424  24.841  0.00  0.00    +0.076 A 
ATOM      8  C   UNL     1      -3.911   1.848  24.844  0.00  0.00    +0.072 A 
ATOM      9  C   UNL     1      -3.190   1.449  24.799  0.00  0.00    +0.139 C 
ATOM     10  N   UNL     1      -3.178   0.625  24.751  0.00  0.00    -0.262 N 
ATOM     11  C   UNL     1      -2.457   0.227  24.707  0.00  0.00    +0.250 C 
ATOM     12  O   UNL     1      -2.444  -0.597  24.659  0.00  0.00    -0.270 OA
ATOM     20  N   UNL     1      -4.095   2.650  24.895  0.00  0.00    -0.309 N 
ATOM     21  C   UNL     1      -3.553   3.272  24.914  0.00  0.00    +0.132 C 
ATOM     22  C   UNL     1      -4.916   2.722  24.924  0.00  0.00    +0.178 A 
ATOM     23  N   UNL     1      -5.239   1.964  24.891  0.00  0.00    -0.229 NA
ENDROOT
BRANCH  11  13
ATOM     13  C   UNL     1      -1.749   0.651  24.709  0.00  0.00    +0.054 A 
ATOM     14  C   UNL     1      -1.372   0.818  25.423  0.00  0.00    +0.007 A 
ATOM     15  C   UNL     1      -0.664   1.242  25.426  0.00  0.00    +0.030 A 
ATOM     16  C   UNL     1      -0.334   1.500  24.715  0.00  0.00    +0.140 A 
ATOM     17  F   UNL     1       0.373   1.924  24.717  0.00  0.00    -0.204 F 
ATOM     18  C   UNL     1      -0.713   1.333  24.000  0.00  0.00    +0.030 A 
ATOM     19  C   UNL     1      -1.420   0.908  23.998  0.00  0.00    +0.007 A 
ENDBRANCH  11  13
BRANCH   5   3
ATOM      3  C   UNL     1      -3.872  -0.622  24.701  0.00  0.00    +0.336 C 
ATOM      4  O   UNL     1      -3.759  -1.072  25.383  0.00  0.00    -0.248 OA
BRANCH   3   2
ATOM      1  C   UNL     1      -4.188  -1.790  23.942  0.00  0.00    +0.256 C 
ATOM      2  O   UNL     1      -3.971  -0.995  23.972  0.00  0.00    -0.443 OA
ENDBRANCH   3   2
ENDBRANCH   5   3
TORSDOF 3
ENDMDL
