REMARK  Name = 
REMARK  4 active torsions:
REMARK  status: ('A' for Active; 'I' for Inactive)
REMARK    1  A    between atoms: C_2  and  C_3
REMARK    2  A    between atoms: C_5  and  C_6
REMARK    3  A    between atoms: C_6  and  N_7
REMARK    4  A    between atoms: C_10  and  C_12
REMARK                            x       y       z     vdW  Elec       q    Type
REMARK                         _______ _______ _______ _____ _____    ______ ____
ROOT
ATOM      7  N   UNL     1      -2.723  -1.110   0.000  0.00  0.00    -0.269 NA
ATOM      8  C   UNL     1      -2.723  -0.285   0.000  0.00  0.00    +0.073 C 
ATOM      9  C   UNL     1      -1.938  -0.030   0.000  0.00  0.00    +0.025 C 
ATOM     10  C   UNL     1      -1.453  -0.698   0.000  0.00  0.00    +0.064 C 
ATOM     11  C   UNL     1      -1.938  -1.365   0.000  0.00  0.00    +0.079 C 
ENDROOT
BRANCH  10  12
ATOM     12  C   UNL     1      -0.628  -0.698   0.000  0.00  0.00    +0.089 A 
ATOM     13  N   UNL     1      -0.143  -1.365   0.000  0.00  0.00    -0.243 NA
ATOM     14  C   UNL     1       0.641  -1.110   0.000  0.00  0.00    +0.087 A 
ATOM     15  C   UNL     1       0.641  -0.285   0.000  0.00  0.00    +0.048 A 
ATOM     16  S   UNL     1      -0.143  -0.030   0.000  0.00  0.00    -0.071 S 
ATOM     17  C   UNL     1       1.356   0.127   0.000  0.00  0.00    +0.008 A 
ATOM     18  C   UNL     1       2.070  -0.285   0.000  0.00  0.00    +0.001 A 
ATOM     19  C   UNL     1       2.070  -1.110   0.000  0.00  0.00    +0.002 A 
ATOM     20  C   UNL     1       1.356  -1.523   0.000  0.00  0.00    +0.020 A 
ENDBRANCH  10  12
BRANCH   7   6
ATOM      6  C   UNL     1      -3.390  -1.595   0.000  0.00  0.00    +0.099 C 
BRANCH   6   5
ATOM      3  C   UNL     1      -4.984  -0.104   0.000  0.00  0.00    +0.068 A 
ATOM      4  C   UNL     1      -4.230  -0.439   0.000  0.00  0.00    +0.007 A 
ATOM      5  C   UNL     1      -4.144  -1.260   0.000  0.00  0.00    -0.005 A 
ATOM     21  C   UNL     1      -4.811  -1.745   0.000  0.00  0.00    -0.003 A 
ATOM     22  C   UNL     1      -5.565  -1.409   0.000  0.00  0.00    +0.000 A 
ATOM     23  C   UNL     1      -5.651  -0.589   0.000  0.00  0.00    +0.010 A 
BRANCH   3   2
ATOM      1  N   UNL     1      -5.157   1.537   0.000  0.00  0.00    -0.191 NA
ATOM      2  C   UNL     1      -5.070   0.717   0.000  0.00  0.00    +0.100 C 
ENDBRANCH   3   2
ENDBRANCH   6   5
ENDBRANCH   7   6
TORSDOF 4
