REMARK  4 active torsions:
REMARK  status: ('A' for Active; 'I' for Inactive)
REMARK    1  A    between atoms: C1_1  and  O21_2 
REMARK    2  A    between atoms: C22_13  and  O21_2 
REMARK    3  A    between atoms: C4_7  and  O31_8 
REMARK    4  A    between atoms: C32_24  and  O31_8 
ROOT
HETATM    1  C1  TCD E 805     -13.450 -31.890  -2.975  1.00 43.72     0.078 A 
HETATM    2  C2  TCD E 805     -12.647 -32.874  -3.591  1.00 43.31    -0.048 A 
ATOM      3  H2  TCD E 805     -12.301 -32.733  -4.629  1.00  0.00     0.087 H 
HETATM    4  C3  TCD E 805     -12.296 -34.008  -2.897  1.00 41.08    -0.048 A 
ATOM      5  H3  TCD E 805     -11.726 -34.801  -3.410  1.00  0.00     0.087 H 
HETATM    6  C4  TCD E 805     -12.651 -34.177  -1.543  1.00 42.16     0.078 A 
HETATM    7  C5  TCD E 805     -13.450 -33.196  -0.907  1.00 41.22    -0.048 A 
ATOM      8  H5  TCD E 805     -13.788 -33.334   0.134  1.00  0.00     0.087 H 
HETATM    9  C6  TCD E 805     -13.801 -32.053  -1.623  1.00 42.21    -0.048 A 
ATOM     10  H6  TCD E 805     -14.369 -31.255  -1.116  1.00  0.00     0.087 H 
ENDROOT
BRANCH   1  11
HETATM   11  O21 TCD E 805     -13.853 -30.748  -3.627  1.00 45.47    -0.292 OA
BRANCH  11  12
HETATM   12  C22 TCD E 805     -14.792 -30.963  -4.625  1.00 38.07     0.170 A 
HETATM   13  C27 TCD E 805     -15.207 -29.988  -5.588  1.00 27.30     0.087 A 
HETATM   14  C26 TCD E 805     -16.262 -30.485  -6.590  1.00 37.32    -0.035 A 
HETATM   15 CL27 TCD E 805     -14.588 -28.341  -5.652  1.00 54.00    -0.080 Cl
HETATM   16  C25 TCD E 805     -16.755 -31.783  -6.537  1.00 41.60     0.051 A 
ATOM     17  H26 TCD E 805     -16.635 -29.797  -7.367  1.00  0.00     0.089 H 
HETATM   18  C24 TCD E 805     -16.262 -32.609  -5.552  1.00 44.36     0.000 A 
HETATM   19 CL25 TCD E 805     -17.955 -32.350  -7.687  1.00 54.00    -0.083 Cl
HETATM   20  N23 TCD E 805     -15.340 -32.235  -4.647  1.00 45.66    -0.344 N 
ATOM     21  H24 TCD E 805     -16.647 -33.641  -5.502  1.00  0.00     0.114 H 
ATOM     22  H23 TCD E 805     -15.033 -32.914  -3.950  1.00  0.00     0.167 HD
ENDBRANCH  11  12
ENDBRANCH   1  11
BRANCH   6  23
HETATM   23  O31 TCD E 805     -12.225 -35.323  -0.982  1.00 41.68    -0.292 OA
BRANCH  23  24
HETATM   24  C32 TCD E 805     -13.063 -36.338  -0.532  1.00 40.28     0.170 A 
HETATM   25  C37 TCD E 805     -12.511 -37.374   0.278  1.00 48.32     0.087 A 
HETATM   26  C36 TCD E 805     -13.347 -38.389   0.708  1.00 45.29    -0.035 A 
HETATM   27 CL37 TCD E 805     -10.809 -37.376   0.749  1.00 54.00    -0.080 Cl
HETATM   28  C35 TCD E 805     -14.719 -38.421   0.376  1.00 36.60     0.051 A 
ATOM     29  H36 TCD E 805     -12.929 -39.198   1.330  1.00  0.00     0.089 H 
HETATM   30  C34 TCD E 805     -15.184 -37.352  -0.436  1.00 41.00     0.000 A 
HETATM   31 CL35 TCD E 805     -15.786 -39.720   0.906  1.00 54.00    -0.083 Cl
HETATM   32  N33 TCD E 805     -14.370 -36.353  -0.870  1.00 39.55    -0.344 N 
ATOM     33  H34 TCD E 805     -16.248 -37.332  -0.726  1.00  0.00     0.114 H 
ATOM     34  H33 TCD E 805     -14.750 -35.609  -1.455  1.00  0.00     0.167 HD
ENDBRANCH  23  24
ENDBRANCH   6  23
TORSDOF 4
