REMARK  4 active torsions:
REMARK  status: ('A' for Active; 'I' for Inactive)
REMARK    1  A    between atoms: C1_1  and  O21_2 
REMARK    2  A    between atoms: C22_13  and  O21_2 
REMARK    3  A    between atoms: C4_7  and  O31_8 
REMARK    4  A    between atoms: C32_24  and  O31_8 
ROOT
HETATM    1  C1  TCD E 805      28.894  -8.438  16.749  1.00 43.72     0.078 A 
HETATM    2  C2  TCD E 805      27.924  -8.858  15.813  1.00 43.31    -0.048 A 
ATOM      3  H2  TCD E 805      27.398  -9.817  15.956  1.00  0.00     0.087 H 
HETATM    4  C3  TCD E 805      27.635  -8.071  14.722  1.00 41.08    -0.048 A 
ATOM      5  H3  TCD E 805      26.925  -8.439  13.962  1.00  0.00     0.087 H 
HETATM    6  C4  TCD E 805      28.229  -6.802  14.557  1.00 42.16     0.078 A 
HETATM    7  C5  TCD E 805      29.198  -6.363  15.491  1.00 41.22    -0.048 A 
ATOM      8  H5  TCD E 805      29.717  -5.400  15.352  1.00  0.00     0.087 H 
HETATM    9  C6  TCD E 805      29.483  -7.172  16.590  1.00 42.21    -0.048 A 
ATOM     10  H6  TCD E 805      30.190  -6.809  17.355  1.00  0.00     0.087 H 
ENDROOT
BRANCH   1  11
HETATM   11  O21 TCD E 805      29.241  -9.195  17.844  1.00 45.47    -0.292 OA
BRANCH  11  12
HETATM   12  C22 TCD E 805      29.957 -10.343  17.540  1.00 38.07     0.170 A 
HETATM   13  C27 TCD E 805      30.246 -11.400  18.460  1.00 27.30     0.087 A 
HETATM   14  C26 TCD E 805      31.056 -12.565  17.866  1.00 37.32    -0.035 A 
HETATM   15 CL27 TCD E 805      29.738 -11.405  20.146  1.00 54.00    -0.080 Cl
HETATM   16  C25 TCD E 805      31.461 -12.560  16.537  1.00 41.60     0.051 A 
ATOM     17  H26 TCD E 805      31.321 -13.422  18.508  1.00  0.00     0.089 H 
HETATM   18  C24 TCD E 805      31.109 -11.472  15.771  1.00 44.36     0.000 A 
HETATM   19 CL25 TCD E 805      32.380 -13.894  15.859  1.00 54.00    -0.083 Cl
HETATM   20  N23 TCD E 805      30.404 -10.423  16.230  1.00 45.66    -0.344 N 
ATOM     21  H24 TCD E 805      31.425 -11.460  14.714  1.00  0.00     0.114 H 
ATOM     22  H23 TCD E 805      30.190  -9.658  15.591  1.00  0.00     0.167 HD
ENDBRANCH  11  12
ENDBRANCH   1  11
BRANCH   6  23
HETATM   23  O31 TCD E 805      27.841  -6.132  13.458  1.00 41.68    -0.292 OA
BRANCH  23  24
HETATM   24  C32 TCD E 805      28.678  -5.811  12.395  1.00 40.28     0.170 A 
HETATM   25  C37 TCD E 805      28.222  -4.877  11.419  1.00 48.32     0.087 A 
HETATM   26  C36 TCD E 805      29.054  -4.576  10.357  1.00 45.29    -0.035 A 
HETATM   27 CL37 TCD E 805      26.644  -4.094  11.552  1.00 54.00    -0.080 Cl
HETATM   28  C35 TCD E 805      30.332  -5.158  10.217  1.00 36.60     0.051 A 
ATOM     29  H36 TCD E 805      28.708  -3.858   9.595  1.00  0.00     0.089 H 
HETATM   30  C34 TCD E 805      30.706  -6.080  11.232  1.00 41.00     0.000 A 
HETATM   31 CL35 TCD E 805      31.391  -4.792   8.855  1.00 54.00    -0.083 Cl
HETATM   32  N33 TCD E 805      29.894  -6.388  12.277  1.00 39.55    -0.344 N 
ATOM     33  H34 TCD E 805      31.695  -6.565  11.169  1.00  0.00     0.114 H 
ATOM     34  H33 TCD E 805      30.205  -7.060  12.978  1.00  0.00     0.167 HD
ENDBRANCH  23  24
ENDBRANCH   6  23
TORSDOF 4
