MODEL 1
REMARK VINA RESULT:      -7.9      0.000      0.000
REMARK  4 active torsions:
REMARK  status: ('A' for Active; 'I' for Inactive)
REMARK    1  A    between atoms: C1_1  and  O21_2 
REMARK    2  A    between atoms: C22_13  and  O21_2 
REMARK    3  A    between atoms: C4_7  and  O31_8 
REMARK    4  A    between atoms: C32_24  and  O31_8 
ROOT
HETATM    1  C1  TCD E 805      16.253   9.141  -6.040  1.00 43.72     0.078 A 
HETATM    2  C2  TCD E 805      15.122   8.399  -5.634  1.00 43.31    -0.048 A 
ATOM      3  H2  TCD E 805      14.384   8.850  -4.949  1.00  0.00     0.087 H 
HETATM    4  C3  TCD E 805      14.941   7.116  -6.093  1.00 41.08    -0.048 A 
ATOM      5  H3  TCD E 805      14.091   6.522  -5.716  1.00  0.00     0.087 H 
HETATM    6  C4  TCD E 805      15.820   6.544  -7.035  1.00 42.16     0.078 A 
HETATM    7  C5  TCD E 805      16.955   7.277  -7.459  1.00 41.22    -0.048 A 
ATOM      8  H5  TCD E 805      17.688   6.828  -8.152  1.00  0.00     0.087 H 
HETATM    9  C6  TCD E 805      17.129   8.575  -6.984  1.00 42.21    -0.048 A 
ATOM     10  H6  TCD E 805      17.975   9.176  -7.358  1.00  0.00     0.087 H 
ENDROOT
BRANCH   1  11
HETATM   11  O21 TCD E 805      16.500  10.418  -5.595  1.00 45.47    -0.292 OA
BRANCH  11  12
HETATM   12  C22 TCD E 805      15.380  11.236  -5.561  1.00 38.07     0.170 A 
HETATM   13  C27 TCD E 805      14.436  11.385  -6.628  1.00 27.30     0.087 A 
HETATM   14  C26 TCD E 805      13.280  12.353  -6.331  1.00 37.32    -0.035 A 
HETATM   15 CL27 TCD E 805      14.556  10.548  -8.172  1.00 54.00    -0.080 Cl
HETATM   16  C25 TCD E 805      13.188  13.018  -5.114  1.00 41.60     0.051 A 
ATOM     17  H26 TCD E 805      12.508  12.524  -7.100  1.00  0.00     0.089 H 
HETATM   18  C24 TCD E 805      14.172  12.776  -4.183  1.00 44.36     0.000 A 
HETATM   19 CL25 TCD E 805      11.862  14.119  -4.776  1.00 54.00    -0.083 Cl
HETATM   20  N23 TCD E 805      15.208  11.942  -4.381  1.00 45.66    -0.344 N 
ATOM     21  H24 TCD E 805      14.108  13.299  -3.214  1.00  0.00     0.114 H 
ATOM     22  H23 TCD E 805      15.893  11.824  -3.635  1.00  0.00     0.167 HD
ENDBRANCH  11  12
ENDBRANCH   1  11
BRANCH   6  23
HETATM   23  O31 TCD E 805      15.513   5.290  -7.413  1.00 41.68    -0.292 OA
BRANCH  23  24
HETATM   24  C32 TCD E 805      14.330   4.927  -8.048  1.00 40.28     0.170 A 
HETATM   25  C37 TCD E 805      14.099   5.384  -9.380  1.00 48.32     0.087 A 
HETATM   26  C36 TCD E 805      12.913   5.033 -10.000  1.00 45.29    -0.035 A 
HETATM   27 CL37 TCD E 805      15.290   6.360 -10.245  1.00 54.00    -0.080 Cl
HETATM   28  C35 TCD E 805      11.939   4.237  -9.358  1.00 36.60     0.051 A 
ATOM     29  H36 TCD E 805      12.722   5.385 -11.027  1.00  0.00     0.089 H 
HETATM   30  C34 TCD E 805      12.249   3.829  -8.033  1.00 41.00     0.000 A 
HETATM   31 CL35 TCD E 805      10.419   3.800 -10.135  1.00 54.00    -0.083 Cl
HETATM   32  N33 TCD E 805      13.408   4.173  -7.412  1.00 39.55    -0.344 N 
ATOM     33  H34 TCD E 805      11.520   3.207  -7.486  1.00  0.00     0.114 H 
ATOM     34  H33 TCD E 805      13.584   3.859  -6.457  1.00  0.00     0.167 HD
ENDBRANCH  23  24
ENDBRANCH   6  23
TORSDOF 4
ENDMDL
MODEL 2
REMARK VINA RESULT:      -7.1     16.283     18.431
REMARK  4 active torsions:
REMARK  status: ('A' for Active; 'I' for Inactive)
REMARK    1  A    between atoms: C1_1  and  O21_2 
REMARK    2  A    between atoms: C22_13  and  O21_2 
REMARK    3  A    between atoms: C4_7  and  O31_8 
REMARK    4  A    between atoms: C32_24  and  O31_8 
ROOT
HETATM    1  C1  TCD E 805       9.024  -2.927   5.242  1.00 43.72     0.078 A 
HETATM    2  C2  TCD E 805       7.955  -2.561   4.395  1.00 43.31    -0.048 A 
ATOM      3  H2  TCD E 805       7.939  -2.907   3.347  1.00  0.00     0.087 H 
HETATM    4  C3  TCD E 805       6.935  -1.775   4.876  1.00 41.08    -0.048 A 
ATOM      5  H3  TCD E 805       6.141  -1.439   4.188  1.00  0.00     0.087 H 
HETATM    6  C4  TCD E 805       6.884  -1.390   6.231  1.00 42.16     0.078 A 
HETATM    7  C5  TCD E 805       7.944  -1.754   7.097  1.00 41.22    -0.048 A 
ATOM      8  H5  TCD E 805       7.955  -1.416   8.147  1.00  0.00     0.087 H 
HETATM    9  C6  TCD E 805       8.973  -2.549   6.595  1.00 42.21    -0.048 A 
ATOM     10  H6  TCD E 805       9.769  -2.891   7.278  1.00  0.00     0.087 H 
ENDROOT
BRANCH   1  11
HETATM   11  O21 TCD E 805      10.083  -3.690   4.810  1.00 45.47    -0.292 OA
BRANCH  11  12
HETATM   12  C22 TCD E 805      11.235  -2.965   4.540  1.00 38.07     0.170 A 
HETATM   13  C27 TCD E 805      11.523  -2.312   3.299  1.00 27.30     0.087 A 
HETATM   14  C26 TCD E 805      12.871  -1.572   3.262  1.00 37.32    -0.035 A 
HETATM   15 CL27 TCD E 805      10.452  -2.333   1.902  1.00 54.00    -0.080 Cl
HETATM   16  C25 TCD E 805      13.719  -1.559   4.362  1.00 41.60     0.051 A 
ATOM     17  H26 TCD E 805      13.170  -1.040   2.343  1.00  0.00     0.089 H 
HETATM   18  C24 TCD E 805      13.307  -2.235   5.489  1.00 44.36     0.000 A 
HETATM   19 CL25 TCD E 805      15.255  -0.708   4.319  1.00 54.00    -0.083 Cl
HETATM   20  N23 TCD E 805      12.142  -2.900   5.584  1.00 45.66    -0.344 N 
ATOM     21  H24 TCD E 805      13.974  -2.230   6.367  1.00  0.00     0.114 H 
ATOM     22  H23 TCD E 805      11.919  -3.375   6.459  1.00  0.00     0.167 HD
ENDBRANCH  11  12
ENDBRANCH   1  11
BRANCH   6  23
HETATM   23  O31 TCD E 805       5.821  -0.639   6.570  1.00 41.68    -0.292 OA
BRANCH  23  24
HETATM   24  C32 TCD E 805       5.765   0.189   7.686  1.00 40.28     0.170 A 
HETATM   25  C37 TCD E 805       6.455   1.437   7.648  1.00 48.32     0.087 A 
HETATM   26  C36 TCD E 805       6.409   2.248   8.768  1.00 45.29    -0.035 A 
HETATM   27 CL37 TCD E 805       7.339   1.966   6.214  1.00 54.00    -0.080 Cl
HETATM   28  C35 TCD E 805       5.698   1.880   9.931  1.00 36.60     0.051 A 
ATOM     29  H36 TCD E 805       6.943   3.213   8.751  1.00  0.00     0.089 H 
HETATM   30  C34 TCD E 805       5.043   0.620   9.883  1.00 41.00     0.000 A 
HETATM   31 CL35 TCD E 805       5.649   2.900  11.368  1.00 54.00    -0.083 Cl
HETATM   32  N33 TCD E 805       5.087  -0.188   8.791  1.00 39.55    -0.344 N 
ATOM     33  H34 TCD E 805       4.476   0.285  10.768  1.00  0.00     0.114 H 
ATOM     34  H33 TCD E 805       4.604  -1.086   8.806  1.00  0.00     0.167 HD
ENDBRANCH  23  24
ENDBRANCH   6  23
TORSDOF 4
ENDMDL
MODEL 3
REMARK VINA RESULT:      -6.9     17.714     19.958
REMARK  4 active torsions:
REMARK  status: ('A' for Active; 'I' for Inactive)
REMARK    1  A    between atoms: C1_1  and  O21_2 
REMARK    2  A    between atoms: C22_13  and  O21_2 
REMARK    3  A    between atoms: C4_7  and  O31_8 
REMARK    4  A    between atoms: C32_24  and  O31_8 
ROOT
HETATM    1  C1  TCD E 805       1.190   2.899 -17.906  1.00 43.72     0.078 A 
HETATM    2  C2  TCD E 805       0.227   2.308 -18.752  1.00 43.31    -0.048 A 
ATOM      3  H2  TCD E 805       0.523   1.508 -19.452  1.00  0.00     0.087 H 
HETATM    4  C3  TCD E 805      -1.081   2.729 -18.704  1.00 41.08    -0.048 A 
ATOM      5  H3  TCD E 805      -1.811   2.309 -19.416  1.00  0.00     0.087 H 
HETATM    6  C4  TCD E 805      -1.507   3.688 -17.762  1.00 42.16     0.078 A 
HETATM    7  C5  TCD E 805      -0.556   4.285 -16.900  1.00 41.22    -0.048 A 
ATOM      8  H5  TCD E 805      -0.855   5.079 -16.194  1.00  0.00     0.087 H 
HETATM    9  C6  TCD E 805       0.767   3.851 -16.962  1.00 42.21    -0.048 A 
ATOM     10  H6  TCD E 805       1.502   4.265 -16.251  1.00  0.00     0.087 H 
ENDROOT
BRANCH   1  11
HETATM   11  O21 TCD E 805       2.517   2.537 -17.928  1.00 45.47    -0.292 OA
BRANCH  11  12
HETATM   12  C22 TCD E 805       3.181   2.877 -19.096  1.00 38.07     0.170 A 
HETATM   13  C27 TCD E 805       3.624   1.948 -20.092  1.00 27.30     0.087 A 
HETATM   14  C26 TCD E 805       4.334   2.588 -21.296  1.00 37.32    -0.035 A 
HETATM   15 CL27 TCD E 805       3.397   0.206 -19.984  1.00 54.00    -0.080 Cl
HETATM   16  C25 TCD E 805       4.519   3.963 -21.380  1.00 41.60     0.051 A 
ATOM     17  H26 TCD E 805       4.705   1.943 -22.110  1.00  0.00     0.089 H 
HETATM   18  C24 TCD E 805       4.040   4.732 -20.343  1.00 44.36     0.000 A 
HETATM   19 CL25 TCD E 805       5.324   4.692 -22.760  1.00 54.00    -0.083 Cl
HETATM   20  N23 TCD E 805       3.410   4.233 -19.264  1.00 45.66    -0.344 N 
ATOM     21  H24 TCD E 805       4.181   5.824 -20.401  1.00  0.00     0.114 H 
ATOM     22  H23 TCD E 805       3.090   4.878 -18.541  1.00  0.00     0.167 HD
ENDBRANCH  11  12
ENDBRANCH   1  11
BRANCH   6  23
HETATM   23  O31 TCD E 805      -2.817   3.992 -17.812  1.00 41.68    -0.292 OA
BRANCH  23  24
HETATM   24  C32 TCD E 805      -3.344   5.249 -17.537  1.00 40.28     0.170 A 
HETATM   25  C37 TCD E 805      -3.175   6.288 -18.500  1.00 48.32     0.087 A 
HETATM   26  C36 TCD E 805      -3.688   7.541 -18.213  1.00 45.29    -0.035 A 
HETATM   27 CL37 TCD E 805      -2.352   6.005 -20.036  1.00 54.00    -0.080 Cl
HETATM   28  C35 TCD E 805      -4.373   7.812 -17.008  1.00 36.60     0.051 A 
ATOM     29  H36 TCD E 805      -3.558   8.353 -18.948  1.00  0.00     0.089 H 
HETATM   30  C34 TCD E 805      -4.492   6.722 -16.106  1.00 41.00     0.000 A 
HETATM   31 CL35 TCD E 805      -5.013   9.410 -16.628  1.00 54.00    -0.083 Cl
HETATM   32  N33 TCD E 805      -3.987   5.488 -16.374  1.00 39.55    -0.344 N 
ATOM     33  H34 TCD E 805      -5.017   6.882 -15.149  1.00  0.00     0.114 H 
ATOM     34  H33 TCD E 805      -4.095   4.738 -15.692  1.00  0.00     0.167 HD
ENDBRANCH  23  24
ENDBRANCH   6  23
TORSDOF 4
ENDMDL
MODEL 4
REMARK VINA RESULT:      -6.8     18.758     20.981
REMARK  4 active torsions:
REMARK  status: ('A' for Active; 'I' for Inactive)
REMARK    1  A    between atoms: C1_1  and  O21_2 
REMARK    2  A    between atoms: C22_13  and  O21_2 
REMARK    3  A    between atoms: C4_7  and  O31_8 
REMARK    4  A    between atoms: C32_24  and  O31_8 
ROOT
HETATM    1  C1  TCD E 805      -3.125  12.271  -0.987  1.00 43.72     0.078 A 
HETATM    2  C2  TCD E 805      -2.765  11.370   0.038  1.00 43.31    -0.048 A 
ATOM      3  H2  TCD E 805      -2.558  10.314  -0.205  1.00  0.00     0.087 H 
HETATM    4  C3  TCD E 805      -2.673  11.808   1.338  1.00 41.08    -0.048 A 
ATOM      5  H3  TCD E 805      -2.458  11.081   2.139  1.00  0.00     0.087 H 
HETATM    6  C4  TCD E 805      -2.848  13.168   1.666  1.00 42.16     0.078 A 
HETATM    7  C5  TCD E 805      -3.202  14.088   0.650  1.00 41.22    -0.048 A 
ATOM      8  H5  TCD E 805      -3.401  15.145   0.892  1.00  0.00     0.087 H 
HETATM    9  C6  TCD E 805      -3.295  13.629  -0.663  1.00 42.21    -0.048 A 
ATOM     10  H6  TCD E 805      -3.508  14.351  -1.470  1.00  0.00     0.087 H 
ENDROOT
BRANCH   1  11
HETATM   11  O21 TCD E 805      -3.257  11.886  -2.301  1.00 45.47    -0.292 OA
BRANCH  11  12
HETATM   12  C22 TCD E 805      -4.536  12.043  -2.814  1.00 38.07     0.170 A 
HETATM   13  C27 TCD E 805      -4.899  12.961  -3.851  1.00 27.30     0.087 A 
HETATM   14  C26 TCD E 805      -6.387  12.934  -4.240  1.00 37.32    -0.035 A 
HETATM   15 CL27 TCD E 805      -3.767  14.054  -4.640  1.00 54.00    -0.080 Cl
HETATM   16  C25 TCD E 805      -7.282  12.075  -3.614  1.00 41.60     0.051 A 
ATOM     17  H26 TCD E 805      -6.750  13.609  -5.032  1.00  0.00     0.089 H 
HETATM   18  C24 TCD E 805      -6.787  11.248  -2.631  1.00 44.36     0.000 A 
HETATM   19 CL25 TCD E 805      -8.979  12.041  -4.065  1.00 54.00    -0.083 Cl
HETATM   20  N23 TCD E 805      -5.498  11.224  -2.246  1.00 45.66    -0.344 N 
ATOM     21  H24 TCD E 805      -7.489  10.563  -2.129  1.00  0.00     0.114 H 
ATOM     22  H23 TCD E 805      -5.219  10.579  -1.506  1.00  0.00     0.167 HD
ENDBRANCH  11  12
ENDBRANCH   1  11
BRANCH   6  23
HETATM   23  O31 TCD E 805      -2.710  13.460   2.972  1.00 41.68    -0.292 OA
BRANCH  23  24
HETATM   24  C32 TCD E 805      -1.506  13.803   3.578  1.00 40.28     0.170 A 
HETATM   25  C37 TCD E 805      -1.345  13.551   4.973  1.00 48.32     0.087 A 
HETATM   26  C36 TCD E 805      -0.151  13.910   5.573  1.00 45.29    -0.035 A 
HETATM   27 CL37 TCD E 805      -2.616  12.787   5.931  1.00 54.00    -0.080 Cl
HETATM   28  C35 TCD E 805       0.904  14.505   4.846  1.00 36.60     0.051 A 
ATOM     29  H36 TCD E 805      -0.018  13.726   6.652  1.00  0.00     0.089 H 
HETATM   30  C34 TCD E 805       0.657  14.722   3.464  1.00 41.00     0.000 A 
HETATM   31 CL35 TCD E 805       2.421  14.981   5.607  1.00 54.00    -0.083 Cl
HETATM   32  N33 TCD E 805      -0.515  14.379   2.865  1.00 39.55    -0.344 N 
ATOM     33  H34 TCD E 805       1.448  15.186   2.851  1.00  0.00     0.114 H 
ATOM     34  H33 TCD E 805      -0.646  14.559   1.870  1.00  0.00     0.167 HD
ENDBRANCH  23  24
ENDBRANCH   6  23
TORSDOF 4
ENDMDL
MODEL 5
REMARK VINA RESULT:      -6.8     18.768     20.784
REMARK  4 active torsions:
REMARK  status: ('A' for Active; 'I' for Inactive)
REMARK    1  A    between atoms: C1_1  and  O21_2 
REMARK    2  A    between atoms: C22_13  and  O21_2 
REMARK    3  A    between atoms: C4_7  and  O31_8 
REMARK    4  A    between atoms: C32_24  and  O31_8 
ROOT
HETATM    1  C1  TCD E 805      -3.838  11.875  -0.177  1.00 43.72     0.078 A 
HETATM    2  C2  TCD E 805      -4.544  13.020   0.250  1.00 43.31    -0.048 A 
ATOM      3  H2  TCD E 805      -5.452  13.342  -0.289  1.00  0.00     0.087 H 
HETATM    4  C3  TCD E 805      -4.101  13.736   1.338  1.00 41.08    -0.048 A 
ATOM      5  H3  TCD E 805      -4.621  14.667   1.621  1.00  0.00     0.087 H 
HETATM    6  C4  TCD E 805      -2.995  13.302   2.098  1.00 42.16     0.078 A 
HETATM    7  C5  TCD E 805      -2.280  12.151   1.688  1.00 41.22    -0.048 A 
ATOM      8  H5  TCD E 805      -1.378  11.826   2.233  1.00  0.00     0.087 H 
HETATM    9  C6  TCD E 805      -2.738  11.437   0.582  1.00 42.21    -0.048 A 
ATOM     10  H6  TCD E 805      -2.225  10.504   0.295  1.00  0.00     0.087 H 
ENDROOT
BRANCH   1  11
HETATM   11  O21 TCD E 805      -4.220  11.135  -1.271  1.00 45.47    -0.292 OA
BRANCH  11  12
HETATM   12  C22 TCD E 805      -4.427  11.884  -2.421  1.00 38.07     0.170 A 
HETATM   13  C27 TCD E 805      -5.660  11.955  -3.145  1.00 27.30     0.087 A 
HETATM   14  C26 TCD E 805      -5.624  12.862  -4.386  1.00 37.32    -0.035 A 
HETATM   15 CL27 TCD E 805      -7.122  11.087  -2.688  1.00 54.00    -0.080 Cl
HETATM   16  C25 TCD E 805      -4.469  13.543  -4.750  1.00 41.60     0.051 A 
ATOM     17  H26 TCD E 805      -6.533  12.974  -4.999  1.00  0.00     0.089 H 
HETATM   18  C24 TCD E 805      -3.356  13.375  -3.957  1.00 44.36     0.000 A 
HETATM   19 CL25 TCD E 805      -4.432  14.583  -6.165  1.00 54.00    -0.083 Cl
HETATM   20  N23 TCD E 805      -3.324  12.597  -2.860  1.00 45.66    -0.344 N 
ATOM     21  H24 TCD E 805      -2.435  13.912  -4.238  1.00  0.00     0.114 H 
ATOM     22  H23 TCD E 805      -2.454  12.530  -2.331  1.00  0.00     0.167 HD
ENDBRANCH  11  12
ENDBRANCH   1  11
BRANCH   6  23
HETATM   23  O31 TCD E 805      -2.684  14.085   3.146  1.00 41.68    -0.292 OA
BRANCH  23  24
HETATM   24  C32 TCD E 805      -1.397  14.254   3.647  1.00 40.28     0.170 A 
HETATM   25  C37 TCD E 805      -1.099  13.761   4.951  1.00 48.32     0.087 A 
HETATM   26  C36 TCD E 805       0.178  13.948   5.449  1.00 45.29    -0.035 A 
HETATM   27 CL37 TCD E 805      -2.307  12.914   5.922  1.00 54.00    -0.080 Cl
HETATM   28  C35 TCD E 805       1.185  14.600   4.704  1.00 36.60     0.051 A 
ATOM     29  H36 TCD E 805       0.418  13.576   6.459  1.00  0.00     0.089 H 
HETATM   30  C34 TCD E 805       0.801  15.061   3.417  1.00 41.00     0.000 A 
HETATM   31 CL35 TCD E 805       2.809  14.856   5.339  1.00 54.00    -0.083 Cl
HETATM   32  N33 TCD E 805      -0.453  14.889   2.920  1.00 39.55    -0.344 N 
ATOM     33  H34 TCD E 805       1.551  15.580   2.796  1.00  0.00     0.114 H 
ATOM     34  H33 TCD E 805      -0.682  15.242   1.991  1.00  0.00     0.167 HD
ENDBRANCH  23  24
ENDBRANCH   6  23
TORSDOF 4
ENDMDL
MODEL 6
REMARK VINA RESULT:      -6.8     17.843     20.595
REMARK  4 active torsions:
REMARK  status: ('A' for Active; 'I' for Inactive)
REMARK    1  A    between atoms: C1_1  and  O21_2 
REMARK    2  A    between atoms: C22_13  and  O21_2 
REMARK    3  A    between atoms: C4_7  and  O31_8 
REMARK    4  A    between atoms: C32_24  and  O31_8 
ROOT
HETATM    1  C1  TCD E 805       1.107   2.960 -17.855  1.00 43.72     0.078 A 
HETATM    2  C2  TCD E 805       0.137   2.288 -18.630  1.00 43.31    -0.048 A 
ATOM      3  H2  TCD E 805       0.436   1.446 -19.277  1.00  0.00     0.087 H 
HETATM    4  C3  TCD E 805      -1.179   2.683 -18.578  1.00 41.08    -0.048 A 
ATOM      5  H3  TCD E 805      -1.916   2.195 -19.238  1.00  0.00     0.087 H 
HETATM    6  C4  TCD E 805      -1.604   3.699 -17.698  1.00 42.16     0.078 A 
HETATM    7  C5  TCD E 805      -0.646   4.379 -16.908  1.00 41.22    -0.048 A 
ATOM      8  H5  TCD E 805      -0.947   5.215 -16.254  1.00  0.00     0.087 H 
HETATM    9  C6  TCD E 805       0.685   3.970 -16.972  1.00 42.21    -0.048 A 
ATOM     10  H6  TCD E 805       1.427   4.452 -16.314  1.00  0.00     0.087 H 
ENDROOT
BRANCH   1  11
HETATM   11  O21 TCD E 805       2.441   2.627 -17.885  1.00 45.47    -0.292 OA
BRANCH  11  12
HETATM   12  C22 TCD E 805       3.064   2.878 -19.099  1.00 38.07     0.170 A 
HETATM   13  C27 TCD E 805       3.400   1.883 -20.072  1.00 27.30     0.087 A 
HETATM   14  C26 TCD E 805       4.085   2.428 -21.336  1.00 37.32    -0.035 A 
HETATM   15 CL27 TCD E 805       3.078   0.163 -19.875  1.00 54.00    -0.080 Cl
HETATM   16  C25 TCD E 805       4.344   3.785 -21.490  1.00 41.60     0.051 A 
ATOM     17  H26 TCD E 805       4.375   1.729 -22.138  1.00  0.00     0.089 H 
HETATM   18  C24 TCD E 805       3.964   4.623 -20.467  1.00 44.36     0.000 A 
HETATM   19 CL25 TCD E 805       5.120   4.406 -22.939  1.00 54.00    -0.083 Cl
HETATM   20  N23 TCD E 805       3.363   4.209 -19.337  1.00 45.66    -0.344 N 
ATOM     21  H24 TCD E 805       4.166   5.702 -20.580  1.00  0.00     0.114 H 
ATOM     22  H23 TCD E 805       3.117   4.902 -18.630  1.00  0.00     0.167 HD
ENDBRANCH  11  12
ENDBRANCH   1  11
BRANCH   6  23
HETATM   23  O31 TCD E 805      -2.921   3.969 -17.736  1.00 41.68    -0.292 OA
BRANCH  23  24
HETATM   24  C32 TCD E 805      -3.698   3.938 -18.889  1.00 40.28     0.170 A 
HETATM   25  C37 TCD E 805      -3.620   5.034 -19.798  1.00 48.32     0.087 A 
HETATM   26  C36 TCD E 805      -4.408   5.003 -20.935  1.00 45.29    -0.035 A 
HETATM   27 CL37 TCD E 805      -2.539   6.401 -19.513  1.00 54.00    -0.080 Cl
HETATM   28  C35 TCD E 805      -5.273   3.924 -21.218  1.00 36.60     0.051 A 
ATOM     29  H36 TCD E 805      -4.359   5.848 -21.642  1.00  0.00     0.089 H 
HETATM   30  C34 TCD E 805      -5.290   2.877 -20.258  1.00 41.00     0.000 A 
HETATM   31 CL35 TCD E 805      -6.292   3.886 -22.656  1.00 54.00    -0.083 Cl
HETATM   32  N33 TCD E 805      -4.525   2.899 -19.135  1.00 39.55    -0.344 N 
ATOM     33  H34 TCD E 805      -5.951   2.011 -20.432  1.00  0.00     0.114 H 
ATOM     34  H33 TCD E 805      -4.576   2.125 -18.473  1.00  0.00     0.167 HD
ENDBRANCH  23  24
ENDBRANCH   6  23
TORSDOF 4
ENDMDL
MODEL 7
REMARK VINA RESULT:      -6.7     14.899     17.195
REMARK  4 active torsions:
REMARK  status: ('A' for Active; 'I' for Inactive)
REMARK    1  A    between atoms: C1_1  and  O21_2 
REMARK    2  A    between atoms: C22_13  and  O21_2 
REMARK    3  A    between atoms: C4_7  and  O31_8 
REMARK    4  A    between atoms: C32_24  and  O31_8 
ROOT
HETATM    1  C1  TCD E 805      13.282   0.056   4.453  1.00 43.72     0.078 A 
HETATM    2  C2  TCD E 805      14.355  -0.685   3.912  1.00 43.31    -0.048 A 
ATOM      3  H2  TCD E 805      14.153  -1.540   3.244  1.00  0.00     0.087 H 
HETATM    4  C3  TCD E 805      15.651  -0.341   4.217  1.00 41.08    -0.048 A 
ATOM      5  H3  TCD E 805      16.478  -0.968   3.845  1.00  0.00     0.087 H 
HETATM    6  C4  TCD E 805      15.942   0.796   4.998  1.00 42.16     0.078 A 
HETATM    7  C5  TCD E 805      14.878   1.556   5.542  1.00 41.22    -0.048 A 
ATOM      8  H5  TCD E 805      15.081   2.416   6.202  1.00  0.00     0.087 H 
HETATM    9  C6  TCD E 805      13.569   1.195   5.227  1.00 42.21    -0.048 A 
ATOM     10  H6  TCD E 805      12.737   1.818   5.594  1.00  0.00     0.087 H 
ENDROOT
BRANCH   1  11
HETATM   11  O21 TCD E 805      11.966  -0.256   4.203  1.00 45.47    -0.292 OA
BRANCH  11  12
HETATM   12  C22 TCD E 805      11.589  -1.520   4.631  1.00 38.07     0.170 A 
HETATM   13  C27 TCD E 805      11.145  -2.579   3.776  1.00 27.30     0.087 A 
HETATM   14  C26 TCD E 805      10.790  -3.886   4.504  1.00 37.32    -0.035 A 
HETATM   15 CL27 TCD E 805      10.999  -2.438   2.027  1.00 54.00    -0.080 Cl
HETATM   16  C25 TCD E 805      10.900  -3.997   5.885  1.00 41.60     0.051 A 
ATOM     17  H26 TCD E 805      10.441  -4.753   3.919  1.00  0.00     0.089 H 
HETATM   18  C24 TCD E 805      11.340  -2.891   6.577  1.00 44.36     0.000 A 
HETATM   19 CL25 TCD E 805      10.500  -5.492   6.714  1.00 54.00    -0.083 Cl
HETATM   20  N23 TCD E 805      11.666  -1.721   5.999  1.00 45.66    -0.344 N 
ATOM     21  H24 TCD E 805      11.431  -2.970   7.673  1.00  0.00     0.114 H 
ATOM     22  H23 TCD E 805      11.982  -0.953   6.591  1.00  0.00     0.167 HD
ENDBRANCH  11  12
ENDBRANCH   1  11
BRANCH   6  23
HETATM   23  O31 TCD E 805      17.252   1.027   5.201  1.00 41.68    -0.292 OA
BRANCH  23  24
HETATM   24  C32 TCD E 805      17.775   1.647   6.330  1.00 40.28     0.170 A 
HETATM   25  C37 TCD E 805      17.941   0.879   7.520  1.00 48.32     0.087 A 
HETATM   26  C36 TCD E 805      18.447   1.507   8.644  1.00 45.29    -0.035 A 
HETATM   27 CL37 TCD E 805      17.534  -0.839   7.579  1.00 54.00    -0.080 Cl
HETATM   28  C35 TCD E 805      18.807   2.873   8.641  1.00 36.60     0.051 A 
ATOM     29  H36 TCD E 805      18.574   0.923   9.571  1.00  0.00     0.089 H 
HETATM   30  C34 TCD E 805      18.607   3.562   7.415  1.00 41.00     0.000 A 
HETATM   31 CL35 TCD E 805      19.436   3.684  10.074  1.00 54.00    -0.083 Cl
HETATM   32  N33 TCD E 805      18.104   2.957   6.307  1.00 39.55    -0.344 N 
ATOM     33  H34 TCD E 805      18.870   4.632   7.361  1.00  0.00     0.114 H 
ATOM     34  H33 TCD E 805      17.974   3.496   5.451  1.00  0.00     0.167 HD
ENDBRANCH  23  24
ENDBRANCH   6  23
TORSDOF 4
ENDMDL
MODEL 8
REMARK VINA RESULT:      -6.7     18.912     20.086
REMARK  4 active torsions:
REMARK  status: ('A' for Active; 'I' for Inactive)
REMARK    1  A    between atoms: C1_1  and  O21_2 
REMARK    2  A    between atoms: C22_13  and  O21_2 
REMARK    3  A    between atoms: C4_7  and  O31_8 
REMARK    4  A    between atoms: C32_24  and  O31_8 
ROOT
HETATM    1  C1  TCD E 805      -3.380  12.803   1.741  1.00 43.72     0.078 A 
HETATM    2  C2  TCD E 805      -2.713  11.675   1.217  1.00 43.31    -0.048 A 
ATOM      3  H2  TCD E 805      -2.005  11.111   1.847  1.00  0.00     0.087 H 
HETATM    4  C3  TCD E 805      -2.946  11.279  -0.079  1.00 41.08    -0.048 A 
ATOM      5  H3  TCD E 805      -2.369  10.438  -0.500  1.00  0.00     0.087 H 
HETATM    6  C4  TCD E 805      -3.908  11.927  -0.881  1.00 42.16     0.078 A 
HETATM    7  C5  TCD E 805      -4.593  13.056  -0.368  1.00 41.22    -0.048 A 
ATOM      8  H5  TCD E 805      -5.307  13.614  -0.996  1.00  0.00     0.087 H 
HETATM    9  C6  TCD E 805      -4.344  13.448   0.946  1.00 42.21    -0.048 A 
ATOM     10  H6  TCD E 805      -4.919  14.286   1.374  1.00  0.00     0.087 H 
ENDROOT
BRANCH   1  11
HETATM   11  O21 TCD E 805      -3.169  13.260   3.021  1.00 45.47    -0.292 OA
BRANCH  11  12
HETATM   12  C22 TCD E 805      -1.958  13.913   3.200  1.00 38.07     0.170 A 
HETATM   13  C27 TCD E 805      -1.713  15.290   2.893  1.00 27.30     0.087 A 
HETATM   14  C26 TCD E 805      -0.282  15.768   3.189  1.00 37.32    -0.035 A 
HETATM   15 CL27 TCD E 805      -2.923  16.382   2.227  1.00 54.00    -0.080 Cl
HETATM   16  C25 TCD E 805       0.675  14.906   3.710  1.00 41.60     0.051 A 
ATOM     17  H26 TCD E 805      -0.009  16.817   2.984  1.00  0.00     0.089 H 
HETATM   18  C24 TCD E 805       0.293  13.606   3.953  1.00 44.36     0.000 A 
HETATM   19 CL25 TCD E 805       2.307  15.456   4.054  1.00 54.00    -0.083 Cl
HETATM   20  N23 TCD E 805      -0.941  13.127   3.716  1.00 45.66    -0.344 N 
ATOM     21  H24 TCD E 805       1.046  12.914   4.366  1.00  0.00     0.114 H 
ATOM     22  H23 TCD E 805      -1.136  12.147   3.924  1.00  0.00     0.167 HD
ENDBRANCH  11  12
ENDBRANCH   1  11
BRANCH   6  23
HETATM   23  O31 TCD E 805      -4.048  11.423  -2.120  1.00 41.68    -0.292 OA
BRANCH  23  24
HETATM   24  C32 TCD E 805      -4.554  12.132  -3.205  1.00 40.28     0.170 A 
HETATM   25  C37 TCD E 805      -5.943  12.023  -3.508  1.00 48.32     0.087 A 
HETATM   26  C36 TCD E 805      -6.436  12.717  -4.599  1.00 45.29    -0.035 A 
HETATM   27 CL37 TCD E 805      -7.034  11.044  -2.522  1.00 54.00    -0.080 Cl
HETATM   28  C35 TCD E 805      -5.609  13.529  -5.405  1.00 36.60     0.051 A 
ATOM     29  H36 TCD E 805      -7.507  12.635  -4.845  1.00  0.00     0.089 H 
HETATM   30  C34 TCD E 805      -4.239  13.579  -5.033  1.00 41.00     0.000 A 
HETATM   31 CL35 TCD E 805      -6.226  14.403  -6.806  1.00 54.00    -0.083 Cl
HETATM   32  N33 TCD E 805      -3.743  12.895  -3.968  1.00 39.55    -0.344 N 
ATOM     33  H34 TCD E 805      -3.550  14.197  -5.633  1.00  0.00     0.114 H 
ATOM     34  H33 TCD E 805      -2.750  12.960  -3.743  1.00  0.00     0.167 HD
ENDBRANCH  23  24
ENDBRANCH   6  23
TORSDOF 4
ENDMDL
MODEL 9
REMARK VINA RESULT:      -6.7     18.004     19.810
REMARK  4 active torsions:
REMARK  status: ('A' for Active; 'I' for Inactive)
REMARK    1  A    between atoms: C1_1  and  O21_2 
REMARK    2  A    between atoms: C22_13  and  O21_2 
REMARK    3  A    between atoms: C4_7  and  O31_8 
REMARK    4  A    between atoms: C32_24  and  O31_8 
ROOT
HETATM    1  C1  TCD E 805       3.311   2.008 -20.650  1.00 43.72     0.078 A 
HETATM    2  C2  TCD E 805       1.972   2.250 -21.028  1.00 43.31    -0.048 A 
ATOM      3  H2  TCD E 805       1.721   2.423 -22.088  1.00  0.00     0.087 H 
HETATM    4  C3  TCD E 805       0.982   2.269 -20.074  1.00 41.08    -0.048 A 
ATOM      5  H3  TCD E 805      -0.049   2.526 -20.371  1.00  0.00     0.087 H 
HETATM    6  C4  TCD E 805       1.258   1.966 -18.725  1.00 42.16     0.078 A 
HETATM    7  C5  TCD E 805       2.594   1.714 -18.330  1.00 41.22    -0.048 A 
ATOM      8  H5  TCD E 805       2.843   1.532 -17.271  1.00  0.00     0.087 H 
HETATM    9  C6  TCD E 805       3.589   1.700 -19.306  1.00 42.21    -0.048 A 
ATOM     10  H6  TCD E 805       4.622   1.442 -19.017  1.00  0.00     0.087 H 
ENDROOT
BRANCH   1  11
HETATM   11  O21 TCD E 805       4.346   2.001 -21.555  1.00 45.47    -0.292 OA
BRANCH  11  12
HETATM   12  C22 TCD E 805       4.393   3.119 -22.375  1.00 38.07     0.170 A 
HETATM   13  C27 TCD E 805       3.840   3.196 -23.694  1.00 27.30     0.087 A 
HETATM   14  C26 TCD E 805       4.026   4.554 -24.389  1.00 37.32    -0.035 A 
HETATM   15 CL27 TCD E 805       3.010   1.864 -24.493  1.00 54.00    -0.080 Cl
HETATM   16  C25 TCD E 805       4.686   5.604 -23.761  1.00 41.60     0.051 A 
ATOM     17  H26 TCD E 805       3.627   4.699 -25.407  1.00  0.00     0.089 H 
HETATM   18  C24 TCD E 805       5.167   5.381 -22.491  1.00 44.36     0.000 A 
HETATM   19 CL25 TCD E 805       4.891   7.157 -24.555  1.00 54.00    -0.083 Cl
HETATM   20  N23 TCD E 805       5.036   4.217 -21.829  1.00 45.66    -0.344 N 
ATOM     21  H24 TCD E 805       5.691   6.208 -21.984  1.00  0.00     0.114 H 
ATOM     22  H23 TCD E 805       5.426   4.141 -20.889  1.00  0.00     0.167 HD
ENDBRANCH  11  12
ENDBRANCH   1  11
BRANCH   6  23
HETATM   23  O31 TCD E 805       0.193   2.002 -17.904  1.00 41.68    -0.292 OA
BRANCH  23  24
HETATM   24  C32 TCD E 805      -0.800   2.975 -17.946  1.00 40.28     0.170 A 
HETATM   25  C37 TCD E 805      -0.643   4.148 -17.151  1.00 48.32     0.087 A 
HETATM   26  C36 TCD E 805      -1.643   5.104 -17.184  1.00 45.29    -0.035 A 
HETATM   27 CL37 TCD E 805       0.790   4.408 -16.152  1.00 54.00    -0.080 Cl
HETATM   28  C35 TCD E 805      -2.798   4.953 -17.982  1.00 36.60     0.051 A 
ATOM     29  H36 TCD E 805      -1.535   6.013 -16.569  1.00  0.00     0.089 H 
HETATM   30  C34 TCD E 805      -2.874   3.753 -18.739  1.00 41.00     0.000 A 
HETATM   31 CL35 TCD E 805      -4.084   6.158 -18.016  1.00 54.00    -0.083 Cl
HETATM   32  N33 TCD E 805      -1.900   2.804 -18.709  1.00 39.55    -0.344 N 
ATOM     33  H34 TCD E 805      -3.758   3.585 -19.378  1.00  0.00     0.114 H 
ATOM     34  H33 TCD E 805      -2.002   1.957 -19.268  1.00  0.00     0.167 HD
ENDBRANCH  23  24
ENDBRANCH   6  23
TORSDOF 4
ENDMDL
MODEL 10
REMARK VINA RESULT:      -6.7     16.354     17.751
REMARK  4 active torsions:
REMARK  status: ('A' for Active; 'I' for Inactive)
REMARK    1  A    between atoms: C1_1  and  O21_2 
REMARK    2  A    between atoms: C22_13  and  O21_2 
REMARK    3  A    between atoms: C4_7  and  O31_8 
REMARK    4  A    between atoms: C32_24  and  O31_8 
ROOT
HETATM    1  C1  TCD E 805       6.701  -1.185   6.421  1.00 43.72     0.078 A 
HETATM    2  C2  TCD E 805       6.931  -1.615   5.096  1.00 43.31    -0.048 A 
ATOM      3  H2  TCD E 805       6.178  -1.419   4.314  1.00  0.00     0.087 H 
HETATM    4  C3  TCD E 805       8.094  -2.277   4.781  1.00 41.08    -0.048 A 
ATOM      5  H3  TCD E 805       8.233  -2.668   3.759  1.00  0.00     0.087 H 
HETATM    6  C4  TCD E 805       9.111  -2.468   5.739  1.00 42.16     0.078 A 
HETATM    7  C5  TCD E 805       8.900  -2.036   7.071  1.00 41.22    -0.048 A 
ATOM      8  H5  TCD E 805       9.657  -2.225   7.851  1.00  0.00     0.087 H 
HETATM    9  C6  TCD E 805       7.715  -1.368   7.377  1.00 42.21    -0.048 A 
ATOM     10  H6  TCD E 805       7.570  -0.973   8.397  1.00  0.00     0.087 H 
ENDROOT
BRANCH   1  11
HETATM   11  O21 TCD E 805       5.546  -0.541   6.801  1.00 45.47    -0.292 OA
BRANCH  11  12
HETATM   12  C22 TCD E 805       5.728   0.420   7.785  1.00 38.07     0.170 A 
HETATM   13  C27 TCD E 805       6.491   1.622   7.630  1.00 27.30     0.087 A 
HETATM   14  C26 TCD E 805       6.530   2.521   8.877  1.00 37.32    -0.035 A 
HETATM   15 CL27 TCD E 805       7.334   2.070   6.151  1.00 54.00    -0.080 Cl
HETATM   16  C25 TCD E 805       5.869   2.166  10.046  1.00 41.60     0.051 A 
ATOM     17  H26 TCD E 805       7.095   3.468   8.842  1.00  0.00     0.089 H 
HETATM   18  C24 TCD E 805       5.176   0.976  10.046  1.00 44.36     0.000 A 
HETATM   19 CL25 TCD E 805       5.911   3.198  11.466  1.00 54.00    -0.083 Cl
HETATM   20  N23 TCD E 805       5.103   0.147   8.990  1.00 45.66    -0.344 N 
ATOM     21  H24 TCD E 805       4.648   0.686  10.970  1.00  0.00     0.114 H 
ATOM     22  H23 TCD E 805       4.566  -0.716   9.080  1.00  0.00     0.167 HD
ENDBRANCH  11  12
ENDBRANCH   1  11
BRANCH   6  23
HETATM   23  O31 TCD E 805      10.202  -3.113   5.289  1.00 41.68    -0.292 OA
BRANCH  23  24
HETATM   24  C32 TCD E 805      11.419  -2.499   5.007  1.00 40.28     0.170 A 
HETATM   25  C37 TCD E 805      11.718  -2.162   3.654  1.00 48.32     0.087 A 
HETATM   26  C36 TCD E 805      12.937  -1.568   3.378  1.00 45.29    -0.035 A 
HETATM   27 CL37 TCD E 805      10.572  -2.470   2.346  1.00 54.00    -0.080 Cl
HETATM   28  C35 TCD E 805      13.877  -1.282   4.392  1.00 36.60     0.051 A 
ATOM     29  H36 TCD E 805      13.180  -1.308   2.335  1.00  0.00     0.089 H 
HETATM   30  C34 TCD E 805      13.498  -1.653   5.710  1.00 41.00     0.000 A 
HETATM   31 CL35 TCD E 805      15.438  -0.540   4.046  1.00 54.00    -0.083 Cl
HETATM   32  N33 TCD E 805      12.307  -2.244   5.991  1.00 39.55    -0.344 N 
ATOM     33  H34 TCD E 805      14.200  -1.454   6.538  1.00  0.00     0.114 H 
ATOM     34  H33 TCD E 805      12.082  -2.496   6.953  1.00  0.00     0.167 HD
ENDBRANCH  23  24
ENDBRANCH   6  23
TORSDOF 4
ENDMDL
