MODEL 1
REMARK VINA RESULT:      -7.0      0.000      0.000
REMARK  4 active torsions:
REMARK  status: ('A' for Active; 'I' for Inactive)
REMARK    1  A    between atoms: C1_1  and  O21_2 
REMARK    2  A    between atoms: C22_13  and  O21_2 
REMARK    3  A    between atoms: C4_7  and  O31_8 
REMARK    4  A    between atoms: C32_24  and  O31_8 
ROOT
HETATM    1  C1  TCD E 805      -0.003  -1.849 -16.226  1.00 43.72     0.078 A 
HETATM    2  C2  TCD E 805       0.214  -1.436 -17.559  1.00 43.31    -0.048 A 
ATOM      3  H2  TCD E 805       0.578  -0.416 -17.768  1.00  0.00     0.087 H 
HETATM    4  C3  TCD E 805      -0.027  -2.307 -18.596  1.00 41.08    -0.048 A 
ATOM      5  H3  TCD E 805       0.081  -1.953 -19.636  1.00  0.00     0.087 H 
HETATM    6  C4  TCD E 805      -0.411  -3.643 -18.357  1.00 42.16     0.078 A 
HETATM    7  C5  TCD E 805      -0.626  -4.075 -17.026  1.00 41.22    -0.048 A 
ATOM      8  H5  TCD E 805      -0.981  -5.098 -16.817  1.00  0.00     0.087 H 
HETATM    9  C6  TCD E 805      -0.380  -3.181 -15.984  1.00 42.21    -0.048 A 
ATOM     10  H6  TCD E 805      -0.485  -3.529 -14.943  1.00  0.00     0.087 H 
ENDROOT
BRANCH   1  11
HETATM   11  O21 TCD E 805       0.197  -1.014 -15.151  1.00 45.47    -0.292 OA
BRANCH  11  12
HETATM   12  C22 TCD E 805      -0.418   0.223 -15.268  1.00 38.07     0.170 A 
HETATM   13  C27 TCD E 805      -1.827   0.452 -15.180  1.00 27.30     0.087 A 
HETATM   14  C26 TCD E 805      -2.250   1.923 -15.340  1.00 37.32    -0.035 A 
HETATM   15 CL27 TCD E 805      -3.018  -0.818 -14.916  1.00 54.00    -0.080 Cl
HETATM   16  C25 TCD E 805      -1.312   2.925 -15.553  1.00 41.60     0.051 A 
ATOM     17  H26 TCD E 805      -3.320   2.187 -15.285  1.00  0.00     0.089 H 
HETATM   18  C24 TCD E 805       0.012   2.552 -15.615  1.00 44.36     0.000 A 
HETATM   19 CL25 TCD E 805      -1.796   4.604 -15.729  1.00 54.00    -0.083 Cl
HETATM   20  N23 TCD E 805       0.445   1.286 -15.484  1.00 45.66    -0.344 N 
ATOM     21  H24 TCD E 805       0.764   3.342 -15.782  1.00  0.00     0.114 H 
ATOM     22  H23 TCD E 805       1.446   1.101 -15.546  1.00  0.00     0.167 HD
ENDBRANCH  11  12
ENDBRANCH   1  11
BRANCH   6  23
HETATM   23  O31 TCD E 805      -0.594  -4.388 -19.461  1.00 41.68    -0.292 OA
BRANCH  23  24
HETATM   24  C32 TCD E 805       0.419  -5.065 -20.130  1.00 40.28     0.170 A 
HETATM   25  C37 TCD E 805       0.856  -4.574 -21.395  1.00 48.32     0.087 A 
HETATM   26  C36 TCD E 805       1.852  -5.262 -22.061  1.00 45.29    -0.035 A 
HETATM   27 CL37 TCD E 805       0.170  -3.109 -22.107  1.00 54.00    -0.080 Cl
HETATM   28  C35 TCD E 805       2.447  -6.425 -21.525  1.00 36.60     0.051 A 
ATOM     29  H36 TCD E 805       2.193  -4.892 -23.042  1.00  0.00     0.089 H 
HETATM   30  C34 TCD E 805       1.951  -6.847 -20.262  1.00 41.00     0.000 A 
HETATM   31 CL35 TCD E 805       3.706  -7.318 -22.378  1.00 54.00    -0.083 Cl
HETATM   32  N33 TCD E 805       0.968  -6.181 -19.602  1.00 39.55    -0.344 N 
ATOM     33  H34 TCD E 805       2.381  -7.752 -19.800  1.00  0.00     0.114 H 
ATOM     34  H33 TCD E 805       0.641  -6.527 -18.699  1.00  0.00     0.167 HD
ENDBRANCH  23  24
ENDBRANCH   6  23
TORSDOF 4
ENDMDL
MODEL 2
REMARK VINA RESULT:      -6.9      4.532      9.570
REMARK  4 active torsions:
REMARK  status: ('A' for Active; 'I' for Inactive)
REMARK    1  A    between atoms: C1_1  and  O21_2 
REMARK    2  A    between atoms: C22_13  and  O21_2 
REMARK    3  A    between atoms: C4_7  and  O31_8 
REMARK    4  A    between atoms: C32_24  and  O31_8 
ROOT
HETATM    1  C1  TCD E 805      -0.358   2.354 -14.210  1.00 43.72     0.078 A 
HETATM    2  C2  TCD E 805       0.776   3.103 -14.594  1.00 43.31    -0.048 A 
ATOM      3  H2  TCD E 805       1.786   2.756 -14.320  1.00  0.00     0.087 H 
HETATM    4  C3  TCD E 805       0.620   4.268 -15.311  1.00 41.08    -0.048 A 
ATOM      5  H3  TCD E 805       1.506   4.880 -15.548  1.00  0.00     0.087 H 
HETATM    6  C4  TCD E 805      -0.652   4.693 -15.749  1.00 42.16     0.078 A 
HETATM    7  C5  TCD E 805      -1.798   3.948 -15.378  1.00 41.22    -0.048 A 
ATOM      8  H5  TCD E 805      -2.807   4.292 -15.661  1.00  0.00     0.087 H 
HETATM    9  C6  TCD E 805      -1.625   2.773 -14.650  1.00 42.21    -0.048 A 
ATOM     10  H6  TCD E 805      -2.507   2.154 -14.411  1.00  0.00     0.087 H 
ENDROOT
BRANCH   1  11
HETATM   11  O21 TCD E 805      -0.263   1.197 -13.472  1.00 45.47    -0.292 OA
BRANCH  11  12
HETATM   12  C22 TCD E 805      -0.480   0.037 -14.200  1.00 38.07     0.170 A 
HETATM   13  C27 TCD E 805      -1.623  -0.813 -14.071  1.00 27.30     0.087 A 
HETATM   14  C26 TCD E 805      -1.621  -2.038 -15.002  1.00 37.32    -0.035 A 
HETATM   15 CL27 TCD E 805      -2.948  -0.520 -12.948  1.00 54.00    -0.080 Cl
HETATM   16  C25 TCD E 805      -0.574  -2.273 -15.885  1.00 41.60     0.051 A 
ATOM     17  H26 TCD E 805      -2.467  -2.745 -14.967  1.00  0.00     0.089 H 
HETATM   18  C24 TCD E 805       0.461  -1.366 -15.897  1.00 44.36     0.000 A 
HETATM   19 CL25 TCD E 805      -0.576  -3.668 -16.951  1.00 54.00    -0.083 Cl
HETATM   20  N23 TCD E 805       0.518  -0.277 -15.109  1.00 45.66    -0.344 N 
ATOM     21  H24 TCD E 805       1.295  -1.543 -16.596  1.00  0.00     0.114 H 
ATOM     22  H23 TCD E 805       1.326   0.340 -15.184  1.00  0.00     0.167 HD
ENDBRANCH  11  12
ENDBRANCH   1  11
BRANCH   6  23
HETATM   23  O31 TCD E 805      -0.656   5.836 -16.457  1.00 41.68    -0.292 OA
BRANCH  23  24
HETATM   24  C32 TCD E 805      -1.805   6.497 -16.877  1.00 40.28     0.170 A 
HETATM   25  C37 TCD E 805      -2.330   6.208 -18.171  1.00 48.32     0.087 A 
HETATM   26  C36 TCD E 805      -3.462   6.882 -18.587  1.00 45.29    -0.035 A 
HETATM   27 CL37 TCD E 805      -1.581   5.006 -19.227  1.00 54.00    -0.080 Cl
HETATM   28  C35 TCD E 805      -4.110   7.835 -17.773  1.00 36.60     0.051 A 
ATOM     29  H36 TCD E 805      -3.873   6.668 -19.588  1.00  0.00     0.089 H 
HETATM   30  C34 TCD E 805      -3.519   8.065 -16.501  1.00 41.00     0.000 A 
HETATM   31 CL35 TCD E 805      -5.545   8.712 -18.305  1.00 54.00    -0.083 Cl
HETATM   32  N33 TCD E 805      -2.402   7.413 -16.083  1.00 39.55    -0.344 N 
ATOM     33  H34 TCD E 805      -3.985   8.802 -15.825  1.00  0.00     0.114 H 
ATOM     34  H33 TCD E 805      -2.012   7.616 -15.163  1.00  0.00     0.167 HD
ENDBRANCH  23  24
ENDBRANCH   6  23
TORSDOF 4
ENDMDL
MODEL 3
REMARK VINA RESULT:      -6.9      0.801      8.584
REMARK  4 active torsions:
REMARK  status: ('A' for Active; 'I' for Inactive)
REMARK    1  A    between atoms: C1_1  and  O21_2 
REMARK    2  A    between atoms: C22_13  and  O21_2 
REMARK    3  A    between atoms: C4_7  and  O31_8 
REMARK    4  A    between atoms: C32_24  and  O31_8 
ROOT
HETATM    1  C1  TCD E 805      -0.616  -3.966 -18.842  1.00 43.72     0.078 A 
HETATM    2  C2  TCD E 805      -0.501  -4.570 -17.571  1.00 43.31    -0.048 A 
ATOM      3  H2  TCD E 805      -0.582  -5.665 -17.471  1.00  0.00     0.087 H 
HETATM    4  C3  TCD E 805      -0.287  -3.791 -16.457  1.00 41.08    -0.048 A 
ATOM      5  H3  TCD E 805      -0.265  -4.266 -15.461  1.00  0.00     0.087 H 
HETATM    6  C4  TCD E 805      -0.095  -2.398 -16.564  1.00 42.16     0.078 A 
HETATM    7  C5  TCD E 805      -0.200  -1.778 -17.832  1.00 41.22    -0.048 A 
ATOM      8  H5  TCD E 805      -0.110  -0.684 -17.933  1.00  0.00     0.087 H 
HETATM    9  C6  TCD E 805      -0.420  -2.579 -18.952  1.00 42.21    -0.048 A 
ATOM     10  H6  TCD E 805      -0.440  -2.112 -19.951  1.00  0.00     0.087 H 
ENDROOT
BRANCH   1  11
HETATM   11  O21 TCD E 805      -0.855  -4.692 -19.986  1.00 45.47    -0.292 OA
BRANCH  11  12
HETATM   12  C22 TCD E 805       0.291  -5.141 -20.626  1.00 38.07     0.170 A 
HETATM   13  C27 TCD E 805       0.910  -4.503 -21.747  1.00 27.30     0.087 A 
HETATM   14  C26 TCD E 805       2.176  -5.205 -22.267  1.00 37.32    -0.035 A 
HETATM   15 CL27 TCD E 805       0.302  -3.034 -22.504  1.00 54.00    -0.080 Cl
HETATM   16  C25 TCD E 805       2.654  -6.366 -21.673  1.00 41.60     0.051 A 
ATOM     17  H26 TCD E 805       2.716  -4.778 -23.129  1.00  0.00     0.089 H 
HETATM   18  C24 TCD E 805       1.951  -6.865 -20.600  1.00 44.36     0.000 A 
HETATM   19 CL25 TCD E 805       4.104  -7.162 -22.263  1.00 54.00    -0.083 Cl
HETATM   20  N23 TCD E 805       0.838  -6.300 -20.099  1.00 45.66    -0.344 N 
ATOM     21  H24 TCD E 805       2.324  -7.786 -20.121  1.00  0.00     0.114 H 
ATOM     22  H23 TCD E 805       0.380  -6.741 -19.302  1.00  0.00     0.167 HD
ENDBRANCH  11  12
ENDBRANCH   1  11
BRANCH   6  23
HETATM   23  O31 TCD E 805       0.124  -1.764 -15.399  1.00 41.68    -0.292 OA
BRANCH  23  24
HETATM   24  C32 TCD E 805       0.054  -0.386 -15.227  1.00 40.28     0.170 A 
HETATM   25  C37 TCD E 805      -1.228   0.226 -15.101  1.00 48.32     0.087 A 
HETATM   26  C36 TCD E 805      -1.289   1.599 -14.947  1.00 45.29    -0.035 A 
HETATM   27 CL37 TCD E 805      -2.715  -0.726 -15.119  1.00 54.00    -0.080 Cl
HETATM   28  C35 TCD E 805      -0.129   2.401 -14.904  1.00 36.60     0.051 A 
ATOM     29  H36 TCD E 805      -2.276   2.081 -14.853  1.00  0.00     0.089 H 
HETATM   30  C34 TCD E 805       1.106   1.711 -15.040  1.00 41.00     0.000 A 
HETATM   31 CL35 TCD E 805      -0.201   4.154 -14.726  1.00 54.00    -0.083 Cl
HETATM   32  N33 TCD E 805       1.178   0.363 -15.198  1.00 39.55    -0.344 N 
ATOM     33  H34 TCD E 805       2.043   2.292 -15.015  1.00  0.00     0.114 H 
ATOM     34  H33 TCD E 805       2.088  -0.086 -15.297  1.00  0.00     0.167 HD
ENDBRANCH  23  24
ENDBRANCH   6  23
TORSDOF 4
ENDMDL
MODEL 4
REMARK VINA RESULT:      -6.8      4.567      8.579
REMARK  4 active torsions:
REMARK  status: ('A' for Active; 'I' for Inactive)
REMARK    1  A    between atoms: C1_1  and  O21_2 
REMARK    2  A    between atoms: C22_13  and  O21_2 
REMARK    3  A    between atoms: C4_7  and  O31_8 
REMARK    4  A    between atoms: C32_24  and  O31_8 
ROOT
HETATM    1  C1  TCD E 805      -0.557   2.224 -14.167  1.00 43.72     0.078 A 
HETATM    2  C2  TCD E 805      -1.762   2.741 -14.690  1.00 43.31    -0.048 A 
ATOM      3  H2  TCD E 805      -2.719   2.238 -14.471  1.00  0.00     0.087 H 
HETATM    4  C3  TCD E 805      -1.742   3.872 -15.473  1.00 41.08    -0.048 A 
ATOM      5  H3  TCD E 805      -2.680   4.229 -15.931  1.00  0.00     0.087 H 
HETATM    6  C4  TCD E 805      -0.546   4.584 -15.700  1.00 42.16     0.078 A 
HETATM    7  C5  TCD E 805       0.670   4.083 -15.177  1.00 41.22    -0.048 A 
ATOM      8  H5  TCD E 805       1.625   4.591 -15.389  1.00  0.00     0.087 H 
HETATM    9  C6  TCD E 805       0.636   2.934 -14.388  1.00 42.21    -0.048 A 
ATOM     10  H6  TCD E 805       1.569   2.573 -13.924  1.00  0.00     0.087 H 
ENDROOT
BRANCH   1  11
HETATM   11  O21 TCD E 805      -0.513   1.083 -13.400  1.00 45.47    -0.292 OA
BRANCH  11  12
HETATM   12  C22 TCD E 805      -0.668  -0.093 -14.117  1.00 38.07     0.170 A 
HETATM   13  C27 TCD E 805      -1.787  -0.979 -14.012  1.00 27.30     0.087 A 
HETATM   14  C26 TCD E 805      -1.715  -2.216 -14.924  1.00 37.32    -0.035 A 
HETATM   15 CL27 TCD E 805      -3.155  -0.715 -12.936  1.00 54.00    -0.080 Cl
HETATM   16  C25 TCD E 805      -0.633  -2.428 -15.770  1.00 41.60     0.051 A 
ATOM     17  H26 TCD E 805      -2.538  -2.950 -14.906  1.00  0.00     0.089 H 
HETATM   18  C24 TCD E 805       0.371  -1.487 -15.763  1.00 44.36     0.000 A 
HETATM   19 CL25 TCD E 805      -0.556  -3.837 -16.815  1.00 54.00    -0.083 Cl
HETATM   20  N23 TCD E 805       0.368  -0.387 -14.990  1.00 45.66    -0.344 N 
ATOM     21  H24 TCD E 805       1.233  -1.646 -16.433  1.00  0.00     0.114 H 
ATOM     22  H23 TCD E 805       1.158   0.256 -15.048  1.00  0.00     0.167 HD
ENDBRANCH  11  12
ENDBRANCH   1  11
BRANCH   6  23
HETATM   23  O31 TCD E 805      -0.675   5.682 -16.466  1.00 41.68    -0.292 OA
BRANCH  23  24
HETATM   24  C32 TCD E 805      -0.995   5.664 -17.819  1.00 40.28     0.170 A 
HETATM   25  C37 TCD E 805      -1.747   6.747 -18.362  1.00 48.32     0.087 A 
HETATM   26  C36 TCD E 805      -2.074   6.714 -19.705  1.00 45.29    -0.035 A 
HETATM   27 CL37 TCD E 805      -2.244   8.120 -17.368  1.00 54.00    -0.080 Cl
HETATM   28  C35 TCD E 805      -1.682   5.651 -20.546  1.00 36.60     0.051 A 
ATOM     29  H36 TCD E 805      -2.659   7.545 -20.132  1.00  0.00     0.089 H 
HETATM   30  C34 TCD E 805      -0.938   4.612 -19.923  1.00 41.00     0.000 A 
HETATM   31 CL35 TCD E 805      -2.111   5.593 -22.256  1.00 54.00    -0.083 Cl
HETATM   32  N33 TCD E 805      -0.617   4.631 -18.603  1.00 39.55    -0.344 N 
ATOM     33  H34 TCD E 805      -0.609   3.755 -20.536  1.00  0.00     0.114 H 
ATOM     34  H33 TCD E 805      -0.086   3.859 -18.201  1.00  0.00     0.167 HD
ENDBRANCH  23  24
ENDBRANCH   6  23
TORSDOF 4
ENDMDL
MODEL 5
REMARK VINA RESULT:      -6.7      1.839      2.594
REMARK  4 active torsions:
REMARK  status: ('A' for Active; 'I' for Inactive)
REMARK    1  A    between atoms: C1_1  and  O21_2 
REMARK    2  A    between atoms: C22_13  and  O21_2 
REMARK    3  A    between atoms: C4_7  and  O31_8 
REMARK    4  A    between atoms: C32_24  and  O31_8 
ROOT
HETATM    1  C1  TCD E 805      -0.439  -1.755 -15.964  1.00 43.72     0.078 A 
HETATM    2  C2  TCD E 805      -0.623  -1.161 -17.232  1.00 43.31    -0.048 A 
ATOM      3  H2  TCD E 805      -0.624  -0.062 -17.331  1.00  0.00     0.087 H 
HETATM    4  C3  TCD E 805      -0.801  -1.952 -18.343  1.00 41.08    -0.048 A 
ATOM      5  H3  TCD E 805      -1.011  -1.478 -19.317  1.00  0.00     0.087 H 
HETATM    6  C4  TCD E 805      -0.720  -3.358 -18.261  1.00 42.16     0.078 A 
HETATM    7  C5  TCD E 805      -0.528  -3.970 -16.999  1.00 41.22    -0.048 A 
ATOM      8  H5  TCD E 805      -0.519  -5.068 -16.902  1.00  0.00     0.087 H 
HETATM    9  C6  TCD E 805      -0.352  -3.156 -15.881  1.00 42.21    -0.048 A 
ATOM     10  H6  TCD E 805      -0.139  -3.623 -14.904  1.00  0.00     0.087 H 
ENDROOT
BRANCH   1  11
HETATM   11  O21 TCD E 805      -0.281  -1.014 -14.816  1.00 45.47    -0.292 OA
BRANCH  11  12
HETATM   12  C22 TCD E 805      -1.469  -0.680 -14.185  1.00 38.07     0.170 A 
HETATM   13  C27 TCD E 805      -1.819   0.630 -13.730  1.00 27.30     0.087 A 
HETATM   14  C26 TCD E 805      -3.202   0.731 -13.064  1.00 37.32    -0.035 A 
HETATM   15 CL27 TCD E 805      -0.778   2.041 -13.895  1.00 54.00    -0.080 Cl
HETATM   16  C25 TCD E 805      -4.022  -0.382 -12.929  1.00 41.60     0.051 A 
ATOM     17  H26 TCD E 805      -3.550   1.707 -12.685  1.00  0.00     0.089 H 
HETATM   18  C24 TCD E 805      -3.550  -1.580 -13.415  1.00 44.36     0.000 A 
HETATM   19 CL25 TCD E 805      -5.603  -0.264 -12.174  1.00 54.00    -0.083 Cl
HETATM   20  N23 TCD E 805      -2.352  -1.735 -14.006  1.00 45.66    -0.344 N 
ATOM     21  H24 TCD E 805      -4.195  -2.469 -13.314  1.00  0.00     0.114 H 
ATOM     22  H23 TCD E 805      -2.083  -2.661 -14.335  1.00  0.00     0.167 HD
ENDBRANCH  11  12
ENDBRANCH   1  11
BRANCH   6  23
HETATM   23  O31 TCD E 805      -0.893  -4.006 -19.426  1.00 41.68    -0.292 OA
BRANCH  23  24
HETATM   24  C32 TCD E 805       0.103  -4.715 -20.089  1.00 40.28     0.170 A 
HETATM   25  C37 TCD E 805       0.696  -4.141 -21.252  1.00 48.32     0.087 A 
HETATM   26  C36 TCD E 805       1.674  -4.859 -21.914  1.00 45.29    -0.035 A 
HETATM   27 CL37 TCD E 805       0.225  -2.544 -21.841  1.00 54.00    -0.080 Cl
HETATM   28  C35 TCD E 805       2.101  -6.130 -21.471  1.00 36.60     0.051 A 
ATOM     29  H36 TCD E 805       2.136  -4.426 -22.816  1.00  0.00     0.089 H 
HETATM   30  C34 TCD E 805       1.455  -6.628 -20.307  1.00 41.00     0.000 A 
HETATM   31 CL35 TCD E 805       3.336  -7.059 -22.321  1.00 54.00    -0.083 Cl
HETATM   32  N33 TCD E 805       0.489  -5.933 -19.652  1.00 39.55    -0.344 N 
ATOM     33  H34 TCD E 805       1.751  -7.618 -19.920  1.00  0.00     0.114 H 
ATOM     34  H33 TCD E 805       0.051  -6.335 -18.823  1.00  0.00     0.167 HD
ENDBRANCH  23  24
ENDBRANCH   6  23
TORSDOF 4
ENDMDL
MODEL 6
REMARK VINA RESULT:      -6.6      6.733      8.355
REMARK  4 active torsions:
REMARK  status: ('A' for Active; 'I' for Inactive)
REMARK    1  A    between atoms: C1_1  and  O21_2 
REMARK    2  A    between atoms: C22_13  and  O21_2 
REMARK    3  A    between atoms: C4_7  and  O31_8 
REMARK    4  A    between atoms: C32_24  and  O31_8 
ROOT
HETATM    1  C1  TCD E 805      -0.590   4.194 -15.989  1.00 43.72     0.078 A 
HETATM    2  C2  TCD E 805       0.308   3.889 -14.943  1.00 43.31    -0.048 A 
ATOM      3  H2  TCD E 805       1.315   4.338 -14.932  1.00  0.00     0.087 H 
HETATM    4  C3  TCD E 805      -0.074   3.030 -13.938  1.00 41.08    -0.048 A 
ATOM      5  H3  TCD E 805       0.658   2.746 -13.162  1.00  0.00     0.087 H 
HETATM    6  C4  TCD E 805      -1.383   2.507 -13.879  1.00 42.16     0.078 A 
HETATM    7  C5  TCD E 805      -2.298   2.810 -14.916  1.00 41.22    -0.048 A 
ATOM      8  H5  TCD E 805      -3.308   2.368 -14.922  1.00  0.00     0.087 H 
HETATM    9  C6  TCD E 805      -1.897   3.679 -15.930  1.00 42.21    -0.048 A 
ATOM     10  H6  TCD E 805      -2.624   3.970 -16.707  1.00  0.00     0.087 H 
ENDROOT
BRANCH   1  11
HETATM   11  O21 TCD E 805      -0.255   5.026 -17.032  1.00 45.47    -0.292 OA
BRANCH  11  12
HETATM   12  C22 TCD E 805      -1.262   5.900 -17.411  1.00 38.07     0.170 A 
HETATM   13  C27 TCD E 805      -1.921   5.894 -18.681  1.00 27.30     0.087 A 
HETATM   14  C26 TCD E 805      -3.008   6.970 -18.846  1.00 37.32    -0.035 A 
HETATM   15 CL27 TCD E 805      -1.547   4.766 -19.980  1.00 54.00    -0.080 Cl
HETATM   16  C25 TCD E 805      -3.302   7.863 -17.823  1.00 41.60     0.051 A 
ATOM     17  H26 TCD E 805      -3.567   7.034 -19.795  1.00  0.00     0.089 H 
HETATM   18  C24 TCD E 805      -2.582   7.748 -16.655  1.00 44.36     0.000 A 
HETATM   19 CL25 TCD E 805      -4.547   9.087 -18.010  1.00 54.00    -0.083 Cl
HETATM   20  N23 TCD E 805      -1.620   6.832 -16.449  1.00 45.66    -0.344 N 
ATOM     21  H24 TCD E 805      -2.809   8.453 -15.836  1.00  0.00     0.114 H 
ATOM     22  H23 TCD E 805      -1.136   6.821 -15.552  1.00  0.00     0.167 HD
ENDBRANCH  11  12
ENDBRANCH   1  11
BRANCH   6  23
HETATM   23  O31 TCD E 805      -1.625   1.699 -12.833  1.00 41.68    -0.292 OA
BRANCH  23  24
HETATM   24  C32 TCD E 805      -2.492   0.612 -12.862  1.00 40.28     0.170 A 
HETATM   25  C37 TCD E 805      -2.100  -0.562 -13.568  1.00 48.32     0.087 A 
HETATM   26  C36 TCD E 805      -2.975  -1.632 -13.606  1.00 45.29    -0.035 A 
HETATM   27 CL37 TCD E 805      -0.529  -0.681 -14.368  1.00 54.00    -0.080 Cl
HETATM   28  C35 TCD E 805      -4.232  -1.595 -12.965  1.00 36.60     0.051 A 
ATOM     29  H36 TCD E 805      -2.682  -2.542 -14.153  1.00  0.00     0.089 H 
HETATM   30  C34 TCD E 805      -4.545  -0.385 -12.286  1.00 41.00     0.000 A 
HETATM   31 CL35 TCD E 805      -5.361  -2.949 -13.023  1.00 54.00    -0.083 Cl
HETATM   32  N33 TCD E 805      -3.695   0.674 -12.248  1.00 39.55    -0.344 N 
ATOM     33  H34 TCD E 805      -5.516  -0.304 -11.770  1.00  0.00     0.114 H 
ATOM     34  H33 TCD E 805      -3.966   1.523 -11.753  1.00  0.00     0.167 HD
ENDBRANCH  23  24
ENDBRANCH   6  23
TORSDOF 4
ENDMDL
MODEL 7
REMARK VINA RESULT:      -6.5      1.818      1.931
REMARK  4 active torsions:
REMARK  status: ('A' for Active; 'I' for Inactive)
REMARK    1  A    between atoms: C1_1  and  O21_2 
REMARK    2  A    between atoms: C22_13  and  O21_2 
REMARK    3  A    between atoms: C4_7  and  O31_8 
REMARK    4  A    between atoms: C32_24  and  O31_8 
ROOT
HETATM    1  C1  TCD E 805      -0.965  -2.274 -16.401  1.00 43.72     0.078 A 
HETATM    2  C2  TCD E 805      -1.192  -1.466 -17.537  1.00 43.31    -0.048 A 
ATOM      3  H2  TCD E 805      -1.557  -0.432 -17.414  1.00  0.00     0.087 H 
HETATM    4  C3  TCD E 805      -0.958  -1.969 -18.796  1.00 41.08    -0.048 A 
ATOM      5  H3  TCD E 805      -1.202  -1.353 -19.678  1.00  0.00     0.087 H 
HETATM    6  C4  TCD E 805      -0.412  -3.256 -18.980  1.00 42.16     0.078 A 
HETATM    7  C5  TCD E 805      -0.172  -4.076 -17.851  1.00 41.22    -0.048 A 
ATOM      8  H5  TCD E 805       0.202  -5.106 -17.974  1.00  0.00     0.087 H 
HETATM    9  C6  TCD E 805      -0.416  -3.555 -16.582  1.00 42.21    -0.048 A 
ATOM     10  H6  TCD E 805      -0.172  -4.164 -15.695  1.00  0.00     0.087 H 
ENDROOT
BRANCH   1  11
HETATM   11  O21 TCD E 805      -1.205  -1.833 -15.120  1.00 45.47    -0.292 OA
BRANCH  11  12
HETATM   12  C22 TCD E 805      -0.774  -0.538 -14.873  1.00 38.07     0.170 A 
HETATM   13  C27 TCD E 805      -1.627   0.566 -14.556  1.00 27.30     0.087 A 
HETATM   14  C26 TCD E 805      -0.893   1.898 -14.323  1.00 37.32    -0.035 A 
HETATM   15 CL27 TCD E 805      -3.380   0.455 -14.438  1.00 54.00    -0.080 Cl
HETATM   16  C25 TCD E 805       0.490   1.988 -14.421  1.00 41.60     0.051 A 
ATOM     17  H26 TCD E 805      -1.476   2.800 -14.073  1.00  0.00     0.089 H 
HETATM   18  C24 TCD E 805       1.180   0.839 -14.734  1.00 44.36     0.000 A 
HETATM   19 CL25 TCD E 805       1.327   3.508 -14.147  1.00 54.00    -0.083 Cl
HETATM   20  N23 TCD E 805       0.598  -0.354 -14.950  1.00 45.66    -0.344 N 
ATOM     21  H24 TCD E 805       2.278   0.900 -14.812  1.00  0.00     0.114 H 
ATOM     22  H23 TCD E 805       1.188  -1.154 -15.180  1.00  0.00     0.167 HD
ENDBRANCH  11  12
ENDBRANCH   1  11
BRANCH   6  23
HETATM   23  O31 TCD E 805      -0.217  -3.612 -20.262  1.00 41.68    -0.292 OA
BRANCH  23  24
HETATM   24  C32 TCD E 805       0.026  -4.913 -20.690  1.00 40.28     0.170 A 
HETATM   25  C37 TCD E 805      -1.039  -5.649 -21.287  1.00 48.32     0.087 A 
HETATM   26  C36 TCD E 805      -0.793  -6.947 -21.695  1.00 45.29    -0.035 A 
HETATM   27 CL37 TCD E 805      -2.637  -4.936 -21.530  1.00 54.00    -0.080 Cl
HETATM   28  C35 TCD E 805       0.471  -7.555 -21.543  1.00 36.60     0.051 A 
ATOM     29  H36 TCD E 805      -1.612  -7.526 -22.154  1.00  0.00     0.089 H 
HETATM   30  C34 TCD E 805       1.474  -6.751 -20.936  1.00 41.00     0.000 A 
HETATM   31 CL35 TCD E 805       0.786  -9.216 -22.045  1.00 54.00    -0.083 Cl
HETATM   32  N33 TCD E 805       1.243  -5.476 -20.526  1.00 39.55    -0.344 N 
ATOM     33  H34 TCD E 805       2.481  -7.179 -20.792  1.00  0.00     0.114 H 
ATOM     34  H33 TCD E 805       1.993  -4.941 -20.090  1.00  0.00     0.167 HD
ENDBRANCH  23  24
ENDBRANCH   6  23
TORSDOF 4
ENDMDL
MODEL 8
REMARK VINA RESULT:      -6.4      6.291      8.508
REMARK  4 active torsions:
REMARK  status: ('A' for Active; 'I' for Inactive)
REMARK    1  A    between atoms: C1_1  and  O21_2 
REMARK    2  A    between atoms: C22_13  and  O21_2 
REMARK    3  A    between atoms: C4_7  and  O31_8 
REMARK    4  A    between atoms: C32_24  and  O31_8 
ROOT
HETATM    1  C1  TCD E 805      -0.830   0.528 -15.545  1.00 43.72     0.078 A 
HETATM    2  C2  TCD E 805      -0.318  -0.090 -14.383  1.00 43.31    -0.048 A 
ATOM      3  H2  TCD E 805       0.759  -0.026 -14.153  1.00  0.00     0.087 H 
HETATM    4  C3  TCD E 805      -1.163  -0.773 -13.539  1.00 41.08    -0.048 A 
ATOM      5  H3  TCD E 805      -0.744  -1.308 -12.670  1.00  0.00     0.087 H 
HETATM    6  C4  TCD E 805      -2.556  -0.800 -13.762  1.00 42.16     0.078 A 
HETATM    7  C5  TCD E 805      -3.085  -0.179 -14.918  1.00 41.22    -0.048 A 
ATOM      8  H5  TCD E 805      -4.164  -0.236 -15.144  1.00  0.00     0.087 H 
HETATM    9  C6  TCD E 805      -2.217   0.506 -15.767  1.00 42.21    -0.048 A 
ATOM     10  H6  TCD E 805      -2.630   1.046 -16.636  1.00  0.00     0.087 H 
ENDROOT
BRANCH   1  11
HETATM   11  O21 TCD E 805      -0.029   1.202 -16.438  1.00 45.47    -0.292 OA
BRANCH  11  12
HETATM   12  C22 TCD E 805      -0.273   2.565 -16.507  1.00 38.07     0.170 A 
HETATM   13  C27 TCD E 805       0.001   3.503 -15.462  1.00 27.30     0.087 A 
HETATM   14  C26 TCD E 805      -0.361   4.960 -15.796  1.00 37.32    -0.035 A 
HETATM   15 CL27 TCD E 805       0.691   3.067 -13.901  1.00 54.00    -0.080 Cl
HETATM   16  C25 TCD E 805      -0.910   5.305 -17.025  1.00 41.60     0.051 A 
ATOM     17  H26 TCD E 805      -0.181   5.748 -15.045  1.00  0.00     0.089 H 
HETATM   18  C24 TCD E 805      -1.117   4.292 -17.933  1.00 44.36     0.000 A 
HETATM   19 CL25 TCD E 805      -1.316   6.970 -17.407  1.00 54.00    -0.083 Cl
HETATM   20  N23 TCD E 805      -0.824   3.000 -17.702  1.00 45.66    -0.344 N 
ATOM     21  H24 TCD E 805      -1.551   4.556 -18.912  1.00  0.00     0.114 H 
ATOM     22  H23 TCD E 805      -1.013   2.315 -18.433  1.00  0.00     0.167 HD
ENDBRANCH  11  12
ENDBRANCH   1  11
BRANCH   6  23
HETATM   23  O31 TCD E 805      -3.264  -1.486 -12.848  1.00 41.68    -0.292 OA
BRANCH  23  24
HETATM   24  C32 TCD E 805      -4.558  -1.165 -12.451  1.00 40.28     0.170 A 
HETATM   25  C37 TCD E 805      -4.746  -0.122 -11.498  1.00 48.32     0.087 A 
HETATM   26  C36 TCD E 805      -6.034   0.179 -11.097  1.00 45.29    -0.035 A 
HETATM   27 CL37 TCD E 805      -3.383   0.792 -10.844  1.00 54.00    -0.080 Cl
HETATM   28  C35 TCD E 805      -7.157  -0.507 -11.606  1.00 36.60     0.051 A 
ATOM     29  H36 TCD E 805      -6.188   0.981 -10.357  1.00  0.00     0.089 H 
HETATM   30  C34 TCD E 805      -6.880  -1.534 -12.549  1.00 41.00     0.000 A 
HETATM   31 CL35 TCD E 805      -8.802  -0.140 -11.085  1.00 54.00    -0.083 Cl
HETATM   32  N33 TCD E 805      -5.617  -1.842 -12.945  1.00 39.55    -0.344 N 
ATOM     33  H34 TCD E 805      -7.723  -2.102 -12.976  1.00  0.00     0.114 H 
ATOM     34  H33 TCD E 805      -5.469  -2.591 -13.621  1.00  0.00     0.167 HD
ENDBRANCH  23  24
ENDBRANCH   6  23
TORSDOF 4
ENDMDL
MODEL 9
REMARK VINA RESULT:      -6.4     27.643     30.285
REMARK  4 active torsions:
REMARK  status: ('A' for Active; 'I' for Inactive)
REMARK    1  A    between atoms: C1_1  and  O21_2 
REMARK    2  A    between atoms: C22_13  and  O21_2 
REMARK    3  A    between atoms: C4_7  and  O31_8 
REMARK    4  A    between atoms: C32_24  and  O31_8 
ROOT
HETATM    1  C1  TCD E 805      12.653  -3.426   7.530  1.00 43.72     0.078 A 
HETATM    2  C2  TCD E 805      12.724  -3.779   8.895  1.00 43.31    -0.048 A 
ATOM      3  H2  TCD E 805      13.694  -4.053   9.344  1.00  0.00     0.087 H 
HETATM    4  C3  TCD E 805      11.584  -3.780   9.666  1.00 41.08    -0.048 A 
ATOM      5  H3  TCD E 805      11.640  -4.122  10.713  1.00  0.00     0.087 H 
HETATM    6  C4  TCD E 805      10.346  -3.354   9.141  1.00 42.16     0.078 A 
HETATM    7  C5  TCD E 805      10.259  -2.990   7.776  1.00 41.22    -0.048 A 
ATOM      8  H5  TCD E 805       9.291  -2.708   7.330  1.00  0.00     0.087 H 
HETATM    9  C6  TCD E 805      11.422  -2.996   7.007  1.00 42.21    -0.048 A 
ATOM     10  H6  TCD E 805      11.374  -2.653   5.959  1.00  0.00     0.087 H 
ENDROOT
BRANCH   1  11
HETATM   11  O21 TCD E 805      13.755  -3.431   6.707  1.00 45.47    -0.292 OA
BRANCH  11  12
HETATM   12  C22 TCD E 805      14.271  -2.172   6.437  1.00 38.07     0.170 A 
HETATM   13  C27 TCD E 805      14.040  -1.428   5.237  1.00 27.30     0.087 A 
HETATM   14  C26 TCD E 805      14.727  -0.053   5.192  1.00 37.32    -0.035 A 
HETATM   15 CL27 TCD E 805      13.058  -2.005   3.894  1.00 54.00    -0.080 Cl
HETATM   16  C25 TCD E 805      15.506   0.401   6.249  1.00 41.60     0.051 A 
ATOM     17  H26 TCD E 805      14.600   0.586   4.302  1.00  0.00     0.089 H 
HETATM   18  C24 TCD E 805      15.639  -0.427   7.340  1.00 44.36     0.000 A 
HETATM   19 CL25 TCD E 805      16.284   1.974   6.198  1.00 54.00    -0.083 Cl
HETATM   20  N23 TCD E 805      15.065  -1.639   7.441  1.00 45.66    -0.344 N 
ATOM     21  H24 TCD E 805      16.254  -0.074   8.185  1.00  0.00     0.114 H 
ATOM     22  H23 TCD E 805      15.220  -2.187   8.287  1.00  0.00     0.167 HD
ENDBRANCH  11  12
ENDBRANCH   1  11
BRANCH   6  23
HETATM   23  O31 TCD E 805       9.320  -3.387  10.009  1.00 41.68    -0.292 OA
BRANCH  23  24
HETATM   24  C32 TCD E 805       9.176  -2.527  11.092  1.00 40.28     0.170 A 
HETATM   25  C37 TCD E 805       9.100  -3.080  12.404  1.00 48.32     0.087 A 
HETATM   26  C36 TCD E 805       8.940  -2.218  13.473  1.00 45.29    -0.035 A 
HETATM   27 CL37 TCD E 805       9.223  -4.819  12.685  1.00 54.00    -0.080 Cl
HETATM   28  C35 TCD E 805       8.858  -0.819  13.303  1.00 36.60     0.051 A 
ATOM     29  H36 TCD E 805       8.876  -2.637  14.491  1.00  0.00     0.089 H 
HETATM   30  C34 TCD E 805       8.940  -0.353  11.963  1.00 41.00     0.000 A 
HETATM   31 CL35 TCD E 805       8.637   0.284  14.661  1.00 54.00    -0.083 Cl
HETATM   32  N33 TCD E 805       9.091  -1.191  10.904  1.00 39.55    -0.344 N 
ATOM     33  H34 TCD E 805       8.880   0.732  11.775  1.00  0.00     0.114 H 
ATOM     34  H33 TCD E 805       9.139  -0.810   9.960  1.00  0.00     0.167 HD
ENDBRANCH  23  24
ENDBRANCH   6  23
TORSDOF 4
ENDMDL
MODEL 10
REMARK VINA RESULT:      -6.3      4.386     10.651
REMARK  4 active torsions:
REMARK  status: ('A' for Active; 'I' for Inactive)
REMARK    1  A    between atoms: C1_1  and  O21_2 
REMARK    2  A    between atoms: C22_13  and  O21_2 
REMARK    3  A    between atoms: C4_7  and  O31_8 
REMARK    4  A    between atoms: C32_24  and  O31_8 
ROOT
HETATM    1  C1  TCD E 805      -0.801   2.837 -14.964  1.00 43.72     0.078 A 
HETATM    2  C2  TCD E 805      -2.168   2.608 -15.232  1.00 43.31    -0.048 A 
ATOM      3  H2  TCD E 805      -2.625   1.637 -14.977  1.00  0.00     0.087 H 
HETATM    4  C3  TCD E 805      -2.930   3.596 -15.812  1.00 41.08    -0.048 A 
ATOM      5  H3  TCD E 805      -3.979   3.384 -16.079  1.00  0.00     0.087 H 
HETATM    6  C4  TCD E 805      -2.394   4.876 -16.072  1.00 42.16     0.078 A 
HETATM    7  C5  TCD E 805      -1.027   5.123 -15.801  1.00 41.22    -0.048 A 
ATOM      8  H5  TCD E 805      -0.573   6.097 -16.048  1.00  0.00     0.087 H 
HETATM    9  C6  TCD E 805      -0.267   4.112 -15.216  1.00 42.21    -0.048 A 
ATOM     10  H6  TCD E 805       0.782   4.318 -14.944  1.00  0.00     0.087 H 
ENDROOT
BRANCH   1  11
HETATM   11  O21 TCD E 805       0.014   1.878 -14.408  1.00 45.47    -0.292 OA
BRANCH  11  12
HETATM   12  C22 TCD E 805      -0.123   0.618 -14.971  1.00 38.07     0.170 A 
HETATM   13  C27 TCD E 805      -0.937  -0.434 -14.444  1.00 27.30     0.087 A 
HETATM   14  C26 TCD E 805      -0.916  -1.735 -15.264  1.00 37.32    -0.035 A 
HETATM   15 CL27 TCD E 805      -1.898  -0.295 -12.975  1.00 54.00    -0.080 Cl
HETATM   16  C25 TCD E 805      -0.154  -1.848 -16.421  1.00 41.60     0.051 A 
ATOM     17  H26 TCD E 805      -1.517  -2.597 -14.927  1.00  0.00     0.089 H 
HETATM   18  C24 TCD E 805       0.580  -0.750 -16.806  1.00 44.36     0.000 A 
HETATM   19 CL25 TCD E 805      -0.137  -3.332 -17.359  1.00 54.00    -0.083 Cl
HETATM   20  N23 TCD E 805       0.605   0.414 -16.133  1.00 45.66    -0.344 N 
ATOM     21  H24 TCD E 805       1.187  -0.829 -17.724  1.00  0.00     0.114 H 
ATOM     22  H23 TCD E 805       1.181   1.176 -16.491  1.00  0.00     0.167 HD
ENDBRANCH  11  12
ENDBRANCH   1  11
BRANCH   6  23
HETATM   23  O31 TCD E 805      -3.255   5.750 -16.622  1.00 41.68    -0.292 OA
BRANCH  23  24
HETATM   24  C32 TCD E 805      -3.965   6.710 -15.909  1.00 40.28     0.170 A 
HETATM   25  C37 TCD E 805      -5.307   6.424 -15.520  1.00 48.32     0.087 A 
HETATM   26  C36 TCD E 805      -6.011   7.390 -14.826  1.00 45.29    -0.035 A 
HETATM   27 CL37 TCD E 805      -6.067   4.872 -15.887  1.00 54.00    -0.080 Cl
HETATM   28  C35 TCD E 805      -5.442   8.636 -14.490  1.00 36.60     0.051 A 
ATOM     29  H36 TCD E 805      -7.050   7.179 -14.524  1.00  0.00     0.089 H 
HETATM   30  C34 TCD E 805      -4.102   8.840 -14.918  1.00 41.00     0.000 A 
HETATM   31 CL35 TCD E 805      -6.340   9.880 -13.620  1.00 54.00    -0.083 Cl
HETATM   32  N33 TCD E 805      -3.402   7.900 -15.606  1.00 39.55    -0.344 N 
ATOM     33  H34 TCD E 805      -3.610   9.799 -14.683  1.00  0.00     0.114 H 
ATOM     34  H33 TCD E 805      -2.444   8.095 -15.897  1.00  0.00     0.167 HD
ENDBRANCH  23  24
ENDBRANCH   6  23
TORSDOF 4
ENDMDL
