MODEL 1
REMARK VINA RESULT:      -7.9      0.000      0.000
REMARK  4 active torsions:
REMARK  status: ('A' for Active; 'I' for Inactive)
REMARK    1  A    between atoms: C1_1  and  O21_2 
REMARK    2  A    between atoms: C22_13  and  O21_2 
REMARK    3  A    between atoms: C4_7  and  O31_8 
REMARK    4  A    between atoms: C32_24  and  O31_8 
ROOT
HETATM    1  C1  TCD E 805      16.273   9.179  -6.144  1.00 43.72     0.078 A 
HETATM    2  C2  TCD E 805      15.163   8.419  -5.713  1.00 43.31    -0.048 A 
ATOM      3  H2  TCD E 805      14.439   8.853  -5.004  1.00  0.00     0.087 H 
HETATM    4  C3  TCD E 805      14.987   7.137  -6.178  1.00 41.08    -0.048 A 
ATOM      5  H3  TCD E 805      14.156   6.528  -5.784  1.00  0.00     0.087 H 
HETATM    6  C4  TCD E 805      15.847   6.585  -7.150  1.00 42.16     0.078 A 
HETATM    7  C5  TCD E 805      16.960   7.337  -7.597  1.00 41.22    -0.048 A 
ATOM      8  H5  TCD E 805      17.679   6.904  -8.313  1.00  0.00     0.087 H 
HETATM    9  C6  TCD E 805      17.129   8.633  -7.116  1.00 42.21    -0.048 A 
ATOM     10  H6  TCD E 805      17.956   9.247  -7.508  1.00  0.00     0.087 H 
ENDROOT
BRANCH   1  11
HETATM   11  O21 TCD E 805      16.515  10.455  -5.694  1.00 45.47    -0.292 OA
BRANCH  11  12
HETATM   12  C22 TCD E 805      15.386  11.258  -5.618  1.00 38.07     0.170 A 
HETATM   13  N23 TCD E 805      15.240  11.949  -4.426  1.00 45.66    -0.344 N 
HETATM   14  C24 TCD E 805      14.200  12.768  -4.188  1.00 44.36     0.000 A 
ATOM     15  H23 TCD E 805      15.949  11.833  -3.701  1.00  0.00     0.167 HD
HETATM   16  C25 TCD E 805      13.185  13.007  -5.088  1.00 41.60     0.051 A 
ATOM     17  H24 TCD E 805      14.157  13.279  -3.213  1.00  0.00     0.114 H 
HETATM   18 CL25 TCD E 805      11.857  14.087  -4.698  1.00 54.00    -0.083 Cl
HETATM   19  C26 TCD E 805      13.249  12.355  -6.313  1.00 37.32    -0.035 A 
HETATM   20  C27 TCD E 805      14.410  11.404  -6.655  1.00 27.30     0.087 A 
ATOM     21  H26 TCD E 805      12.451  12.522  -7.056  1.00  0.00     0.089 H 
HETATM   22 CL27 TCD E 805      14.493  10.584  -8.210  1.00 54.00    -0.080 Cl
ENDBRANCH  11  12
ENDBRANCH   1  11
BRANCH   6  23
HETATM   23  O31 TCD E 805      15.546   5.331  -7.530  1.00 41.68    -0.292 OA
BRANCH  23  24
HETATM   24  C32 TCD E 805      14.349   4.956  -8.133  1.00 40.28     0.170 A 
HETATM   25  N33 TCD E 805      13.451   4.200  -7.465  1.00 39.55    -0.344 N 
HETATM   26  C34 TCD E 805      12.279   3.842  -8.054  1.00 41.00     0.000 A 
ATOM     27  H33 TCD E 805      13.653   3.896  -6.513  1.00  0.00     0.167 HD
HETATM   28  C35 TCD E 805      11.930   4.239  -9.373  1.00 36.60     0.051 A 
ATOM     29  H34 TCD E 805      11.569   3.218  -7.484  1.00  0.00     0.114 H 
HETATM   30 CL35 TCD E 805      10.393   3.784 -10.107  1.00 54.00    -0.083 Cl
HETATM   31  C36 TCD E 805      12.881   5.036 -10.045  1.00 45.29    -0.035 A 
HETATM   32  C37 TCD E 805      14.080   5.401  -9.460  1.00 48.32     0.087 A 
ATOM     33  H36 TCD E 805      12.661   5.379 -11.070  1.00  0.00     0.089 H 
HETATM   34 CL37 TCD E 805      15.240   6.378 -10.364  1.00 54.00    -0.080 Cl
ENDBRANCH  23  24
ENDBRANCH   6  23
TORSDOF 4
ENDMDL
MODEL 2
REMARK VINA RESULT:      -7.7      0.148      7.229
REMARK  4 active torsions:
REMARK  status: ('A' for Active; 'I' for Inactive)
REMARK    1  A    between atoms: C1_1  and  O21_2 
REMARK    2  A    between atoms: C22_13  and  O21_2 
REMARK    3  A    between atoms: C4_7  and  O31_8 
REMARK    4  A    between atoms: C32_24  and  O31_8 
ROOT
HETATM    1  C1  TCD E 805      15.783   6.492  -6.920  1.00 43.72     0.078 A 
HETATM    2  C2  TCD E 805      14.935   7.182  -6.027  1.00 43.31    -0.048 A 
ATOM      3  H2  TCD E 805      14.085   6.659  -5.557  1.00  0.00     0.087 H 
HETATM    4  C3  TCD E 805      15.169   8.507  -5.743  1.00 41.08    -0.048 A 
ATOM      5  H3  TCD E 805      14.462   9.055  -5.098  1.00  0.00     0.087 H 
HETATM    6  C4  TCD E 805      16.296   9.179  -6.261  1.00 42.16     0.078 A 
HETATM    7  C5  TCD E 805      17.160   8.499  -7.152  1.00 41.22    -0.048 A 
ATOM      8  H5  TCD E 805      18.014   9.021  -7.616  1.00  0.00     0.087 H 
HETATM    9  C6  TCD E 805      16.909   7.157  -7.433  1.00 42.21    -0.048 A 
ATOM     10  H6  TCD E 805      17.613   6.604  -8.076  1.00  0.00     0.087 H 
ENDROOT
BRANCH   1  11
HETATM   11  O21 TCD E 805      15.583   5.174  -7.261  1.00 45.47    -0.292 OA
BRANCH  11  12
HETATM   12  C22 TCD E 805      14.448   4.948  -8.025  1.00 38.07     0.170 A 
HETATM   13  N23 TCD E 805      13.471   4.183  -7.407  1.00 45.66    -0.344 N 
HETATM   14  C24 TCD E 805      12.311   3.868  -8.011  1.00 44.36     0.000 A 
ATOM     15  H23 TCD E 805      13.639   3.846  -6.459  1.00  0.00     0.167 HD
HETATM   16  C25 TCD E 805      11.971   4.267  -9.284  1.00 41.60     0.051 A 
ATOM     17  H24 TCD E 805      11.588   3.253  -7.451  1.00  0.00     0.114 H 
HETATM   18 CL25 TCD E 805      10.436   3.808 -10.003  1.00 54.00    -0.083 Cl
HETATM   19  C26 TCD E 805      12.892   5.040  -9.980  1.00 37.32    -0.035 A 
HETATM   20  C27 TCD E 805      14.239   5.439  -9.354  1.00 27.30     0.087 A 
ATOM     21  H26 TCD E 805      12.652   5.374 -11.004  1.00  0.00     0.089 H 
HETATM   22 CL27 TCD E 805      15.402   6.424 -10.235  1.00 54.00    -0.080 Cl
ENDBRANCH  11  12
ENDBRANCH   1  11
BRANCH   6  23
HETATM   23  O31 TCD E 805      16.413  10.464  -5.886  1.00 41.68    -0.292 OA
BRANCH  23  24
HETATM   24  C32 TCD E 805      15.340  11.308  -5.614  1.00 40.28     0.170 A 
HETATM   25  N33 TCD E 805      15.248  11.941  -4.425  1.00 39.55    -0.344 N 
HETATM   26  C34 TCD E 805      14.203  12.771  -4.165  1.00 41.00     0.000 A 
ATOM     27  H33 TCD E 805      15.966  11.796  -3.716  1.00  0.00     0.167 HD
HETATM   28  C35 TCD E 805      13.172  13.025  -5.110  1.00 36.60     0.051 A 
ATOM     29  H34 TCD E 805      14.153  13.268  -3.181  1.00  0.00     0.114 H 
HETATM   30 CL35 TCD E 805      11.840  14.126  -4.762  1.00 54.00    -0.083 Cl
HETATM   31  C36 TCD E 805      13.297  12.360  -6.348  1.00 45.29    -0.035 A 
HETATM   32  C37 TCD E 805      14.351  11.507  -6.621  1.00 48.32     0.087 A 
ATOM     33  H36 TCD E 805      12.529  12.525  -7.122  1.00  0.00     0.089 H 
HETATM   34 CL37 TCD E 805      14.437  10.683  -8.180  1.00 54.00    -0.080 Cl
ENDBRANCH  23  24
ENDBRANCH   6  23
TORSDOF 4
ENDMDL
MODEL 3
REMARK VINA RESULT:      -7.5      2.028      8.011
REMARK  4 active torsions:
REMARK  status: ('A' for Active; 'I' for Inactive)
REMARK    1  A    between atoms: C1_1  and  O21_2 
REMARK    2  A    between atoms: C22_13  and  O21_2 
REMARK    3  A    between atoms: C4_7  and  O31_8 
REMARK    4  A    between atoms: C32_24  and  O31_8 
ROOT
HETATM    1  C1  TCD E 805      14.354   6.836  -7.381  1.00 43.72     0.078 A 
HETATM    2  C2  TCD E 805      13.204   7.586  -7.050  1.00 43.31    -0.048 A 
ATOM      3  H2  TCD E 805      12.287   7.072  -6.714  1.00  0.00     0.087 H 
HETATM    4  C3  TCD E 805      13.228   8.958  -7.145  1.00 41.08    -0.048 A 
ATOM      5  H3  TCD E 805      12.305   9.529  -6.950  1.00  0.00     0.087 H 
HETATM    6  C4  TCD E 805      14.409   9.647  -7.488  1.00 42.16     0.078 A 
HETATM    7  C5  TCD E 805      15.572   8.910  -7.816  1.00 41.22    -0.048 A 
ATOM      8  H5  TCD E 805      16.490   9.426  -8.143  1.00  0.00     0.087 H 
HETATM    9  C6  TCD E 805      15.533   7.521  -7.718  1.00 42.21    -0.048 A 
ATOM     10  H6  TCD E 805      16.453   6.945  -7.909  1.00  0.00     0.087 H 
ENDROOT
BRANCH   1  11
HETATM   11  O21 TCD E 805      14.381   5.462  -7.329  1.00 45.47    -0.292 OA
BRANCH  11  12
HETATM   12  C22 TCD E 805      13.577   4.839  -8.272  1.00 38.07     0.170 A 
HETATM   13  N23 TCD E 805      13.797   5.237  -9.581  1.00 45.66    -0.344 N 
HETATM   14  C24 TCD E 805      13.101   4.734 -10.615  1.00 44.36     0.000 A 
ATOM     15  H23 TCD E 805      14.515   5.938  -9.767  1.00  0.00     0.167 HD
HETATM   16  C25 TCD E 805      12.113   3.783 -10.491  1.00 41.60     0.051 A 
ATOM     17  H24 TCD E 805      13.337   5.105 -11.626  1.00  0.00     0.114 H 
HETATM   18 CL25 TCD E 805      11.244   3.181 -11.894  1.00 54.00    -0.083 Cl
HETATM   19  C26 TCD E 805      11.824   3.325  -9.212  1.00 37.32    -0.035 A 
HETATM   20  C27 TCD E 805      12.580   3.854  -7.981  1.00 27.30     0.087 A 
ATOM     21  H26 TCD E 805      11.036   2.565  -9.076  1.00  0.00     0.089 H 
HETATM   22 CL27 TCD E 805      12.217   3.267  -6.361  1.00 54.00    -0.080 Cl
ENDBRANCH  11  12
ENDBRANCH   1  11
BRANCH   6  23
HETATM   23  O31 TCD E 805      14.295  10.987  -7.524  1.00 41.68    -0.292 OA
BRANCH  23  24
HETATM   24  C32 TCD E 805      13.922  11.776  -6.440  1.00 40.28     0.170 A 
HETATM   25  N33 TCD E 805      12.764  12.471  -6.461  1.00 39.55    -0.344 N 
HETATM   26  C34 TCD E 805      12.399  13.234  -5.398  1.00 41.00     0.000 A 
ATOM     27  H33 TCD E 805      12.160  12.423  -7.282  1.00  0.00     0.167 HD
HETATM   28  C35 TCD E 805      13.189  13.339  -4.221  1.00 36.60     0.051 A 
ATOM     29  H34 TCD E 805      11.450  13.795  -5.450  1.00  0.00     0.114 H 
HETATM   30 CL35 TCD E 805      12.682  14.314  -2.843  1.00 54.00    -0.083 Cl
HETATM   31  C36 TCD E 805      14.388  12.595  -4.220  1.00 45.29    -0.035 A 
HETATM   32  C37 TCD E 805      14.775  11.821  -5.298  1.00 48.32     0.087 A 
ATOM     33  H36 TCD E 805      15.038  12.633  -3.329  1.00  0.00     0.089 H 
HETATM   34 CL37 TCD E 805      16.301  10.935  -5.245  1.00 54.00    -0.080 Cl
ENDBRANCH  23  24
ENDBRANCH   6  23
TORSDOF 4
ENDMDL
MODEL 4
REMARK VINA RESULT:      -7.2      2.089      2.508
REMARK  4 active torsions:
REMARK  status: ('A' for Active; 'I' for Inactive)
REMARK    1  A    between atoms: C1_1  and  O21_2 
REMARK    2  A    between atoms: C22_13  and  O21_2 
REMARK    3  A    between atoms: C4_7  and  O31_8 
REMARK    4  A    between atoms: C32_24  and  O31_8 
ROOT
HETATM    1  C1  TCD E 805      14.563   9.761  -7.499  1.00 43.72     0.078 A 
HETATM    2  C2  TCD E 805      13.246   9.252  -7.502  1.00 43.31    -0.048 A 
ATOM      3  H2  TCD E 805      12.387   9.943  -7.524  1.00  0.00     0.087 H 
HETATM    4  C3  TCD E 805      13.035   7.893  -7.478  1.00 41.08    -0.048 A 
ATOM      5  H3  TCD E 805      12.004   7.507  -7.412  1.00  0.00     0.087 H 
HETATM    6  C4  TCD E 805      14.111   6.984  -7.536  1.00 42.16     0.078 A 
HETATM    7  C5  TCD E 805      15.438   7.479  -7.540  1.00 41.22    -0.048 A 
ATOM      8  H5  TCD E 805      16.296   6.786  -7.526  1.00  0.00     0.087 H 
HETATM    9  C6  TCD E 805      15.637   8.857  -7.562  1.00 42.21    -0.048 A 
ATOM     10  H6  TCD E 805      16.665   9.249  -7.629  1.00  0.00     0.087 H 
ENDROOT
BRANCH   1  11
HETATM   11  O21 TCD E 805      14.835  11.110  -7.497  1.00 45.47    -0.292 OA
BRANCH  11  12
HETATM   12  C22 TCD E 805      14.434  11.771  -6.345  1.00 38.07     0.170 A 
HETATM   13  N23 TCD E 805      13.312  12.572  -6.493  1.00 45.66    -0.344 N 
HETATM   14  C24 TCD E 805      12.795  13.284  -5.476  1.00 44.36     0.000 A 
ATOM     15  H23 TCD E 805      12.863  12.623  -7.407  1.00  0.00     0.167 HD
HETATM   16  C25 TCD E 805      13.311  13.293  -4.199  1.00 41.60     0.051 A 
ATOM     17  H24 TCD E 805      11.902  13.898  -5.677  1.00  0.00     0.114 H 
HETATM   18 CL25 TCD E 805      12.578  14.256  -2.926  1.00 54.00    -0.083 Cl
HETATM   19  C26 TCD E 805      14.437  12.517  -3.958  1.00 37.32    -0.035 A 
HETATM   20  C27 TCD E 805      15.083  11.676  -5.073  1.00 27.30     0.087 A 
ATOM     21  H26 TCD E 805      14.878  12.503  -2.948  1.00  0.00     0.089 H 
HETATM   22 CL27 TCD E 805      16.507  10.687  -4.765  1.00 54.00    -0.080 Cl
ENDBRANCH  11  12
ENDBRANCH   1  11
BRANCH   6  23
HETATM   23  O31 TCD E 805      13.761   5.686  -7.526  1.00 41.68    -0.292 OA
BRANCH  23  24
HETATM   24  C32 TCD E 805      13.178   5.018  -8.599  1.00 40.28     0.170 A 
HETATM   25  N33 TCD E 805      13.778   5.009  -9.810  1.00 39.55    -0.344 N 
HETATM   26  C34 TCD E 805      13.211   4.348 -10.854  1.00 41.00     0.000 A 
ATOM     27  H33 TCD E 805      14.661   5.501  -9.941  1.00  0.00     0.167 HD
HETATM   28  C35 TCD E 805      11.987   3.636 -10.738  1.00 36.60     0.051 A 
ATOM     29  H34 TCD E 805      13.723   4.366 -11.832  1.00  0.00     0.114 H 
HETATM   30 CL35 TCD E 805      11.284   2.765 -12.099  1.00 54.00    -0.083 Cl
HETATM   31  C36 TCD E 805      11.387   3.653  -9.461  1.00 45.29    -0.035 A 
HETATM   32  C37 TCD E 805      11.949   4.327  -8.392  1.00 48.32     0.087 A 
ATOM     33  H36 TCD E 805      10.438   3.110  -9.310  1.00  0.00     0.089 H 
HETATM   34 CL37 TCD E 805      11.135   4.332  -6.826  1.00 54.00    -0.080 Cl
ENDBRANCH  23  24
ENDBRANCH   6  23
TORSDOF 4
ENDMDL
MODEL 5
REMARK VINA RESULT:      -7.1     16.320     18.500
REMARK  4 active torsions:
REMARK  status: ('A' for Active; 'I' for Inactive)
REMARK    1  A    between atoms: C1_1  and  O21_2 
REMARK    2  A    between atoms: C22_13  and  O21_2 
REMARK    3  A    between atoms: C4_7  and  O31_8 
REMARK    4  A    between atoms: C32_24  and  O31_8 
ROOT
HETATM    1  C1  TCD E 805       8.950  -2.922   5.252  1.00 43.72     0.078 A 
HETATM    2  C2  TCD E 805       7.898  -2.516   4.402  1.00 43.31    -0.048 A 
ATOM      3  H2  TCD E 805       7.886  -2.837   3.347  1.00  0.00     0.087 H 
HETATM    4  C3  TCD E 805       6.889  -1.719   4.892  1.00 41.08    -0.048 A 
ATOM      5  H3  TCD E 805       6.109  -1.352   4.204  1.00  0.00     0.087 H 
HETATM    6  C4  TCD E 805       6.832  -1.364   6.255  1.00 42.16     0.078 A 
HETATM    7  C5  TCD E 805       7.876  -1.769   7.121  1.00 41.22    -0.048 A 
ATOM      8  H5  TCD E 805       7.883  -1.454   8.178  1.00  0.00     0.087 H 
HETATM    9  C6  TCD E 805       8.893  -2.573   6.612  1.00 42.21    -0.048 A 
ATOM     10  H6  TCD E 805       9.675  -2.945   7.295  1.00  0.00     0.087 H 
ENDROOT
BRANCH   1  11
HETATM   11  O21 TCD E 805       9.999  -3.696   4.813  1.00 45.47    -0.292 OA
BRANCH  11  12
HETATM   12  C22 TCD E 805      11.161  -2.986   4.550  1.00 38.07     0.170 A 
HETATM   13  N23 TCD E 805      12.070  -2.946   5.596  1.00 45.66    -0.344 N 
HETATM   14  C24 TCD E 805      13.245  -2.298   5.507  1.00 44.36     0.000 A 
ATOM     15  H23 TCD E 805      11.839  -3.427   6.466  1.00  0.00     0.167 HD
HETATM   16  C25 TCD E 805      13.668  -1.618   4.387  1.00 41.60     0.051 A 
ATOM     17  H24 TCD E 805      13.910  -2.312   6.386  1.00  0.00     0.114 H 
HETATM   18 CL25 TCD E 805      15.217  -0.791   4.354  1.00 54.00    -0.083 Cl
HETATM   19  C26 TCD E 805      12.820  -1.605   3.288  1.00 37.32    -0.035 A 
HETATM   20  C27 TCD E 805      11.460  -2.325   3.316  1.00 27.30     0.087 A 
ATOM     21  H26 TCD E 805      13.126  -1.068   2.375  1.00  0.00     0.089 H 
HETATM   22 CL27 TCD E 805      10.389  -2.314   1.919  1.00 54.00    -0.080 Cl
ENDBRANCH  11  12
ENDBRANCH   1  11
BRANCH   6  23
HETATM   23  O31 TCD E 805       5.781  -0.600   6.599  1.00 41.68    -0.292 OA
BRANCH  23  24
HETATM   24  C32 TCD E 805       5.751   0.250   7.701  1.00 40.28     0.170 A 
HETATM   25  N33 TCD E 805       5.076  -0.095   8.818  1.00 39.55    -0.344 N 
HETATM   26  C34 TCD E 805       5.056   0.733   9.896  1.00 41.00     0.000 A 
ATOM     27  H33 TCD E 805       4.578  -0.984   8.854  1.00  0.00     0.167 HD
HETATM   28  C35 TCD E 805       5.736   1.981   9.916  1.00 36.60     0.051 A 
ATOM     29  H34 TCD E 805       4.490   0.425  10.791  1.00  0.00     0.114 H 
HETATM   30 CL35 TCD E 805       5.718   3.028  11.334  1.00 54.00    -0.083 Cl
HETATM   31  C36 TCD E 805       6.442   2.314   8.740  1.00 45.29    -0.035 A 
HETATM   32  C37 TCD E 805       6.464   1.483   7.635  1.00 48.32     0.087 A 
ATOM     33  H36 TCD E 805       6.994   3.268   8.702  1.00  0.00     0.089 H 
HETATM   34 CL37 TCD E 805       7.344   1.970   6.184  1.00 54.00    -0.080 Cl
ENDBRANCH  23  24
ENDBRANCH   6  23
TORSDOF 4
ENDMDL
MODEL 6
REMARK VINA RESULT:      -6.9     17.731     20.548
REMARK  4 active torsions:
REMARK  status: ('A' for Active; 'I' for Inactive)
REMARK    1  A    between atoms: C1_1  and  O21_2 
REMARK    2  A    between atoms: C22_13  and  O21_2 
REMARK    3  A    between atoms: C4_7  and  O31_8 
REMARK    4  A    between atoms: C32_24  and  O31_8 
ROOT
HETATM    1  C1  TCD E 805       1.207   2.823 -17.882  1.00 43.72     0.078 A 
HETATM    2  C2  TCD E 805       0.705   3.874 -17.084  1.00 43.31    -0.048 A 
ATOM      3  H2  TCD E 805       1.394   4.484 -16.477  1.00  0.00     0.087 H 
HETATM    4  C3  TCD E 805      -0.645   4.137 -17.066  1.00 41.08    -0.048 A 
ATOM      5  H3  TCD E 805      -1.035   4.915 -16.388  1.00  0.00     0.087 H 
HETATM    6  C4  TCD E 805      -1.540   3.432 -17.896  1.00 42.16     0.078 A 
HETATM    7  C5  TCD E 805      -1.051   2.379 -18.706  1.00 41.22    -0.048 A 
ATOM      8  H5  TCD E 805      -1.741   1.775 -19.319  1.00  0.00     0.087 H 
HETATM    9  C6  TCD E 805       0.318   2.121 -18.713  1.00 42.21    -0.048 A 
ATOM     10  H6  TCD E 805       0.714   1.346 -19.390  1.00  0.00     0.087 H 
ENDROOT
BRANCH   1  11
HETATM   11  O21 TCD E 805       2.543   2.497 -17.920  1.00 45.47    -0.292 OA
BRANCH  11  12
HETATM   12  C22 TCD E 805       3.181   2.846 -19.101  1.00 38.07     0.170 A 
HETATM   13  N23 TCD E 805       3.393   4.205 -19.271  1.00 45.66    -0.344 N 
HETATM   14  C24 TCD E 805       3.995   4.711 -20.362  1.00 44.36     0.000 A 
ATOM     15  H23 TCD E 805       3.080   4.846 -18.541  1.00  0.00     0.167 HD
HETATM   16  C25 TCD E 805       4.462   3.949 -21.409  1.00 41.60     0.051 A 
ATOM     17  H24 TCD E 805       4.123   5.805 -20.421  1.00  0.00     0.114 H 
HETATM   18 CL25 TCD E 805       5.234   4.689 -22.802  1.00 54.00    -0.083 Cl
HETATM   19  C26 TCD E 805       4.293   2.573 -21.324  1.00 37.32    -0.035 A 
HETATM   20  C27 TCD E 805       3.613   1.923 -20.107  1.00 27.30     0.087 A 
ATOM     21  H26 TCD E 805       4.653   1.933 -22.147  1.00  0.00     0.089 H 
HETATM   22 CL27 TCD E 805       3.406   0.178 -19.997  1.00 54.00    -0.080 Cl
ENDBRANCH  11  12
ENDBRANCH   1  11
BRANCH   6  23
HETATM   23  O31 TCD E 805      -2.828   3.805 -17.791  1.00 41.68    -0.292 OA
BRANCH  23  24
HETATM   24  C32 TCD E 805      -3.723   3.857 -18.856  1.00 40.28     0.170 A 
HETATM   25  N33 TCD E 805      -4.647   2.886 -19.024  1.00 39.55    -0.344 N 
HETATM   26  C34 TCD E 805      -5.525   2.944 -20.060  1.00 41.00     0.000 A 
ATOM     27  H33 TCD E 805      -4.685   2.104 -18.370  1.00  0.00     0.167 HD
HETATM   28  C35 TCD E 805      -5.532   4.007 -21.001  1.00 36.60     0.051 A 
ATOM     29  H34 TCD E 805      -6.263   2.131 -20.173  1.00  0.00     0.114 H 
HETATM   30 CL35 TCD E 805      -6.699   4.075 -22.322  1.00 54.00    -0.083 Cl
HETATM   31  C36 TCD E 805      -4.565   5.014 -20.797  1.00 45.29    -0.035 A 
HETATM   32  C37 TCD E 805      -3.660   4.963 -19.752  1.00 48.32     0.087 A 
ATOM     33  H36 TCD E 805      -4.528   5.868 -21.494  1.00  0.00     0.089 H 
HETATM   34 CL37 TCD E 805      -2.456   6.241 -19.567  1.00 54.00    -0.080 Cl
ENDBRANCH  23  24
ENDBRANCH   6  23
TORSDOF 4
ENDMDL
MODEL 7
REMARK VINA RESULT:      -6.8     18.873     21.372
REMARK  4 active torsions:
REMARK  status: ('A' for Active; 'I' for Inactive)
REMARK    1  A    between atoms: C1_1  and  O21_2 
REMARK    2  A    between atoms: C22_13  and  O21_2 
REMARK    3  A    between atoms: C4_7  and  O31_8 
REMARK    4  A    between atoms: C32_24  and  O31_8 
ROOT
HETATM    1  C1  TCD E 805      -3.422  13.459  -0.061  1.00 43.72     0.078 A 
HETATM    2  C2  TCD E 805      -3.023  12.133   0.215  1.00 43.31    -0.048 A 
ATOM      3  H2  TCD E 805      -3.219  11.333  -0.519  1.00  0.00     0.087 H 
HETATM    4  C3  TCD E 805      -2.390  11.839   1.400  1.00 41.08    -0.048 A 
ATOM      5  H3  TCD E 805      -2.144  10.790   1.636  1.00  0.00     0.087 H 
HETATM    6  C4  TCD E 805      -2.049  12.852   2.320  1.00 42.16     0.078 A 
HETATM    7  C5  TCD E 805      -2.436  14.188   2.054  1.00 41.22    -0.048 A 
ATOM      8  H5  TCD E 805      -2.233  14.987   2.786  1.00  0.00     0.087 H 
HETATM    9  C6  TCD E 805      -3.079  14.471   0.852  1.00 42.21    -0.048 A 
ATOM     10  H6  TCD E 805      -3.326  15.518   0.609  1.00  0.00     0.087 H 
ENDROOT
BRANCH   1  11
HETATM   11  O21 TCD E 805      -4.080  13.808  -1.217  1.00 45.47    -0.292 OA
BRANCH  11  12
HETATM   12  C22 TCD E 805      -5.222  13.062  -1.471  1.00 38.07     0.170 A 
HETATM   13  N23 TCD E 805      -6.327  13.409  -0.710  1.00 45.66    -0.344 N 
HETATM   14  C24 TCD E 805      -7.511  12.783  -0.829  1.00 44.36     0.000 A 
ATOM     15  H23 TCD E 805      -6.239  14.168  -0.034  1.00  0.00     0.167 HD
HETATM   16  C25 TCD E 805      -7.753  11.749  -1.706  1.00 41.60     0.051 A 
ATOM     17  H24 TCD E 805      -8.340  13.119  -0.185  1.00  0.00     0.114 H 
HETATM   18 CL25 TCD E 805      -9.328  10.980  -1.797  1.00 54.00    -0.083 Cl
HETATM   19  C26 TCD E 805      -6.699  11.334  -2.511  1.00 37.32    -0.035 A 
HETATM   20  C27 TCD E 805      -5.317  12.004  -2.430  1.00 27.30     0.087 A 
ATOM     21  H26 TCD E 805      -6.857  10.507  -3.223  1.00  0.00     0.089 H 
HETATM   22 CL27 TCD E 805      -3.984  11.481  -3.455  1.00 54.00    -0.080 Cl
ENDBRANCH  11  12
ENDBRANCH   1  11
BRANCH   6  23
HETATM   23  O31 TCD E 805      -1.415  12.426   3.426  1.00 41.68    -0.292 OA
BRANCH  23  24
HETATM   24  C32 TCD E 805      -0.594  13.221   4.219  1.00 40.28     0.170 A 
HETATM   25  N33 TCD E 805       0.592  13.666   3.751  1.00 39.55    -0.344 N 
HETATM   26  C34 TCD E 805       1.389  14.450   4.525  1.00 41.00     0.000 A 
ATOM     27  H33 TCD E 805       0.893  13.412   2.810  1.00  0.00     0.167 HD
HETATM   28  C35 TCD E 805       1.028  14.847   5.841  1.00 36.60     0.051 A 
ATOM     29  H34 TCD E 805       2.355  14.791   4.115  1.00  0.00     0.114 H 
HETATM   30 CL35 TCD E 805       2.065  15.886   6.817  1.00 54.00    -0.083 Cl
HETATM   31  C36 TCD E 805      -0.220  14.378   6.303  1.00 45.29    -0.035 A 
HETATM   32  C37 TCD E 805      -1.036  13.574   5.528  1.00 48.32     0.087 A 
ATOM     33  H36 TCD E 805      -0.555  14.661   7.315  1.00  0.00     0.089 H 
HETATM   34 CL37 TCD E 805      -2.574  12.997   6.174  1.00 54.00    -0.080 Cl
ENDBRANCH  23  24
ENDBRANCH   6  23
TORSDOF 4
ENDMDL
MODEL 8
REMARK VINA RESULT:      -6.8     18.860     20.024
REMARK  4 active torsions:
REMARK  status: ('A' for Active; 'I' for Inactive)
REMARK    1  A    between atoms: C1_1  and  O21_2 
REMARK    2  A    between atoms: C22_13  and  O21_2 
REMARK    3  A    between atoms: C4_7  and  O31_8 
REMARK    4  A    between atoms: C32_24  and  O31_8 
ROOT
HETATM    1  C1  TCD E 805      -3.264  12.778   1.875  1.00 43.72     0.078 A 
HETATM    2  C2  TCD E 805      -2.553  11.699   1.306  1.00 43.31    -0.048 A 
ATOM      3  H2  TCD E 805      -1.781  11.175   1.894  1.00  0.00     0.087 H 
HETATM    4  C3  TCD E 805      -2.824  11.302   0.018  1.00 41.08    -0.048 A 
ATOM      5  H3  TCD E 805      -2.217  10.503  -0.441  1.00  0.00     0.087 H 
HETATM    6  C4  TCD E 805      -3.863  11.895  -0.729  1.00 42.16     0.078 A 
HETATM    7  C5  TCD E 805      -4.590  12.973  -0.170  1.00 41.22    -0.048 A 
ATOM      8  H5  TCD E 805      -5.367  13.491  -0.756  1.00  0.00     0.087 H 
HETATM    9  C6  TCD E 805      -4.303  13.368   1.135  1.00 42.21    -0.048 A 
ATOM     10  H6  TCD E 805      -4.908  14.164   1.599  1.00  0.00     0.087 H 
ENDROOT
BRANCH   1  11
HETATM   11  O21 TCD E 805      -3.019  13.236   3.148  1.00 45.47    -0.292 OA
BRANCH  11  12
HETATM   12  C22 TCD E 805      -1.808  13.896   3.295  1.00 38.07     0.170 A 
HETATM   13  N23 TCD E 805      -0.787  13.129   3.834  1.00 45.66    -0.344 N 
HETATM   14  C24 TCD E 805       0.448  13.617   4.045  1.00 44.36     0.000 A 
ATOM     15  H23 TCD E 805      -0.980  12.158   4.080  1.00  0.00     0.167 HD
HETATM   16  C25 TCD E 805       0.829  14.907   3.751  1.00 41.60     0.051 A 
ATOM     17  H24 TCD E 805       1.203  12.941   4.480  1.00  0.00     0.114 H 
HETATM   18 CL25 TCD E 805       2.463  15.469   4.063  1.00 54.00    -0.083 Cl
HETATM   19  C26 TCD E 805      -0.132  15.749   3.206  1.00 37.32    -0.035 A 
HETATM   20  C27 TCD E 805      -1.565  15.260   2.936  1.00 27.30     0.087 A 
ATOM     21  H26 TCD E 805       0.139  16.790   2.961  1.00  0.00     0.089 H 
HETATM   22 CL27 TCD E 805      -2.780  16.326   2.238  1.00 54.00    -0.080 Cl
ENDBRANCH  11  12
ENDBRANCH   1  11
BRANCH   6  23
HETATM   23  O31 TCD E 805      -4.031  11.395  -1.966  1.00 41.68    -0.292 OA
BRANCH  23  24
HETATM   24  C32 TCD E 805      -4.466  12.134  -3.062  1.00 40.28     0.170 A 
HETATM   25  N33 TCD E 805      -3.602  12.905  -3.757  1.00 39.55    -0.344 N 
HETATM   26  C34 TCD E 805      -4.027  13.619  -4.833  1.00 41.00     0.000 A 
ATOM     27  H33 TCD E 805      -2.624  12.953  -3.472  1.00  0.00     0.167 HD
HETATM   28  C35 TCD E 805      -5.373  13.591  -5.288  1.00 36.60     0.051 A 
ATOM     29  H34 TCD E 805      -3.298  14.245  -5.375  1.00  0.00     0.114 H 
HETATM   30 CL35 TCD E 805      -5.897  14.505  -6.702  1.00 54.00    -0.083 Cl
HETATM   31  C36 TCD E 805      -6.253  12.770  -4.552  1.00 45.29    -0.035 A 
HETATM   32  C37 TCD E 805      -5.835  12.045  -3.451  1.00 48.32     0.087 A 
ATOM     33  H36 TCD E 805      -7.309  12.704  -4.864  1.00  0.00     0.089 H 
HETATM   34 CL37 TCD E 805      -6.991  11.056  -2.555  1.00 54.00    -0.080 Cl
ENDBRANCH  23  24
ENDBRANCH   6  23
TORSDOF 4
ENDMDL
MODEL 9
REMARK VINA RESULT:      -6.7     17.917     20.390
REMARK  4 active torsions:
REMARK  status: ('A' for Active; 'I' for Inactive)
REMARK    1  A    between atoms: C1_1  and  O21_2 
REMARK    2  A    between atoms: C22_13  and  O21_2 
REMARK    3  A    between atoms: C4_7  and  O31_8 
REMARK    4  A    between atoms: C32_24  and  O31_8 
ROOT
HETATM    1  C1  TCD E 805       0.102   3.265 -17.534  1.00 43.72     0.078 A 
HETATM    2  C2  TCD E 805      -0.147   4.426 -16.770  1.00 43.31    -0.048 A 
ATOM      3  H2  TCD E 805       0.618   4.801 -16.070  1.00  0.00     0.087 H 
HETATM    4  C3  TCD E 805      -1.345   5.089 -16.900  1.00 41.08    -0.048 A 
ATOM      5  H3  TCD E 805      -1.557   5.955 -16.250  1.00  0.00     0.087 H 
HETATM    6  C4  TCD E 805      -2.307   4.684 -17.848  1.00 42.16     0.078 A 
HETATM    7  C5  TCD E 805      -2.069   3.526 -18.626  1.00 41.22    -0.048 A 
ATOM      8  H5  TCD E 805      -2.832   3.156 -19.332  1.00  0.00     0.087 H 
HETATM    9  C6  TCD E 805      -0.853   2.862 -18.483  1.00 42.21    -0.048 A 
ATOM     10  H6  TCD E 805      -0.634   1.998 -19.131  1.00  0.00     0.087 H 
ENDROOT
BRANCH   1  11
HETATM   11  O21 TCD E 805       1.271   2.547 -17.428  1.00 45.47    -0.292 OA
BRANCH  11  12
HETATM   12  C22 TCD E 805       2.042   2.538 -18.580  1.00 38.07     0.170 A 
HETATM   13  N23 TCD E 805       2.739   3.711 -18.825  1.00 45.66    -0.344 N 
HETATM   14  C24 TCD E 805       3.530   3.870 -19.901  1.00 44.36     0.000 A 
ATOM     15  H23 TCD E 805       2.647   4.483 -18.165  1.00  0.00     0.167 HD
HETATM   16  C25 TCD E 805       3.734   2.901 -20.858  1.00 41.60     0.051 A 
ATOM     17  H24 TCD E 805       4.047   4.835 -20.024  1.00  0.00     0.114 H 
HETATM   18 CL25 TCD E 805       4.781   3.190 -22.239  1.00 54.00    -0.083 Cl
HETATM   19  C26 TCD E 805       3.075   1.690 -20.693  1.00 37.32    -0.035 A 
HETATM   20  C27 TCD E 805       2.154   1.436 -19.487  1.00 27.30     0.087 A 
ATOM     21  H26 TCD E 805       3.214   0.892 -21.443  1.00  0.00     0.089 H 
HETATM   22 CL27 TCD E 805       1.324  -0.102 -19.276  1.00 54.00    -0.080 Cl
ENDBRANCH  11  12
ENDBRANCH   1  11
BRANCH   6  23
HETATM   23  O31 TCD E 805      -3.423   5.434 -17.882  1.00 41.68    -0.292 OA
BRANCH  23  24
HETATM   24  C32 TCD E 805      -4.239   5.684 -16.783  1.00 40.28     0.170 A 
HETATM   25  N33 TCD E 805      -5.000   4.701 -16.255  1.00 39.55    -0.344 N 
HETATM   26  C34 TCD E 805      -5.790   4.946 -15.176  1.00 41.00     0.000 A 
ATOM     27  H33 TCD E 805      -4.982   3.769 -16.668  1.00  0.00     0.167 HD
HETATM   28  C35 TCD E 805      -5.856   6.218 -14.546  1.00 36.60     0.051 A 
ATOM     29  H34 TCD E 805      -6.405   4.123 -14.773  1.00  0.00     0.114 H 
HETATM   30 CL35 TCD E 805      -6.868   6.505 -13.132  1.00 54.00    -0.083 Cl
HETATM   31  C36 TCD E 805      -5.044   7.224 -15.111  1.00 45.29    -0.035 A 
HETATM   32  C37 TCD E 805      -4.242   6.990 -16.213  1.00 48.32     0.087 A 
ATOM     33  H36 TCD E 805      -5.049   8.230 -14.658  1.00  0.00     0.089 H 
HETATM   34 CL37 TCD E 805      -3.268   8.299 -16.889  1.00 54.00    -0.080 Cl
ENDBRANCH  23  24
ENDBRANCH   6  23
TORSDOF 4
ENDMDL
MODEL 10
REMARK VINA RESULT:      -6.7     17.713     20.121
REMARK  4 active torsions:
REMARK  status: ('A' for Active; 'I' for Inactive)
REMARK    1  A    between atoms: C1_1  and  O21_2 
REMARK    2  A    between atoms: C22_13  and  O21_2 
REMARK    3  A    between atoms: C4_7  and  O31_8 
REMARK    4  A    between atoms: C32_24  and  O31_8 
ROOT
HETATM    1  C1  TCD E 805       1.168   2.963 -17.827  1.00 43.72     0.078 A 
HETATM    2  C2  TCD E 805       0.716   3.953 -16.927  1.00 43.31    -0.048 A 
ATOM      3  H2  TCD E 805       1.429   4.450 -16.248  1.00  0.00     0.087 H 
HETATM    4  C3  TCD E 805      -0.616   4.296 -16.897  1.00 41.08    -0.048 A 
ATOM      5  H3  TCD E 805      -0.971   5.020 -16.145  1.00  0.00     0.087 H 
HETATM    6  C4  TCD E 805      -1.536   3.741 -17.810  1.00 42.16     0.078 A 
HETATM    7  C5  TCD E 805      -1.096   2.753 -18.723  1.00 41.22    -0.048 A 
ATOM      8  H5  TCD E 805      -1.809   2.263 -19.407  1.00  0.00     0.087 H 
HETATM    9  C6  TCD E 805       0.254   2.412 -18.741  1.00 42.21    -0.048 A 
ATOM     10  H6  TCD E 805       0.616   1.691 -19.492  1.00  0.00     0.087 H 
ENDROOT
BRANCH   1  11
HETATM   11  O21 TCD E 805       2.482   2.561 -17.884  1.00 45.47    -0.292 OA
BRANCH  11  12
HETATM   12  C22 TCD E 805       3.128   2.884 -19.068  1.00 38.07     0.170 A 
HETATM   13  N23 TCD E 805       3.381   4.235 -19.244  1.00 45.66    -0.344 N 
HETATM   14  C24 TCD E 805       3.996   4.718 -20.339  1.00 44.36     0.000 A 
ATOM     15  H23 TCD E 805       3.090   4.889 -18.517  1.00  0.00     0.167 HD
HETATM   16  C25 TCD E 805       4.436   3.937 -21.384  1.00 41.60     0.051 A 
ATOM     17  H24 TCD E 805       4.158   5.806 -20.403  1.00  0.00     0.114 H 
HETATM   18 CL25 TCD E 805       5.226   4.646 -22.783  1.00 54.00    -0.083 Cl
HETATM   19  C26 TCD E 805       4.224   2.567 -21.292  1.00 37.32    -0.035 A 
HETATM   20  C27 TCD E 805       3.528   1.944 -20.070  1.00 27.30     0.087 A 
ATOM     21  H26 TCD E 805       4.562   1.912 -22.113  1.00  0.00     0.089 H 
HETATM   22 CL27 TCD E 805       3.266   0.207 -19.952  1.00 54.00    -0.080 Cl
ENDBRANCH  11  12
ENDBRANCH   1  11
BRANCH   6  23
HETATM   23  O31 TCD E 805      -2.800   4.182 -17.682  1.00 41.68    -0.292 OA
BRANCH  23  24
HETATM   24  C32 TCD E 805      -3.230   5.457 -18.037  1.00 40.28     0.170 A 
HETATM   25  N33 TCD E 805      -2.754   6.058 -19.149  1.00 39.55    -0.344 N 
HETATM   26  C34 TCD E 805      -3.183   7.300 -19.498  1.00 41.00     0.000 A 
ATOM     27  H33 TCD E 805      -2.068   5.578 -19.730  1.00  0.00     0.167 HD
HETATM   28  C35 TCD E 805      -4.143   8.021 -18.738  1.00 36.60     0.051 A 
ATOM     29  H34 TCD E 805      -2.769   7.767 -20.408  1.00  0.00     0.114 H 
HETATM   30 CL35 TCD E 805      -4.705   9.620 -19.224  1.00 54.00    -0.083 Cl
HETATM   31  C36 TCD E 805      -4.633   7.367 -17.588  1.00 45.29    -0.035 A 
HETATM   32  C37 TCD E 805      -4.199   6.107 -17.218  1.00 48.32     0.087 A 
ATOM     33  H36 TCD E 805      -5.385   7.877 -16.964  1.00  0.00     0.089 H 
HETATM   34 CL37 TCD E 805      -4.830   5.353 -15.752  1.00 54.00    -0.080 Cl
ENDBRANCH  23  24
ENDBRANCH   6  23
TORSDOF 4
ENDMDL
