MODEL 1
REMARK VINA RESULT:      -7.9      0.000      0.000
REMARK  4 active torsions:
REMARK  status: ('A' for Active; 'I' for Inactive)
REMARK    1  A    between atoms: C1_1  and  O21_2 
REMARK    2  A    between atoms: C22_13  and  O21_2 
REMARK    3  A    between atoms: C4_7  and  O31_8 
REMARK    4  A    between atoms: C32_24  and  O31_8 
ROOT
HETATM    1  C1  TCD E 805      16.277   9.185  -6.178  1.00 43.72     0.078 A 
HETATM    2  C2  TCD E 805      15.193   8.404  -5.722  1.00 43.31    -0.048 A 
ATOM      3  H2  TCD E 805      14.486   8.818  -4.984  1.00  0.00     0.087 H 
HETATM    4  C3  TCD E 805      15.020   7.126  -6.200  1.00 41.08    -0.048 A 
ATOM      5  H3  TCD E 805      14.211   6.499  -5.787  1.00  0.00     0.087 H 
HETATM    6  C4  TCD E 805      15.856   6.600  -7.206  1.00 42.16     0.078 A 
HETATM    7  C5  TCD E 805      16.943   7.374  -7.679  1.00 41.22    -0.048 A 
ATOM      8  H5  TCD E 805      17.645   6.961  -8.423  1.00  0.00     0.087 H 
HETATM    9  C6  TCD E 805      17.109   8.666  -7.184  1.00 42.21    -0.048 A 
ATOM     10  H6  TCD E 805      17.914   9.297  -7.594  1.00  0.00     0.087 H 
ENDROOT
BRANCH   1  11
HETATM   11  O21 TCD E 805      16.515  10.459  -5.718  1.00 45.47    -0.292 OA
BRANCH  11  12
HETATM   12  C22 TCD E 805      15.385  11.259  -5.640  1.00 38.07     0.170 A 
HETATM   13  N23 TCD E 805      15.242  11.952  -4.447  1.00 45.66    -0.344 N 
HETATM   14  C24 TCD E 805      14.200  12.768  -4.208  1.00 44.36     0.000 A 
ATOM     15  H23 TCD E 805      15.953  11.838  -3.725  1.00  0.00     0.167 HD
HETATM   16  C25 TCD E 805      13.182  13.003  -5.104  1.00 41.60     0.051 A 
ATOM     17  H24 TCD E 805      14.159  13.280  -3.233  1.00  0.00     0.114 H 
HETATM   18 CL25 TCD E 805      11.852  14.080  -4.711  1.00 54.00    -0.083 Cl
HETATM   19  C26 TCD E 805      13.243  12.349  -6.328  1.00 37.32    -0.035 A 
HETATM   20  C27 TCD E 805      14.405  11.401  -6.673  1.00 27.30     0.087 A 
ATOM     21  H26 TCD E 805      12.442  12.513  -7.069  1.00  0.00     0.089 H 
HETATM   22 CL27 TCD E 805      14.485  10.579  -8.227  1.00 54.00    -0.080 Cl
ENDBRANCH  11  12
ENDBRANCH   1  11
BRANCH   6  23
HETATM   23  O31 TCD E 805      15.560   5.347  -7.594  1.00 41.68    -0.292 OA
BRANCH  23  24
HETATM   24  C32 TCD E 805      14.359   4.967  -8.185  1.00 40.28     0.170 A 
HETATM   25  N33 TCD E 805      13.467   4.213  -7.507  1.00 39.55    -0.344 N 
HETATM   26  C34 TCD E 805      12.291   3.851  -8.084  1.00 41.00     0.000 A 
ATOM     27  H33 TCD E 805      13.678   3.913  -6.555  1.00  0.00     0.167 HD
HETATM   28  C35 TCD E 805      11.931   4.240  -9.402  1.00 36.60     0.051 A 
ATOM     29  H34 TCD E 805      11.587   3.229  -7.505  1.00  0.00     0.114 H 
HETATM   30 CL35 TCD E 805      10.389   3.780 -10.120  1.00 54.00    -0.083 Cl
HETATM   31  C36 TCD E 805      12.875   5.036 -10.085  1.00 45.29    -0.035 A 
HETATM   32  C37 TCD E 805      14.078   5.405  -9.513  1.00 48.32     0.087 A 
ATOM     33  H36 TCD E 805      12.646   5.374 -11.110  1.00  0.00     0.089 H 
HETATM   34 CL37 TCD E 805      15.229   6.380 -10.430  1.00 54.00    -0.080 Cl
ENDBRANCH  23  24
ENDBRANCH   6  23
TORSDOF 4
ENDMDL
MODEL 2
REMARK VINA RESULT:      -7.1     16.348     18.522
REMARK  4 active torsions:
REMARK  status: ('A' for Active; 'I' for Inactive)
REMARK    1  A    between atoms: C1_1  and  O21_2 
REMARK    2  A    between atoms: C22_13  and  O21_2 
REMARK    3  A    between atoms: C4_7  and  O31_8 
REMARK    4  A    between atoms: C32_24  and  O31_8 
ROOT
HETATM    1  C1  TCD E 805       8.969  -2.913   5.270  1.00 43.72     0.078 A 
HETATM    2  C2  TCD E 805       7.913  -2.521   4.418  1.00 43.31    -0.048 A 
ATOM      3  H2  TCD E 805       7.899  -2.854   3.366  1.00  0.00     0.087 H 
HETATM    4  C3  TCD E 805       6.900  -1.726   4.901  1.00 41.08    -0.048 A 
ATOM      5  H3  TCD E 805       6.116  -1.369   4.211  1.00  0.00     0.087 H 
HETATM    6  C4  TCD E 805       6.844  -1.356   6.260  1.00 42.16     0.078 A 
HETATM    7  C5  TCD E 805       7.892  -1.746   7.129  1.00 41.22    -0.048 A 
ATOM      8  H5  TCD E 805       7.900  -1.420   8.182  1.00  0.00     0.087 H 
HETATM    9  C6  TCD E 805       8.913  -2.550   6.626  1.00 42.21    -0.048 A 
ATOM     10  H6  TCD E 805       9.698  -2.910   7.311  1.00  0.00     0.087 H 
ENDROOT
BRANCH   1  11
HETATM   11  O21 TCD E 805      10.020  -3.686   4.836  1.00 45.47    -0.292 OA
BRANCH  11  12
HETATM   12  C22 TCD E 805      11.178  -2.973   4.562  1.00 38.07     0.170 A 
HETATM   13  N23 TCD E 805      12.094  -2.926   5.601  1.00 45.66    -0.344 N 
HETATM   14  C24 TCD E 805      13.266  -2.273   5.501  1.00 44.36     0.000 A 
ATOM     15  H23 TCD E 805      11.872  -3.404   6.474  1.00  0.00     0.167 HD
HETATM   16  C25 TCD E 805      13.678  -1.596   4.375  1.00 41.60     0.051 A 
ATOM     17  H24 TCD E 805      13.938  -2.282   6.374  1.00  0.00     0.114 H 
HETATM   18 CL25 TCD E 805      15.223  -0.762   4.327  1.00 54.00    -0.083 Cl
HETATM   19  C26 TCD E 805      12.821  -1.590   3.282  1.00 37.32    -0.035 A 
HETATM   20  C27 TCD E 805      11.465  -2.315   3.323  1.00 27.30     0.087 A 
ATOM     21  H26 TCD E 805      13.119  -1.055   2.365  1.00  0.00     0.089 H 
HETATM   22 CL27 TCD E 805      10.383  -2.313   1.935  1.00 54.00    -0.080 Cl
ENDBRANCH  11  12
ENDBRANCH   1  11
BRANCH   6  23
HETATM   23  O31 TCD E 805       5.790  -0.594   6.600  1.00 41.68    -0.292 OA
BRANCH  23  24
HETATM   24  C32 TCD E 805       5.754   0.258   7.699  1.00 40.28     0.170 A 
HETATM   25  N33 TCD E 805       5.077  -0.088   8.815  1.00 39.55    -0.344 N 
HETATM   26  C34 TCD E 805       5.051   0.743   9.891  1.00 41.00     0.000 A 
ATOM     27  H33 TCD E 805       4.582  -0.979   8.852  1.00  0.00     0.167 HD
HETATM   28  C35 TCD E 805       5.725   1.993   9.911  1.00 36.60     0.051 A 
ATOM     29  H34 TCD E 805       4.483   0.434  10.785  1.00  0.00     0.114 H 
HETATM   30 CL35 TCD E 805       5.699   3.043  11.327  1.00 54.00    -0.083 Cl
HETATM   31  C36 TCD E 805       6.434   2.327   8.737  1.00 45.29    -0.035 A 
HETATM   32  C37 TCD E 805       6.462   1.494   7.633  1.00 48.32     0.087 A 
ATOM     33  H36 TCD E 805       6.982   3.283   8.698  1.00  0.00     0.089 H 
HETATM   34 CL37 TCD E 805       7.344   1.981   6.184  1.00 54.00    -0.080 Cl
ENDBRANCH  23  24
ENDBRANCH   6  23
TORSDOF 4
ENDMDL
MODEL 3
REMARK VINA RESULT:      -6.8     17.679     19.919
REMARK  4 active torsions:
REMARK  status: ('A' for Active; 'I' for Inactive)
REMARK    1  A    between atoms: C1_1  and  O21_2 
REMARK    2  A    between atoms: C22_13  and  O21_2 
REMARK    3  A    between atoms: C4_7  and  O31_8 
REMARK    4  A    between atoms: C32_24  and  O31_8 
ROOT
HETATM    1  C1  TCD E 805       1.196   2.974 -17.918  1.00 43.72     0.078 A 
HETATM    2  C2  TCD E 805       0.246   2.423 -18.805  1.00 43.31    -0.048 A 
ATOM      3  H2  TCD E 805       0.554   1.660 -19.539  1.00  0.00     0.087 H 
HETATM    4  C3  TCD E 805      -1.064   2.840 -18.754  1.00 41.08    -0.048 A 
ATOM      5  H3  TCD E 805      -1.783   2.455 -19.495  1.00  0.00     0.087 H 
HETATM    6  C4  TCD E 805      -1.504   3.751 -17.771  1.00 42.16     0.078 A 
HETATM    7  C5  TCD E 805      -0.565   4.307 -16.870  1.00 41.22    -0.048 A 
ATOM      8  H5  TCD E 805      -0.875   5.064 -16.131  1.00  0.00     0.087 H 
HETATM    9  C6  TCD E 805       0.759   3.878 -16.935  1.00 42.21    -0.048 A 
ATOM     10  H6  TCD E 805       1.482   4.258 -16.195  1.00  0.00     0.087 H 
ENDROOT
BRANCH   1  11
HETATM   11  O21 TCD E 805       2.524   2.615 -17.940  1.00 45.47    -0.292 OA
BRANCH  11  12
HETATM   12  C22 TCD E 805       3.181   2.930 -19.120  1.00 38.07     0.170 A 
HETATM   13  N23 TCD E 805       3.408   4.284 -19.318  1.00 45.66    -0.344 N 
HETATM   14  C24 TCD E 805       4.029   4.759 -20.412  1.00 44.36     0.000 A 
ATOM     15  H23 TCD E 805       3.091   4.944 -18.607  1.00  0.00     0.167 HD
HETATM   16  C25 TCD E 805       4.503   3.969 -21.435  1.00 41.60     0.051 A 
ATOM     17  H24 TCD E 805       4.168   5.849 -20.494  1.00  0.00     0.114 H 
HETATM   18 CL25 TCD E 805       5.299   4.669 -22.835  1.00 54.00    -0.083 Cl
HETATM   19  C26 TCD E 805       4.319   2.596 -21.321  1.00 37.32    -0.035 A 
HETATM   20  C27 TCD E 805       3.618   1.981 -20.098  1.00 27.30     0.087 A 
ATOM     21  H26 TCD E 805       4.684   1.934 -22.124  1.00  0.00     0.089 H 
HETATM   22 CL27 TCD E 805       3.392   0.241 -19.952  1.00 54.00    -0.080 Cl
ENDBRANCH  11  12
ENDBRANCH   1  11
BRANCH   6  23
HETATM   23  O31 TCD E 805      -2.813   4.055 -17.824  1.00 41.68    -0.292 OA
BRANCH  23  24
HETATM   24  C32 TCD E 805      -3.344   5.306 -17.525  1.00 40.28     0.170 A 
HETATM   25  N33 TCD E 805      -4.010   5.511 -16.368  1.00 39.55    -0.344 N 
HETATM   26  C34 TCD E 805      -4.520   6.736 -16.075  1.00 41.00     0.000 A 
ATOM     27  H33 TCD E 805      -4.130   4.742 -15.710  1.00  0.00     0.167 HD
HETATM   28  C35 TCD E 805      -4.381   7.853 -16.942  1.00 36.60     0.051 A 
ATOM     29  H34 TCD E 805      -5.064   6.869 -15.124  1.00  0.00     0.114 H 
HETATM   30 CL35 TCD E 805      -5.029   9.439 -16.529  1.00 54.00    -0.083 Cl
HETATM   31  C36 TCD E 805      -3.674   7.615 -18.140  1.00 45.29    -0.035 A 
HETATM   32  C37 TCD E 805      -3.156   6.371 -18.453  1.00 48.32     0.087 A 
ATOM     33  H36 TCD E 805      -3.529   8.447 -18.848  1.00  0.00     0.089 H 
HETATM   34 CL37 TCD E 805      -2.303   6.131 -19.980  1.00 54.00    -0.080 Cl
ENDBRANCH  23  24
ENDBRANCH   6  23
TORSDOF 4
ENDMDL
MODEL 4
REMARK VINA RESULT:      -6.8     18.751     20.985
REMARK  4 active torsions:
REMARK  status: ('A' for Active; 'I' for Inactive)
REMARK    1  A    between atoms: C1_1  and  O21_2 
REMARK    2  A    between atoms: C22_13  and  O21_2 
REMARK    3  A    between atoms: C4_7  and  O31_8 
REMARK    4  A    between atoms: C32_24  and  O31_8 
ROOT
HETATM    1  C1  TCD E 805      -3.066  12.351  -0.990  1.00 43.72     0.078 A 
HETATM    2  C2  TCD E 805      -3.286  13.690  -0.602  1.00 43.31    -0.048 A 
ATOM      3  H2  TCD E 805      -3.601  14.437  -1.349  1.00  0.00     0.087 H 
HETATM    4  C3  TCD E 805      -3.107  14.063   0.710  1.00 41.08    -0.048 A 
ATOM      5  H3  TCD E 805      -3.214  15.124   0.990  1.00  0.00     0.087 H 
HETATM    6  C4  TCD E 805      -2.788  13.115   1.704  1.00 42.16     0.078 A 
HETATM    7  C5  TCD E 805      -2.571  11.766   1.331  1.00 41.22    -0.048 A 
ATOM      8  H5  TCD E 805      -2.263  11.019   2.082  1.00  0.00     0.087 H 
HETATM    9  C6  TCD E 805      -2.753  11.403  -0.001  1.00 42.21    -0.048 A 
ATOM     10  H6  TCD E 805      -2.649  10.344  -0.287  1.00  0.00     0.087 H 
ENDROOT
BRANCH   1  11
HETATM   11  O21 TCD E 805      -3.205  11.926  -2.291  1.00 45.47    -0.292 OA
BRANCH  11  12
HETATM   12  C22 TCD E 805      -4.491  12.048  -2.797  1.00 38.07     0.170 A 
HETATM   13  N23 TCD E 805      -5.432  11.219  -2.207  1.00 45.66    -0.344 N 
HETATM   14  C24 TCD E 805      -6.723  11.210  -2.583  1.00 44.36     0.000 A 
ATOM     15  H23 TCD E 805      -5.134  10.592  -1.459  1.00  0.00     0.167 HD
HETATM   16  C25 TCD E 805      -7.243  12.010  -3.575  1.00 41.60     0.051 A 
ATOM     17  H24 TCD E 805      -7.407  10.519  -2.064  1.00  0.00     0.114 H 
HETATM   18 CL25 TCD E 805      -8.943  11.934  -4.011  1.00 54.00    -0.083 Cl
HETATM   19  C26 TCD E 805      -6.371  12.875  -4.223  1.00 37.32    -0.035 A 
HETATM   20  C27 TCD E 805      -4.881  12.941  -3.846  1.00 27.30     0.087 A 
ATOM     21  H26 TCD E 805      -6.754  13.529  -5.024  1.00  0.00     0.089 H 
HETATM   22 CL27 TCD E 805      -3.777  14.043  -4.663  1.00 54.00    -0.080 Cl
ENDBRANCH  11  12
ENDBRANCH   1  11
BRANCH   6  23
HETATM   23  O31 TCD E 805      -2.662  13.613   2.946  1.00 41.68    -0.292 OA
BRANCH  23  24
HETATM   24  C32 TCD E 805      -1.448  13.905   3.560  1.00 40.28     0.170 A 
HETATM   25  N33 TCD E 805      -0.437  14.457   2.855  1.00 39.55    -0.344 N 
HETATM   26  C34 TCD E 805       0.746  14.749   3.459  1.00 41.00     0.000 A 
ATOM     27  H33 TCD E 805      -0.561  14.657   1.863  1.00  0.00     0.167 HD
HETATM   28  C35 TCD E 805       0.983  14.505   4.839  1.00 36.60     0.051 A 
ATOM     29  H34 TCD E 805       1.554  15.194   2.854  1.00  0.00     0.114 H 
HETATM   30 CL35 TCD E 805       2.515  14.916   5.607  1.00 54.00    -0.083 Cl
HETATM   31  C36 TCD E 805      -0.093  13.938   5.555  1.00 45.29    -0.035 A 
HETATM   32  C37 TCD E 805      -1.297  13.629   4.950  1.00 48.32     0.087 A 
ATOM     33  H36 TCD E 805       0.032  13.733   6.631  1.00  0.00     0.089 H 
HETATM   34 CL37 TCD E 805      -2.596  12.895   5.895  1.00 54.00    -0.080 Cl
ENDBRANCH  23  24
ENDBRANCH   6  23
TORSDOF 4
ENDMDL
MODEL 5
REMARK VINA RESULT:      -6.8     17.799     20.546
REMARK  4 active torsions:
REMARK  status: ('A' for Active; 'I' for Inactive)
REMARK    1  A    between atoms: C1_1  and  O21_2 
REMARK    2  A    between atoms: C22_13  and  O21_2 
REMARK    3  A    between atoms: C4_7  and  O31_8 
REMARK    4  A    between atoms: C32_24  and  O31_8 
ROOT
HETATM    1  C1  TCD E 805       1.166   2.808 -17.915  1.00 43.72     0.078 A 
HETATM    2  C2  TCD E 805       0.185   2.104 -18.647  1.00 43.31    -0.048 A 
ATOM      3  H2  TCD E 805       0.473   1.239 -19.267  1.00  0.00     0.087 H 
HETATM    4  C3  TCD E 805      -1.131   2.498 -18.585  1.00 41.08    -0.048 A 
ATOM      5  H3  TCD E 805      -1.880   1.985 -19.212  1.00  0.00     0.087 H 
HETATM    6  C4  TCD E 805      -1.543   3.545 -17.735  1.00 42.16     0.078 A 
HETATM    7  C5  TCD E 805      -0.572   4.256 -16.990  1.00 41.22    -0.048 A 
ATOM      8  H5  TCD E 805      -0.863   5.116 -16.363  1.00  0.00     0.087 H 
HETATM    9  C6  TCD E 805       0.758   3.848 -17.064  1.00 42.21    -0.048 A 
ATOM     10  H6  TCD E 805       1.510   4.356 -16.437  1.00  0.00     0.087 H 
ENDROOT
BRANCH   1  11
HETATM   11  O21 TCD E 805       2.500   2.476 -17.958  1.00 45.47    -0.292 OA
BRANCH  11  12
HETATM   12  C22 TCD E 805       3.127   2.784 -19.157  1.00 38.07     0.170 A 
HETATM   13  N23 TCD E 805       3.386   4.132 -19.350  1.00 45.66    -0.344 N 
HETATM   14  C24 TCD E 805       3.985   4.599 -20.460  1.00 44.36     0.000 A 
ATOM     15  H23 TCD E 805       3.113   4.793 -18.624  1.00  0.00     0.167 HD
HETATM   16  C25 TCD E 805       4.401   3.806 -21.505  1.00 41.60     0.051 A 
ATOM     17  H24 TCD E 805       4.153   5.686 -20.537  1.00  0.00     0.114 H 
HETATM   18 CL25 TCD E 805       5.170   4.496 -22.925  1.00 54.00    -0.083 Cl
HETATM   19  C26 TCD E 805       4.181   2.438 -21.397  1.00 37.32    -0.035 A 
HETATM   20  C27 TCD E 805       3.503   1.831 -20.157  1.00 27.30     0.087 A 
ATOM     21  H26 TCD E 805       4.500   1.773 -22.218  1.00  0.00     0.089 H 
HETATM   22 CL27 TCD E 805       3.231   0.097 -20.018  1.00 54.00    -0.080 Cl
ENDBRANCH  11  12
ENDBRANCH   1  11
BRANCH   6  23
HETATM   23  O31 TCD E 805      -2.861   3.811 -17.758  1.00 41.68    -0.292 OA
BRANCH  23  24
HETATM   24  C32 TCD E 805      -3.641   3.832 -18.910  1.00 40.28     0.170 A 
HETATM   25  N33 TCD E 805      -4.506   2.829 -19.174  1.00 39.55    -0.344 N 
HETATM   26  C34 TCD E 805      -5.273   2.857 -20.296  1.00 41.00     0.000 A 
ATOM     27  H33 TCD E 805      -4.584   2.045 -18.527  1.00  0.00     0.167 HD
HETATM   28  C35 TCD E 805      -5.220   3.923 -21.234  1.00 36.60     0.051 A 
ATOM     29  H34 TCD E 805      -5.965   2.018 -20.485  1.00  0.00     0.114 H 
HETATM   30 CL35 TCD E 805      -6.244   3.951 -22.669  1.00 54.00    -0.083 Cl
HETATM   31  C36 TCD E 805      -4.317   4.963 -20.931  1.00 45.29    -0.035 A 
HETATM   32  C37 TCD E 805      -3.526   4.943 -19.797  1.00 48.32     0.087 A 
ATOM     33  H36 TCD E 805      -4.239   5.820 -21.621  1.00  0.00     0.089 H 
HETATM   34 CL37 TCD E 805      -2.395   6.263 -19.487  1.00 54.00    -0.080 Cl
ENDBRANCH  23  24
ENDBRANCH   6  23
TORSDOF 4
ENDMDL
MODEL 6
REMARK VINA RESULT:      -6.8     16.375     17.789
REMARK  4 active torsions:
REMARK  status: ('A' for Active; 'I' for Inactive)
REMARK    1  A    between atoms: C1_1  and  O21_2 
REMARK    2  A    between atoms: C22_13  and  O21_2 
REMARK    3  A    between atoms: C4_7  and  O31_8 
REMARK    4  A    between atoms: C32_24  and  O31_8 
ROOT
HETATM    1  C1  TCD E 805       6.746  -1.187   6.341  1.00 43.72     0.078 A 
HETATM    2  C2  TCD E 805       7.790  -1.445   7.257  1.00 43.31    -0.048 A 
ATOM      3  H2  TCD E 805       7.686  -1.143   8.312  1.00  0.00     0.087 H 
HETATM    4  C3  TCD E 805       8.936  -2.075   6.830  1.00 41.08    -0.048 A 
ATOM      5  H3  TCD E 805       9.772  -2.211   7.537  1.00  0.00     0.087 H 
HETATM    6  C4  TCD E 805       9.063  -2.549   5.509  1.00 42.16     0.078 A 
HETATM    7  C5  TCD E 805       8.022  -2.304   4.581  1.00 41.22    -0.048 A 
ATOM      8  H5  TCD E 805       8.124  -2.614   3.527  1.00  0.00     0.087 H 
HETATM    9  C6  TCD E 805       6.868  -1.663   5.025  1.00 42.21    -0.048 A 
ATOM     10  H6  TCD E 805       6.028  -1.525   4.325  1.00  0.00     0.087 H 
ENDROOT
BRANCH   1  11
HETATM   11  O21 TCD E 805       5.588  -0.538   6.704  1.00 45.47    -0.292 OA
BRANCH  11  12
HETATM   12  C22 TCD E 805       5.752   0.402   7.709  1.00 38.07     0.170 A 
HETATM   13  N23 TCD E 805       5.119   0.096   8.904  1.00 45.66    -0.344 N 
HETATM   14  C24 TCD E 805       5.174   0.903   9.978  1.00 44.36     0.000 A 
ATOM     15  H23 TCD E 805       4.591  -0.775   8.971  1.00  0.00     0.167 HD
HETATM   16  C25 TCD E 805       5.856   2.099  10.011  1.00 41.60     0.051 A 
ATOM     17  H24 TCD E 805       4.641   0.587  10.890  1.00  0.00     0.114 H 
HETATM   18 CL25 TCD E 805       5.874   3.099  11.454  1.00 54.00    -0.083 Cl
HETATM   19  C26 TCD E 805       6.522   2.487   8.855  1.00 37.32    -0.035 A 
HETATM   20  C27 TCD E 805       6.503   1.615   7.588  1.00 27.30     0.087 A 
ATOM     21  H26 TCD E 805       7.076   3.441   8.845  1.00  0.00     0.089 H 
HETATM   22 CL27 TCD E 805       7.353   2.105   6.126  1.00 54.00    -0.080 Cl
ENDBRANCH  11  12
ENDBRANCH   1  11
BRANCH   6  23
HETATM   23  O31 TCD E 805      10.227  -3.164   5.235  1.00 41.68    -0.292 OA
BRANCH  23  24
HETATM   24  C32 TCD E 805      11.427  -2.504   4.983  1.00 40.28     0.170 A 
HETATM   25  N33 TCD E 805      12.284  -2.230   5.990  1.00 39.55    -0.344 N 
HETATM   26  C34 TCD E 805      13.459  -1.593   5.740  1.00 41.00     0.000 A 
ATOM     27  H33 TCD E 805      12.049  -2.502   6.944  1.00  0.00     0.167 HD
HETATM   28  C35 TCD E 805      13.853  -1.195   4.434  1.00 36.60     0.051 A 
ATOM     29  H34 TCD E 805      14.135  -1.378   6.585  1.00  0.00     0.114 H 
HETATM   30 CL35 TCD E 805      15.393  -0.394   4.130  1.00 54.00    -0.083 Cl
HETATM   31  C36 TCD E 805      12.944  -1.502   3.399  1.00 45.29    -0.035 A 
HETATM   32  C37 TCD E 805      11.743  -2.142   3.641  1.00 48.32     0.087 A 
ATOM     33  H36 TCD E 805      13.201  -1.222   2.363  1.00  0.00     0.089 H 
HETATM   34 CL37 TCD E 805      10.636  -2.475   2.306  1.00 54.00    -0.080 Cl
ENDBRANCH  23  24
ENDBRANCH   6  23
TORSDOF 4
ENDMDL
MODEL 7
REMARK VINA RESULT:      -6.8     18.891     20.051
REMARK  4 active torsions:
REMARK  status: ('A' for Active; 'I' for Inactive)
REMARK    1  A    between atoms: C1_1  and  O21_2 
REMARK    2  A    between atoms: C22_13  and  O21_2 
REMARK    3  A    between atoms: C4_7  and  O31_8 
REMARK    4  A    between atoms: C32_24  and  O31_8 
ROOT
HETATM    1  C1  TCD E 805      -3.269  12.780   1.859  1.00 43.72     0.078 A 
HETATM    2  C2  TCD E 805      -2.571  11.689   1.297  1.00 43.31    -0.048 A 
ATOM      3  H2  TCD E 805      -1.813  11.153   1.892  1.00  0.00     0.087 H 
HETATM    4  C3  TCD E 805      -2.838  11.294   0.007  1.00 41.08    -0.048 A 
ATOM      5  H3  TCD E 805      -2.240  10.485  -0.446  1.00  0.00     0.087 H 
HETATM    6  C4  TCD E 805      -3.860  11.904  -0.749  1.00 42.16     0.078 A 
HETATM    7  C5  TCD E 805      -4.573  12.995  -0.198  1.00 41.22    -0.048 A 
ATOM      8  H5  TCD E 805      -5.336  13.525  -0.791  1.00  0.00     0.087 H 
HETATM    9  C6  TCD E 805      -4.291  13.386   1.109  1.00 42.21    -0.048 A 
ATOM     10  H6  TCD E 805      -4.886  14.193   1.568  1.00  0.00     0.087 H 
ENDROOT
BRANCH   1  11
HETATM   11  O21 TCD E 805      -3.027  13.236   3.134  1.00 45.47    -0.292 OA
BRANCH  11  12
HETATM   12  C22 TCD E 805      -1.822  13.907   3.281  1.00 38.07     0.170 A 
HETATM   13  N23 TCD E 805      -0.791  13.146   3.810  1.00 45.66    -0.344 N 
HETATM   14  C24 TCD E 805       0.440  13.645   4.020  1.00 44.36     0.000 A 
ATOM     15  H23 TCD E 805      -0.972  12.170   4.047  1.00  0.00     0.167 HD
HETATM   16  C25 TCD E 805       0.806  14.942   3.737  1.00 41.60     0.051 A 
ATOM     17  H24 TCD E 805       1.204  12.974   4.446  1.00  0.00     0.114 H 
HETATM   18 CL25 TCD E 805       2.435  15.518   4.048  1.00 54.00    -0.083 Cl
HETATM   19  C26 TCD E 805      -0.166  15.778   3.203  1.00 37.32    -0.035 A 
HETATM   20  C27 TCD E 805      -1.595  15.277   2.934  1.00 27.30     0.087 A 
ATOM     21  H26 TCD E 805       0.092  16.824   2.967  1.00  0.00     0.089 H 
HETATM   22 CL27 TCD E 805      -2.824  16.336   2.251  1.00 54.00    -0.080 Cl
ENDBRANCH  11  12
ENDBRANCH   1  11
BRANCH   6  23
HETATM   23  O31 TCD E 805      -4.026  11.406  -1.987  1.00 41.68    -0.292 OA
BRANCH  23  24
HETATM   24  C32 TCD E 805      -4.481  12.140  -3.078  1.00 40.28     0.170 A 
HETATM   25  N33 TCD E 805      -3.632  12.912  -3.789  1.00 39.55    -0.344 N 
HETATM   26  C34 TCD E 805      -4.078  13.622  -4.860  1.00 41.00     0.000 A 
ATOM     27  H33 TCD E 805      -2.649  12.964  -3.522  1.00  0.00     0.167 HD
HETATM   28  C35 TCD E 805      -5.431  13.588  -5.292  1.00 36.60     0.051 A 
ATOM     29  H34 TCD E 805      -3.360  14.248  -5.416  1.00  0.00     0.114 H 
HETATM   30 CL35 TCD E 805      -5.982  14.496  -6.699  1.00 54.00    -0.083 Cl
HETATM   31  C36 TCD E 805      -6.296  12.766  -4.539  1.00 45.29    -0.035 A 
HETATM   32  C37 TCD E 805      -5.856  12.046  -3.443  1.00 48.32     0.087 A 
ATOM     33  H36 TCD E 805      -7.356  12.697  -4.833  1.00  0.00     0.089 H 
HETATM   34 CL37 TCD E 805      -6.994  11.056  -2.525  1.00 54.00    -0.080 Cl
ENDBRANCH  23  24
ENDBRANCH   6  23
TORSDOF 4
ENDMDL
MODEL 8
REMARK VINA RESULT:      -6.8     14.955     17.259
REMARK  4 active torsions:
REMARK  status: ('A' for Active; 'I' for Inactive)
REMARK    1  A    between atoms: C1_1  and  O21_2 
REMARK    2  A    between atoms: C22_13  and  O21_2 
REMARK    3  A    between atoms: C4_7  and  O31_8 
REMARK    4  A    between atoms: C32_24  and  O31_8 
ROOT
HETATM    1  C1  TCD E 805      13.402   0.072   4.437  1.00 43.72     0.078 A 
HETATM    2  C2  TCD E 805      14.488  -0.621   3.858  1.00 43.31    -0.048 A 
ATOM      3  H2  TCD E 805      14.303  -1.436   3.138  1.00  0.00     0.087 H 
HETATM    4  C3  TCD E 805      15.777  -0.279   4.194  1.00 41.08    -0.048 A 
ATOM      5  H3  TCD E 805      16.616  -0.871   3.789  1.00  0.00     0.087 H 
HETATM    6  C4  TCD E 805      16.048   0.812   5.044  1.00 42.16     0.078 A 
HETATM    7  C5  TCD E 805      14.970   1.521   5.627  1.00 41.22    -0.048 A 
ATOM      8  H5  TCD E 805      15.157   2.341   6.340  1.00  0.00     0.087 H 
HETATM    9  C6  TCD E 805      13.669   1.163   5.281  1.00 42.21    -0.048 A 
ATOM     10  H6  TCD E 805      12.827   1.751   5.680  1.00  0.00     0.087 H 
ENDROOT
BRANCH   1  11
HETATM   11  O21 TCD E 805      12.092  -0.243   4.159  1.00 45.47    -0.292 OA
BRANCH  11  12
HETATM   12  C22 TCD E 805      11.700  -1.497   4.602  1.00 38.07     0.170 A 
HETATM   13  N23 TCD E 805      11.797  -1.689   5.972  1.00 45.66    -0.344 N 
HETATM   14  C24 TCD E 805      11.460  -2.848   6.564  1.00 44.36     0.000 A 
ATOM     15  H23 TCD E 805      12.137  -0.922   6.552  1.00  0.00     0.167 HD
HETATM   16  C25 TCD E 805      10.988  -3.951   5.889  1.00 41.60     0.051 A 
ATOM     17  H24 TCD E 805      11.569  -2.920   7.659  1.00  0.00     0.114 H 
HETATM   18 CL25 TCD E 805      10.575  -5.432   6.737  1.00 54.00    -0.083 Cl
HETATM   19  C26 TCD E 805      10.857  -3.849   4.509  1.00 37.32    -0.035 A 
HETATM   20  C27 TCD E 805      11.222  -2.554   3.764  1.00 27.30     0.087 A 
ATOM     21  H26 TCD E 805      10.483  -4.715   3.937  1.00  0.00     0.089 H 
HETATM   22 CL27 TCD E 805      11.050  -2.424   2.016  1.00 54.00    -0.080 Cl
ENDBRANCH  11  12
ENDBRANCH   1  11
BRANCH   6  23
HETATM   23  O31 TCD E 805      17.352   1.047   5.270  1.00 41.68    -0.292 OA
BRANCH  23  24
HETATM   24  C32 TCD E 805      17.851   1.726   6.378  1.00 40.28     0.170 A 
HETATM   25  N33 TCD E 805      18.100   3.052   6.316  1.00 39.55    -0.344 N 
HETATM   26  C34 TCD E 805      18.578   3.715   7.402  1.00 41.00     0.000 A 
ATOM     27  H33 TCD E 805      17.928   3.560   5.448  1.00  0.00     0.167 HD
HETATM   28  C35 TCD E 805      18.832   3.071   8.643  1.00 36.60     0.051 A 
ATOM     29  H34 TCD E 805      18.778   4.797   7.316  1.00  0.00     0.114 H 
HETATM   30 CL35 TCD E 805      19.428   3.956  10.046  1.00 54.00    -0.083 Cl
HETATM   31  C36 TCD E 805      18.554   1.688   8.685  1.00 45.29    -0.035 A 
HETATM   32  C37 TCD E 805      18.074   1.001   7.585  1.00 48.32     0.087 A 
ATOM     33  H36 TCD E 805      18.725   1.138   9.625  1.00  0.00     0.089 H 
HETATM   34 CL37 TCD E 805      17.771  -0.735   7.693  1.00 54.00    -0.080 Cl
ENDBRANCH  23  24
ENDBRANCH   6  23
TORSDOF 4
ENDMDL
MODEL 9
REMARK VINA RESULT:      -6.7     16.174     17.662
REMARK  4 active torsions:
REMARK  status: ('A' for Active; 'I' for Inactive)
REMARK    1  A    between atoms: C1_1  and  O21_2 
REMARK    2  A    between atoms: C22_13  and  O21_2 
REMARK    3  A    between atoms: C4_7  and  O31_8 
REMARK    4  A    between atoms: C32_24  and  O31_8 
ROOT
HETATM    1  C1  TCD E 805       6.978  -1.411   6.118  1.00 43.72     0.078 A 
HETATM    2  C2  TCD E 805       8.115  -1.679   6.912  1.00 43.31    -0.048 A 
ATOM      3  H2  TCD E 805       8.131  -1.376   7.972  1.00  0.00     0.087 H 
HETATM    4  C3  TCD E 805       9.202  -2.317   6.362  1.00 41.08    -0.048 A 
ATOM      5  H3  TCD E 805      10.111  -2.460   6.970  1.00  0.00     0.087 H 
HETATM    6  C4  TCD E 805       9.178  -2.792   5.034  1.00 42.16     0.078 A 
HETATM    7  C5  TCD E 805       8.043  -2.538   4.227  1.00 41.22    -0.048 A 
ATOM      8  H5  TCD E 805       8.025  -2.848   3.169  1.00  0.00     0.087 H 
HETATM    9  C6  TCD E 805       6.950  -1.888   4.796  1.00 42.21    -0.048 A 
ATOM     10  H6  TCD E 805       6.039  -1.744   4.193  1.00  0.00     0.087 H 
ENDROOT
BRANCH   1  11
HETATM   11  O21 TCD E 805       5.873  -0.754   6.606  1.00 45.47    -0.292 OA
BRANCH  11  12
HETATM   12  C22 TCD E 805       6.160   0.426   7.275  1.00 38.07     0.170 A 
HETATM   13  N23 TCD E 805       6.797   1.391   6.510  1.00 45.66    -0.344 N 
HETATM   14  C24 TCD E 805       7.149   2.590   7.006  1.00 44.36     0.000 A 
ATOM     15  H23 TCD E 805       7.007   1.183   5.533  1.00  0.00     0.167 HD
HETATM   16  C25 TCD E 805       6.917   2.986   8.304  1.00 41.60     0.051 A 
ATOM     17  H24 TCD E 805       7.654   3.300   6.332  1.00  0.00     0.114 H 
HETATM   18 CL25 TCD E 805       7.413   4.570   8.878  1.00 54.00    -0.083 Cl
HETATM   19  C26 TCD E 805       6.281   2.081   9.146  1.00 37.32    -0.035 A 
HETATM   20  C27 TCD E 805       5.849   0.691   8.647  1.00 27.30     0.087 A 
ATOM     21  H26 TCD E 805       6.082   2.365  10.193  1.00  0.00     0.089 H 
HETATM   22 CL27 TCD E 805       5.038  -0.452   9.712  1.00 54.00    -0.080 Cl
ENDBRANCH  11  12
ENDBRANCH   1  11
BRANCH   6  23
HETATM   23  O31 TCD E 805      10.300  -3.415   4.633  1.00 41.68    -0.292 OA
BRANCH  23  24
HETATM   24  C32 TCD E 805      11.538  -2.796   4.493  1.00 40.28     0.170 A 
HETATM   25  N33 TCD E 805      11.695  -1.753   3.649  1.00 39.55    -0.344 N 
HETATM   26  C34 TCD E 805      12.904  -1.146   3.521  1.00 41.00     0.000 A 
ATOM     27  H33 TCD E 805      10.900  -1.420   3.104  1.00  0.00     0.167 HD
HETATM   28  C35 TCD E 805      14.049  -1.554   4.257  1.00 36.60     0.051 A 
ATOM     29  H34 TCD E 805      13.000  -0.301   2.818  1.00  0.00     0.114 H 
HETATM   30 CL35 TCD E 805      15.601  -0.734   4.094  1.00 54.00    -0.083 Cl
HETATM   31  C36 TCD E 805      13.857  -2.638   5.139  1.00 45.29    -0.035 A 
HETATM   32  C37 TCD E 805      12.634  -3.270   5.273  1.00 48.32     0.087 A 
ATOM     33  H36 TCD E 805      14.710  -2.993   5.741  1.00  0.00     0.089 H 
HETATM   34 CL37 TCD E 805      12.465  -4.639   6.374  1.00 54.00    -0.080 Cl
ENDBRANCH  23  24
ENDBRANCH   6  23
TORSDOF 4
ENDMDL
