REMARK  4 active torsions:
REMARK  status: ('A' for Active; 'I' for Inactive)
REMARK    1  A    between atoms: C1_1  and  O21_2 
REMARK    2  A    between atoms: C22_13  and  O21_2 
REMARK    3  A    between atoms: C4_7  and  O31_8 
REMARK    4  A    between atoms: C32_24  and  O31_8 
ROOT
HETATM    1  C1  TCD E 805      22.957   8.873  19.965  1.00 43.72     0.078 A 
HETATM    2  C2  TCD E 805      22.084   9.215  18.909  1.00 43.31    -0.048 A 
ATOM      3  H2  TCD E 805      21.997   8.556  18.029  1.00  0.00     0.087 H 
HETATM    4  C3  TCD E 805      21.342  10.371  18.979  1.00 41.08    -0.048 A 
ATOM      5  H3  TCD E 805      20.715  10.664  18.120  1.00  0.00     0.087 H 
HETATM    6  C4  TCD E 805      21.367  11.189  20.127  1.00 42.16     0.078 A 
HETATM    7  C5  TCD E 805      22.232  10.856  21.197  1.00 41.22    -0.048 A 
ATOM      8  H5  TCD E 805      22.312  11.512  22.080  1.00  0.00     0.087 H 
HETATM    9  C6  TCD E 805      22.980   9.684  21.112  1.00 42.21    -0.048 A 
ATOM     10  H6  TCD E 805      23.607   9.385  21.968  1.00  0.00     0.087 H 
ENDROOT
BRANCH   1  11
HETATM   11  O21 TCD E 805      23.742   7.744  19.939  1.00 45.47    -0.292 OA
BRANCH  11  12
HETATM   12  C22 TCD E 805      24.784   7.794  19.025  1.00 38.07     0.170 A 
HETATM   13  N23 TCD E 805      25.007   9.041  18.462  1.00 45.66    -0.344 N 
HETATM   14  C24 TCD E 805      25.976   9.261  17.556  1.00 44.36     0.000 A 
ATOM     15  H23 TCD E 805      24.414   9.821  18.746  1.00  0.00     0.167 HD
HETATM   16  C25 TCD E 805      26.839   8.291  17.098  1.00 41.60     0.051 A 
ATOM     17  H24 TCD E 805      26.086  10.282  17.155  1.00  0.00     0.114 H 
HETATM   18 CL25 TCD E 805      28.076   8.659  15.907  1.00 54.00    -0.083 Cl
HETATM   19  C26 TCD E 805      26.689   7.008  17.609  1.00 37.32    -0.035 A 
HETATM   20  C27 TCD E 805      25.603   6.682  18.649  1.00 27.30     0.087 A 
ATOM     21  H26 TCD E 805      27.362   6.206  17.262  1.00  0.00     0.089 H 
HETATM   22 CL27 TCD E 805      25.418   5.057  19.301  1.00 54.00    -0.080 Cl
ENDBRANCH  11  12
ENDBRANCH   1  11
BRANCH   6  23
HETATM   23  O31 TCD E 805      20.578  12.276  20.068  1.00 41.68    -0.292 OA
BRANCH  23  24
HETATM   24  C32 TCD E 805      21.042  13.588  20.063  1.00 40.28     0.170 A 
HETATM   25  N33 TCD E 805      22.349  13.854  19.851  1.00 39.55    -0.344 N 
HETATM   26  C34 TCD E 805      22.798  15.137  19.838  1.00 41.00     0.000 A 
ATOM     27  H33 TCD E 805      23.004  13.087  19.700  1.00  0.00     0.167 HD
HETATM   28  C35 TCD E 805      21.939  16.252  20.033  1.00 36.60     0.051 A 
ATOM     29  H34 TCD E 805      23.873  15.320  19.669  1.00  0.00     0.114 H 
HETATM   30 CL35 TCD E 805      22.539  17.909  19.986  1.00 54.00    -0.083 Cl
HETATM   31  C36 TCD E 805      20.577  15.948  20.242  1.00 45.29    -0.035 A 
HETATM   32  C37 TCD E 805      20.109  14.647  20.265  1.00 48.32     0.087 A 
ATOM     33  H36 TCD E 805      19.863  16.775  20.392  1.00  0.00     0.089 H 
HETATM   34 CL37 TCD E 805      18.397  14.331  20.558  1.00 54.00    -0.080 Cl
ENDBRANCH  23  24
ENDBRANCH   6  23
TORSDOF 4
