MODEL 1
REMARK VINA RESULT:     -11.1      0.000      0.000
REMARK  Name = 
REMARK  10 active torsions:
REMARK  status: ('A' for Active; 'I' for Inactive)
REMARK    1  A    between atoms: C_2  and  C_3
REMARK    2  A    between atoms: C_3  and  C_4
REMARK    3  A    between atoms: C_3  and  C_6
REMARK    4  A    between atoms: N_8  and  C_9
REMARK    5  A    between atoms: C_9  and  C_10
REMARK    6  A    between atoms: C_12  and  C_13
REMARK    7  A    between atoms: C_13  and  C_14
REMARK    8  A    between atoms: C_17  and  C_18
REMARK    9  A    between atoms: C_18  and  O_19
REMARK   10  A    between atoms: O_19  and  C_20
REMARK                            x       y       z     vdW  Elec       q    Type
REMARK                         _______ _______ _______ _____ _____    ______ ____
ROOT
ATOM     10  C   UNL     1      -1.884   3.510  24.834  0.00  0.00    +0.167 C 
ATOM     11  O   UNL     1      -1.592   2.783  24.575  0.00  0.00    -0.354 OA
ATOM     12  C   UNL     1      -0.815   2.564  24.747  0.00  0.00    +0.121 C 
ATOM     27  C   UNL     1      -0.330   3.073  25.179  0.00  0.00    +0.033 C 
ATOM     28  C   UNL     1      -0.622   3.800  25.438  0.00  0.00    +0.038 C 
ATOM     29  C   UNL     1      -1.398   4.018  25.266  0.00  0.00    +0.181 C 
ATOM     30  O   UNL     1      -1.690   4.745  25.526  0.00  0.00    -0.220 OA
ENDROOT
BRANCH  10   9
ATOM      9  C   UNL     1      -2.660   3.727  24.662  0.00  0.00    +0.147 C 
BRANCH   9   8
ATOM      6  C   UNL     1      -4.041   3.360  24.630  0.00  0.00    +0.241 C 
ATOM      7  O   UNL     1      -4.164   3.880  24.001  0.00  0.00    -0.273 OA
ATOM      8  N   UNL     1      -3.289   3.284  24.960  0.00  0.00    -0.203 NA
BRANCH   6   3
ATOM      3  C   UNL     1      -4.670   2.916  24.928  0.00  0.00    +0.078 C 
BRANCH   3   2
ATOM      1  C   UNL     1      -5.194   1.588  24.900  0.00  0.00    +0.001 C 
ATOM      2  C   UNL     1      -4.956   2.270  24.503  0.00  0.00    +0.009 C 
ENDBRANCH   3   2
BRANCH   3   4
ATOM      4  C   UNL     1      -5.011   3.119  25.651  0.00  0.00    +0.009 C 
ATOM      5  C   UNL     1      -5.810   3.325  25.686  0.00  0.00    +0.001 C 
ENDBRANCH   3   4
ENDBRANCH   6   3
ENDBRANCH   9   8
ENDBRANCH  10   9
BRANCH  12  13
ATOM     13  C   UNL     1      -0.523   1.837  24.488  0.00  0.00    +0.079 C 
BRANCH  13  14
ATOM     14  C   UNL     1      -0.833   1.136  24.794  0.00  0.00    +0.103 A 
ATOM     15  N   UNL     1      -0.769   0.877  25.574  0.00  0.00    -0.082 NA
ATOM     16  O   UNL     1      -1.157   0.152  25.634  0.00  0.00    -0.354 OA
ATOM     17  C   UNL     1      -1.462  -0.037  24.892  0.00  0.00    +0.198 A 
ATOM     26  C   UNL     1      -1.262   0.571  24.372  0.00  0.00    +0.057 A 
BRANCH  17  18
ATOM     18  C   UNL     1      -1.892  -0.715  24.702  0.00  0.00    +0.272 C 
BRANCH  18  19
ATOM     19  O   UNL     1      -2.655  -0.816  24.998  0.00  0.00    -0.467 OA
BRANCH  19  20
ATOM     20  C   UNL     1      -3.129  -1.429  24.714  0.00  0.00    +0.139 A 
ATOM     21  C   UNL     1      -3.019  -2.198  24.993  0.00  0.00    +0.037 A 
ATOM     22  C   UNL     1      -3.492  -2.811  24.710  0.00  0.00    +0.003 A 
ATOM     23  C   UNL     1      -4.075  -2.656  24.148  0.00  0.00    +0.000 A 
ATOM     24  C   UNL     1      -4.186  -1.888  23.869  0.00  0.00    +0.003 A 
ATOM     25  C   UNL     1      -3.712  -1.275  24.153  0.00  0.00    +0.037 A 
ENDBRANCH  19  20
ENDBRANCH  18  19
ENDBRANCH  17  18
ENDBRANCH  13  14
ENDBRANCH  12  13
TORSDOF 10
ENDMDL
MODEL 2
REMARK VINA RESULT:     -10.7      1.151      4.151
REMARK  Name = 
REMARK  10 active torsions:
REMARK  status: ('A' for Active; 'I' for Inactive)
REMARK    1  A    between atoms: C_2  and  C_3
REMARK    2  A    between atoms: C_3  and  C_4
REMARK    3  A    between atoms: C_3  and  C_6
REMARK    4  A    between atoms: N_8  and  C_9
REMARK    5  A    between atoms: C_9  and  C_10
REMARK    6  A    between atoms: C_12  and  C_13
REMARK    7  A    between atoms: C_13  and  C_14
REMARK    8  A    between atoms: C_17  and  C_18
REMARK    9  A    between atoms: C_18  and  O_19
REMARK   10  A    between atoms: O_19  and  C_20
REMARK                            x       y       z     vdW  Elec       q    Type
REMARK                         _______ _______ _______ _____ _____    ______ ____
ROOT
ATOM     10  C   UNL     1      -0.478   0.115  24.360  0.00  0.00    +0.167 C 
ATOM     11  O   UNL     1      -0.678   0.739  24.860  0.00  0.00    -0.354 OA
ATOM     12  C   UNL     1      -0.293   1.466  24.788  0.00  0.00    +0.121 C 
ATOM     27  C   UNL     1       0.291   1.568  24.215  0.00  0.00    +0.033 C 
ATOM     28  C   UNL     1       0.491   0.944  23.714  0.00  0.00    +0.038 C 
ATOM     29  C   UNL     1       0.107   0.218  23.786  0.00  0.00    +0.181 C 
ATOM     30  O   UNL     1       0.307  -0.406  23.285  0.00  0.00    -0.220 OA
ENDROOT
BRANCH  10   9
ATOM      9  C   UNL     1      -0.862  -0.611  24.432  0.00  0.00    +0.147 C 
BRANCH   9   8
ATOM      6  C   UNL     1      -2.049  -1.357  24.708  0.00  0.00    +0.241 C 
ATOM      7  O   UNL     1      -1.609  -2.055  24.714  0.00  0.00    -0.273 OA
ATOM      8  N   UNL     1      -1.675  -0.635  24.567  0.00  0.00    -0.203 NA
BRANCH   6   3
ATOM      3  C   UNL     1      -2.863  -1.381  24.843  0.00  0.00    +0.078 C 
BRANCH   3   2
ATOM      1  C   UNL     1      -3.997  -1.729  24.046  0.00  0.00    +0.001 C 
ATOM      2  C   UNL     1      -3.387  -1.205  24.232  0.00  0.00    +0.009 C 
ENDBRANCH   3   2
BRANCH   3   4
ATOM      4  C   UNL     1      -3.151  -1.583  25.589  0.00  0.00    +0.009 C 
ATOM      5  C   UNL     1      -3.620  -1.048  26.008  0.00  0.00    +0.001 C 
ENDBRANCH   3   4
ENDBRANCH   6   3
ENDBRANCH   9   8
ENDBRANCH  10   9
BRANCH  12  13
ATOM     13  C   UNL     1      -0.493   2.091  25.289  0.00  0.00    +0.079 C 
BRANCH  13  14
ATOM     14  C   UNL     1      -1.155   2.555  25.124  0.00  0.00    +0.103 A 
ATOM     15  N   UNL     1      -1.175   3.211  24.625  0.00  0.00    -0.082 NA
ATOM     16  O   UNL     1      -1.946   3.506  24.623  0.00  0.00    -0.354 OA
ATOM     17  C   UNL     1      -2.401   3.033  25.121  0.00  0.00    +0.198 A 
ATOM     26  C   UNL     1      -1.913   2.445  25.432  0.00  0.00    +0.057 A 
BRANCH  17  18
ATOM     18  C   UNL     1      -3.205   3.130  25.281  0.00  0.00    +0.272 C 
BRANCH  18  19
ATOM     19  O   UNL     1      -3.767   2.923  24.714  0.00  0.00    -0.467 OA
BRANCH  19  20
ATOM     20  C   UNL     1      -4.528   2.706  24.948  0.00  0.00    +0.139 A 
ATOM     21  C   UNL     1      -4.882   2.034  24.624  0.00  0.00    +0.037 A 
ATOM     22  C   UNL     1      -5.643   1.817  24.858  0.00  0.00    +0.003 A 
ATOM     23  C   UNL     1      -6.049   2.271  25.414  0.00  0.00    +0.000 A 
ATOM     24  C   UNL     1      -5.695   2.942  25.738  0.00  0.00    +0.003 A 
ATOM     25  C   UNL     1      -4.934   3.159  25.504  0.00  0.00    +0.037 A 
ENDBRANCH  19  20
ENDBRANCH  18  19
ENDBRANCH  17  18
ENDBRANCH  13  14
ENDBRANCH  12  13
TORSDOF 10
ENDMDL
MODEL 3
REMARK VINA RESULT:     -10.7      1.167      3.219
REMARK  Name = 
REMARK  10 active torsions:
REMARK  status: ('A' for Active; 'I' for Inactive)
REMARK    1  A    between atoms: C_2  and  C_3
REMARK    2  A    between atoms: C_3  and  C_4
REMARK    3  A    between atoms: C_3  and  C_6
REMARK    4  A    between atoms: N_8  and  C_9
REMARK    5  A    between atoms: C_9  and  C_10
REMARK    6  A    between atoms: C_12  and  C_13
REMARK    7  A    between atoms: C_13  and  C_14
REMARK    8  A    between atoms: C_17  and  C_18
REMARK    9  A    between atoms: C_18  and  O_19
REMARK   10  A    between atoms: O_19  and  C_20
REMARK                            x       y       z     vdW  Elec       q    Type
REMARK                         _______ _______ _______ _____ _____    ______ ____
ROOT
ATOM     10  C   UNL     1      -2.555   3.521  24.998  0.00  0.00    +0.167 C 
ATOM     11  O   UNL     1      -3.221   3.134  24.702  0.00  0.00    -0.354 OA
ATOM     12  C   UNL     1      -3.976   3.374  24.935  0.00  0.00    +0.121 C 
ATOM     27  C   UNL     1      -4.063   4.001  25.464  0.00  0.00    +0.033 C 
ATOM     28  C   UNL     1      -3.397   4.388  25.760  0.00  0.00    +0.038 C 
ATOM     29  C   UNL     1      -2.644   4.148  25.527  0.00  0.00    +0.181 C 
ATOM     30  O   UNL     1      -1.978   4.535  25.822  0.00  0.00    -0.220 OA
ENDROOT
BRANCH  10   9
ATOM      9  C   UNL     1      -1.801   3.281  24.765  0.00  0.00    +0.147 C 
BRANCH   9   8
ATOM      6  C   UNL     1      -0.873   2.231  24.481  0.00  0.00    +0.241 C 
ATOM      7  O   UNL     1      -0.353   2.781  24.154  0.00  0.00    -0.273 OA
ATOM      8  N   UNL     1      -1.598   2.482  24.787  0.00  0.00    -0.203 NA
BRANCH   6   3
ATOM      3  C   UNL     1      -0.670   1.432  24.504  0.00  0.00    +0.078 C 
BRANCH   3   2
ATOM      1  C   UNL     1      -0.141   0.496  23.563  0.00  0.00    +0.001 C 
ATOM      2  C   UNL     1      -0.765   0.963  23.832  0.00  0.00    +0.009 C 
ENDBRANCH   3   2
BRANCH   3   4
ATOM      4  C   UNL     1      -0.371   1.102  25.199  0.00  0.00    +0.009 C 
ATOM      5  C   UNL     1      -0.704   0.411  25.503  0.00  0.00    +0.001 C 
ENDBRANCH   3   4
ENDBRANCH   6   3
ENDBRANCH   9   8
ENDBRANCH  10   9
BRANCH  12  13
ATOM     13  C   UNL     1      -4.642   2.987  24.640  0.00  0.00    +0.079 C 
BRANCH  13  14
ATOM     14  C   UNL     1      -4.819   2.222  24.892  0.00  0.00    +0.103 A 
ATOM     15  N   UNL     1      -5.279   2.022  25.546  0.00  0.00    -0.082 NA
ATOM     16  O   UNL     1      -5.312   1.199  25.592  0.00  0.00    -0.354 OA
ATOM     17  C   UNL     1      -4.872   0.891  24.967  0.00  0.00    +0.198 A 
ATOM     26  C   UNL     1      -4.567   1.523  24.533  0.00  0.00    +0.057 A 
BRANCH  17  18
ATOM     18  C   UNL     1      -4.757   0.090  24.803  0.00  0.00    +0.272 C 
BRANCH  18  19
ATOM     19  O   UNL     1      -3.998  -0.231  24.828  0.00  0.00    -0.467 OA
BRANCH  19  20
ATOM     20  C   UNL     1      -3.888  -1.040  24.704  0.00  0.00    +0.139 A 
ATOM     21  C   UNL     1      -3.538  -1.503  25.290  0.00  0.00    +0.037 A 
ATOM     22  C   UNL     1      -3.429  -2.311  25.166  0.00  0.00    +0.003 A 
ATOM     23  C   UNL     1      -3.668  -2.656  24.457  0.00  0.00    +0.000 A 
ATOM     24  C   UNL     1      -4.018  -2.193  23.870  0.00  0.00    +0.003 A 
ATOM     25  C   UNL     1      -4.128  -1.385  23.995  0.00  0.00    +0.037 A 
ENDBRANCH  19  20
ENDBRANCH  18  19
ENDBRANCH  17  18
ENDBRANCH  13  14
ENDBRANCH  12  13
TORSDOF 10
ENDMDL
MODEL 4
REMARK VINA RESULT:     -10.4      1.221      4.376
REMARK  Name = 
REMARK  10 active torsions:
REMARK  status: ('A' for Active; 'I' for Inactive)
REMARK    1  A    between atoms: C_2  and  C_3
REMARK    2  A    between atoms: C_3  and  C_4
REMARK    3  A    between atoms: C_3  and  C_6
REMARK    4  A    between atoms: N_8  and  C_9
REMARK    5  A    between atoms: C_9  and  C_10
REMARK    6  A    between atoms: C_12  and  C_13
REMARK    7  A    between atoms: C_13  and  C_14
REMARK    8  A    between atoms: C_17  and  C_18
REMARK    9  A    between atoms: C_18  and  O_19
REMARK   10  A    between atoms: O_19  and  C_20
REMARK                            x       y       z     vdW  Elec       q    Type
REMARK                         _______ _______ _______ _____ _____    ______ ____
ROOT
ATOM     10  C   UNL     1      -3.629  -0.596  24.969  0.00  0.00    +0.167 C 
ATOM     11  O   UNL     1      -2.939  -0.340  25.341  0.00  0.00    -0.354 OA
ATOM     12  C   UNL     1      -2.266  -0.819  25.339  0.00  0.00    +0.121 C 
ATOM     27  C   UNL     1      -2.285  -1.553  24.963  0.00  0.00    +0.033 C 
ATOM     28  C   UNL     1      -2.976  -1.809  24.591  0.00  0.00    +0.038 C 
ATOM     29  C   UNL     1      -3.647  -1.330  24.594  0.00  0.00    +0.181 C 
ATOM     30  O   UNL     1      -4.337  -1.586  24.222  0.00  0.00    -0.220 OA
ENDROOT
BRANCH  10   9
ATOM      9  C   UNL     1      -4.300  -0.117  24.972  0.00  0.00    +0.147 C 
BRANCH   9   8
ATOM      6  C   UNL     1      -4.890   1.185  24.944  0.00  0.00    +0.241 C 
ATOM      7  O   UNL     1      -5.630   0.852  25.092  0.00  0.00    -0.273 OA
ATOM      8  N   UNL     1      -4.225   0.700  24.885  0.00  0.00    -0.203 NA
BRANCH   6   3
ATOM      3  C   UNL     1      -4.815   2.002  24.857  0.00  0.00    +0.078 C 
BRANCH   3   2
ATOM      1  C   UNL     1      -4.289   2.850  23.835  0.00  0.00    +0.001 C 
ATOM      2  C   UNL     1      -4.880   2.344  24.110  0.00  0.00    +0.009 C 
ENDBRANCH   3   2
BRANCH   3   4
ATOM      4  C   UNL     1      -4.673   2.476  25.518  0.00  0.00    +0.009 C 
ATOM      5  C   UNL     1      -5.171   3.113  25.682  0.00  0.00    +0.001 C 
ENDBRANCH   3   4
ENDBRANCH   6   3
ENDBRANCH   9   8
ENDBRANCH  10   9
BRANCH  12  13
ATOM     13  C   UNL     1      -1.576  -0.563  25.711  0.00  0.00    +0.079 C 
BRANCH  13  14
ATOM     14  C   UNL     1      -1.146   0.066  25.395  0.00  0.00    +0.103 A 
ATOM     15  N   UNL     1      -0.570   0.015  24.808  0.00  0.00    -0.082 NA
ATOM     16  O   UNL     1      -0.286   0.775  24.662  0.00  0.00    -0.354 OA
ATOM     17  C   UNL     1      -0.687   1.297  25.158  0.00  0.00    +0.198 A 
ATOM     26  C   UNL     1      -1.219   0.859  25.612  0.00  0.00    +0.057 A 
BRANCH  17  18
ATOM     18  C   UNL     1      -0.575   2.114  25.195  0.00  0.00    +0.272 C 
BRANCH  18  19
ATOM     19  O   UNL     1      -0.991   2.610  24.684  0.00  0.00    -0.467 OA
BRANCH  19  20
ATOM     20  C   UNL     1      -0.988   3.426  24.810  0.00  0.00    +0.139 A 
ATOM     21  C   UNL     1      -0.496   3.910  24.357  0.00  0.00    +0.037 A 
ATOM     22  C   UNL     1      -0.493   4.726  24.482  0.00  0.00    +0.003 A 
ATOM     23  C   UNL     1      -0.980   5.057  25.059  0.00  0.00    +0.000 A 
ATOM     24  C   UNL     1      -1.472   4.572  25.511  0.00  0.00    +0.003 A 
ATOM     25  C   UNL     1      -1.475   3.757  25.386  0.00  0.00    +0.037 A 
ENDBRANCH  19  20
ENDBRANCH  18  19
ENDBRANCH  17  18
ENDBRANCH  13  14
ENDBRANCH  12  13
TORSDOF 10
ENDMDL
MODEL 5
REMARK VINA RESULT:     -10.1      1.512      4.449
REMARK  Name = 
REMARK  10 active torsions:
REMARK  status: ('A' for Active; 'I' for Inactive)
REMARK    1  A    between atoms: C_2  and  C_3
REMARK    2  A    between atoms: C_3  and  C_4
REMARK    3  A    between atoms: C_3  and  C_6
REMARK    4  A    between atoms: N_8  and  C_9
REMARK    5  A    between atoms: C_9  and  C_10
REMARK    6  A    between atoms: C_12  and  C_13
REMARK    7  A    between atoms: C_13  and  C_14
REMARK    8  A    between atoms: C_17  and  C_18
REMARK    9  A    between atoms: C_18  and  O_19
REMARK   10  A    between atoms: O_19  and  C_20
REMARK                            x       y       z     vdW  Elec       q    Type
REMARK                         _______ _______ _______ _____ _____    ______ ____
ROOT
ATOM     10  C   UNL     1      -0.758  -0.266  24.746  0.00  0.00    +0.167 C 
ATOM     11  O   UNL     1      -1.484  -0.336  25.131  0.00  0.00    -0.354 OA
ATOM     12  C   UNL     1      -1.914  -1.039  25.078  0.00  0.00    +0.121 C 
ATOM     27  C   UNL     1      -1.616  -1.671  24.640  0.00  0.00    +0.033 C 
ATOM     28  C   UNL     1      -0.890  -1.602  24.255  0.00  0.00    +0.038 C 
ATOM     29  C   UNL     1      -0.461  -0.900  24.308  0.00  0.00    +0.181 C 
ATOM     30  O   UNL     1       0.265  -0.830  23.924  0.00  0.00    -0.220 OA
ENDROOT
BRANCH  10   9
ATOM      9  C   UNL     1      -0.329   0.436  24.800  0.00  0.00    +0.147 C 
BRANCH   9   8
ATOM      6  C   UNL     1      -0.284   1.841  25.056  0.00  0.00    +0.241 C 
ATOM      7  O   UNL     1       0.537   1.827  24.986  0.00  0.00    -0.273 OA
ATOM      8  N   UNL     1      -0.718   1.145  24.963  0.00  0.00    -0.203 NA
BRANCH   6   3
ATOM      3  C   UNL     1      -0.673   2.551  25.219  0.00  0.00    +0.078 C 
BRANCH   3   2
ATOM      1  C   UNL     1      -1.472   3.126  26.253  0.00  0.00    +0.001 C 
ATOM      2  C   UNL     1      -0.756   2.805  25.998  0.00  0.00    +0.009 C 
ENDBRANCH   3   2
BRANCH   3   4
ATOM      4  C   UNL     1      -0.979   3.004  24.601  0.00  0.00    +0.009 C 
ATOM      5  C   UNL     1      -0.755   3.794  24.521  0.00  0.00    +0.001 C 
ENDBRANCH   3   4
ENDBRANCH   6   3
ENDBRANCH   9   8
ENDBRANCH  10   9
BRANCH  12  13
ATOM     13  C   UNL     1      -2.641  -1.109  25.462  0.00  0.00    +0.079 C 
BRANCH  13  14
ATOM     14  C   UNL     1      -3.304  -0.720  25.163  0.00  0.00    +0.103 A 
ATOM     15  N   UNL     1      -3.759  -0.962  24.520  0.00  0.00    -0.082 NA
ATOM     16  O   UNL     1      -4.365  -0.412  24.415  0.00  0.00    -0.354 OA
ATOM     17  C   UNL     1      -4.284   0.170  24.993  0.00  0.00    +0.198 A 
ATOM     26  C   UNL     1      -3.628  -0.019  25.456  0.00  0.00    +0.057 A 
BRANCH  17  18
ATOM     18  C   UNL     1      -4.773   0.828  25.091  0.00  0.00    +0.272 C 
BRANCH  18  19
ATOM     19  O   UNL     1      -4.675   1.490  24.610  0.00  0.00    -0.467 OA
BRANCH  19  20
ATOM     20  C   UNL     1      -4.904   2.235  24.883  0.00  0.00    +0.139 A 
ATOM     21  C   UNL     1      -4.508   2.909  24.620  0.00  0.00    +0.037 A 
ATOM     22  C   UNL     1      -4.737   3.654  24.893  0.00  0.00    +0.003 A 
ATOM     23  C   UNL     1      -5.361   3.724  25.427  0.00  0.00    +0.000 A 
ATOM     24  C   UNL     1      -5.757   3.049  25.690  0.00  0.00    +0.003 A 
ATOM     25  C   UNL     1      -5.528   2.305  25.417  0.00  0.00    +0.037 A 
ENDBRANCH  19  20
ENDBRANCH  18  19
ENDBRANCH  17  18
ENDBRANCH  13  14
ENDBRANCH  12  13
TORSDOF 10
ENDMDL
MODEL 6
REMARK VINA RESULT:     -10.0      1.352      3.442
REMARK  Name = 
REMARK  10 active torsions:
REMARK  status: ('A' for Active; 'I' for Inactive)
REMARK    1  A    between atoms: C_2  and  C_3
REMARK    2  A    between atoms: C_3  and  C_4
REMARK    3  A    between atoms: C_3  and  C_6
REMARK    4  A    between atoms: N_8  and  C_9
REMARK    5  A    between atoms: C_9  and  C_10
REMARK    6  A    between atoms: C_12  and  C_13
REMARK    7  A    between atoms: C_13  and  C_14
REMARK    8  A    between atoms: C_17  and  C_18
REMARK    9  A    between atoms: C_18  and  O_19
REMARK   10  A    between atoms: O_19  and  C_20
REMARK                            x       y       z     vdW  Elec       q    Type
REMARK                         _______ _______ _______ _____ _____    ______ ____
ROOT
ATOM     10  C   UNL     1      -4.258   3.315  25.372  0.00  0.00    +0.167 C 
ATOM     11  O   UNL     1      -4.238   2.608  24.949  0.00  0.00    -0.354 OA
ATOM     12  C   UNL     1      -4.926   2.159  24.862  0.00  0.00    +0.121 C 
ATOM     27  C   UNL     1      -5.632   2.418  25.201  0.00  0.00    +0.033 C 
ATOM     28  C   UNL     1      -5.652   3.125  25.625  0.00  0.00    +0.038 C 
ATOM     29  C   UNL     1      -4.965   3.574  25.710  0.00  0.00    +0.181 C 
ATOM     30  O   UNL     1      -4.985   4.281  26.134  0.00  0.00    -0.220 OA
ENDROOT
BRANCH  10   9
ATOM      9  C   UNL     1      -3.571   3.764  25.458  0.00  0.00    +0.147 C 
BRANCH   9   8
ATOM      6  C   UNL     1      -2.145   3.849  25.492  0.00  0.00    +0.241 C 
ATOM      7  O   UNL     1      -2.197   4.657  25.648  0.00  0.00    -0.273 OA
ATOM      8  N   UNL     1      -2.832   3.402  25.397  0.00  0.00    -0.203 NA
BRANCH   6   3
ATOM      3  C   UNL     1      -1.406   3.487  25.431  0.00  0.00    +0.078 C 
BRANCH   3   2
ATOM      1  C   UNL     1      -0.402   2.800  26.180  0.00  0.00    +0.001 C 
ATOM      2  C   UNL     1      -1.192   2.894  25.961  0.00  0.00    +0.009 C 
ENDBRANCH   3   2
BRANCH   3   4
ATOM      4  C   UNL     1      -0.881   3.721  24.838  0.00  0.00    +0.009 C 
ATOM      5  C   UNL     1      -0.648   3.182  24.258  0.00  0.00    +0.001 C 
ENDBRANCH   3   4
ENDBRANCH   6   3
ENDBRANCH   9   8
ENDBRANCH  10   9
BRANCH  12  13
ATOM     13  C   UNL     1      -4.906   1.451  24.438  0.00  0.00    +0.079 C 
BRANCH  13  14
ATOM     14  C   UNL     1      -4.481   0.807  24.731  0.00  0.00    +0.103 A 
ATOM     15  N   UNL     1      -4.713   0.314  25.349  0.00  0.00    -0.082 NA
ATOM     16  O   UNL     1      -4.124  -0.254  25.457  0.00  0.00    -0.354 OA
ATOM     17  C   UNL     1      -3.529  -0.112  24.905  0.00  0.00    +0.198 A 
ATOM     26  C   UNL     1      -3.749   0.544  24.456  0.00  0.00    +0.057 A 
BRANCH  17  18
ATOM     18  C   UNL     1      -2.834  -0.549  24.817  0.00  0.00    +0.272 C 
BRANCH  18  19
ATOM     19  O   UNL     1      -2.141  -0.302  25.188  0.00  0.00    -0.467 OA
BRANCH  19  20
ATOM     20  C   UNL     1      -1.428  -0.682  25.025  0.00  0.00    +0.139 A 
ATOM     21  C   UNL     1      -1.173  -1.304  25.503  0.00  0.00    +0.037 A 
ATOM     22  C   UNL     1      -0.460  -1.685  25.339  0.00  0.00    +0.003 A 
ATOM     23  C   UNL     1      -0.001  -1.444  24.699  0.00  0.00    +0.000 A 
ATOM     24  C   UNL     1      -0.255  -0.821  24.220  0.00  0.00    +0.003 A 
ATOM     25  C   UNL     1      -0.969  -0.441  24.384  0.00  0.00    +0.037 A 
ENDBRANCH  19  20
ENDBRANCH  18  19
ENDBRANCH  17  18
ENDBRANCH  13  14
ENDBRANCH  12  13
TORSDOF 10
ENDMDL
