MODEL 1
REMARK VINA RESULT:      -9.0      0.000      0.000
REMARK  Name = 
REMARK  9 active torsions:
REMARK  status: ('A' for Active; 'I' for Inactive)
REMARK    1  A    between atoms: C_2  and  C_4
REMARK    2  A    between atoms: C_6  and  C_7
REMARK    3  A    between atoms: C_7  and  C_8
REMARK    4  A    between atoms: C_11  and  C_13
REMARK    5  A    between atoms: C_16  and  N_19
REMARK    6  A    between atoms: C_25  and  C_26
REMARK    7  A    between atoms: C_26  and  N_27
REMARK    8  A    between atoms: N_27  and  C_28
REMARK    9  A    between atoms: C_28  and  C_29
REMARK                            x       y       z     vdW  Elec       q    Type
REMARK                         _______ _______ _______ _____ _____    ______ ____
ROOT
ATOM      4  C   UNL     1      -3.549   3.669  25.614  0.00  0.00    +0.006 C 
ATOM      5  C   UNL     1      -4.149   3.143  25.402  0.00  0.00    +0.005 C 
ATOM      6  C   UNL     1      -4.272   2.956  24.608  0.00  0.00    +0.027 C 
ATOM     22  C   UNL     1      -3.794   3.294  24.026  0.00  0.00    -0.048 C 
ATOM     23  C   UNL     1      -3.917   3.106  23.233  0.00  0.00    +0.026 C 
ATOM     24  C   UNL     1      -3.195   3.818  24.238  0.00  0.00    -0.033 C 
ATOM     25  C   UNL     1      -3.072   4.006  25.032  0.00  0.00    +0.039 C 
ENDROOT
BRANCH   4   2
ATOM      1  C   UNL     1      -3.888   4.437  26.770  0.00  0.00    +0.000 C 
ATOM      2  C   UNL     1      -3.427   3.856  26.408  0.00  0.00    +0.000 C 
ATOM      3  C   UNL     1      -2.844   3.464  26.840  0.00  0.00    +0.000 C 
ENDBRANCH   4   2
BRANCH   6   7
ATOM      7  C   UNL     1      -4.872   2.431  24.397  0.00  0.00    +0.091 C 
BRANCH   7   8
ATOM      8  C   UNL     1      -4.857   1.654  24.677  0.00  0.00    +0.227 A 
ATOM      9  N   UNL     1      -5.362   1.334  25.246  0.00  0.00    -0.111 NA
ATOM     10  N   UNL     1      -5.153   0.545  25.357  0.00  0.00    -0.107 NA
ATOM     11  C   UNL     1      -4.517   0.376  24.857  0.00  0.00    +0.250 A 
ATOM     12  O   UNL     1      -4.335   1.063  24.437  0.00  0.00    -0.420 OA
BRANCH  11  13
ATOM     13  C   UNL     1      -4.133  -0.350  24.791  0.00  0.00    +0.055 A 
ATOM     14  C   UNL     1      -4.335  -0.870  24.184  0.00  0.00    +0.006 A 
ATOM     15  C   UNL     1      -3.951  -1.597  24.117  0.00  0.00    +0.015 A 
ATOM     16  C   UNL     1      -3.363  -1.804  24.658  0.00  0.00    +0.048 A 
ATOM     17  C   UNL     1      -3.161  -1.283  25.266  0.00  0.00    +0.015 A 
ATOM     18  C   UNL     1      -3.546  -0.557  25.332  0.00  0.00    +0.006 A 
BRANCH  16  19
ATOM     19  N   UNL     1      -2.979  -2.530  24.592  0.00  0.00    -0.304 N 
ATOM     20  C   UNL     1      -2.155  -2.559  24.549  0.00  0.00    +0.112 C 
ATOM     21  C   UNL     1      -3.417  -3.229  24.570  0.00  0.00    +0.112 C 
ENDBRANCH  16  19
ENDBRANCH  11  13
ENDBRANCH   7   8
ENDBRANCH   6   7
BRANCH  25  26
ATOM     26  C   UNL     1      -2.472   4.531  25.243  0.00  0.00    +0.094 C 
BRANCH  26  27
ATOM     27  N   UNL     1      -1.889   4.733  24.696  0.00  0.00    -0.204 NA
BRANCH  27  28
ATOM     28  C   UNL     1      -1.233   5.175  24.935  0.00  0.00    +0.165 C 
BRANCH  28  29
ATOM     29  C   UNL     1      -0.506   5.068  24.561  0.00  0.00    -0.059 C 
ATOM     30  C   UNL     1       0.222   4.960  24.188  0.00  0.00    -0.013 C 
ENDBRANCH  28  29
ENDBRANCH  27  28
ENDBRANCH  26  27
ENDBRANCH  25  26
TORSDOF 9
ENDMDL
MODEL 2
REMARK VINA RESULT:      -8.6      0.654      1.668
REMARK  Name = 
REMARK  9 active torsions:
REMARK  status: ('A' for Active; 'I' for Inactive)
REMARK    1  A    between atoms: C_2  and  C_4
REMARK    2  A    between atoms: C_6  and  C_7
REMARK    3  A    between atoms: C_7  and  C_8
REMARK    4  A    between atoms: C_11  and  C_13
REMARK    5  A    between atoms: C_16  and  N_19
REMARK    6  A    between atoms: C_25  and  C_26
REMARK    7  A    between atoms: C_26  and  N_27
REMARK    8  A    between atoms: N_27  and  C_28
REMARK    9  A    between atoms: C_28  and  C_29
REMARK                            x       y       z     vdW  Elec       q    Type
REMARK                         _______ _______ _______ _____ _____    ______ ____
ROOT
ATOM      4  C   UNL     1      -3.777   3.191  24.150  0.00  0.00    +0.006 C 
ATOM      5  C   UNL     1      -4.379   2.667  24.361  0.00  0.00    +0.005 C 
ATOM      6  C   UNL     1      -4.666   2.660  25.134  0.00  0.00    +0.027 C 
ATOM     22  C   UNL     1      -4.353   3.177  25.696  0.00  0.00    -0.048 C 
ATOM     23  C   UNL     1      -4.640   3.169  26.469  0.00  0.00    +0.026 C 
ATOM     24  C   UNL     1      -3.752   3.700  25.485  0.00  0.00    -0.033 C 
ATOM     25  C   UNL     1      -3.464   3.708  24.712  0.00  0.00    +0.039 C 
ENDROOT
BRANCH   4   2
ATOM      1  C   UNL     1      -2.874   2.692  23.161  0.00  0.00    +0.000 C 
ATOM      2  C   UNL     1      -3.490   3.198  23.377  0.00  0.00    +0.000 C 
ATOM      3  C   UNL     1      -3.818   3.710  22.819  0.00  0.00    +0.000 C 
ENDBRANCH   4   2
BRANCH   6   7
ATOM      7  C   UNL     1      -5.267   2.136  25.345  0.00  0.00    +0.091 C 
BRANCH   7   8
ATOM      8  C   UNL     1      -5.236   1.350  25.093  0.00  0.00    +0.227 A 
ATOM      9  N   UNL     1      -5.847   0.934  24.727  0.00  0.00    -0.111 NA
ATOM     10  N   UNL     1      -5.577   0.170  24.571  0.00  0.00    -0.107 NA
ATOM     11  C   UNL     1      -4.799   0.115  24.841  0.00  0.00    +0.250 A 
ATOM     12  O   UNL     1      -4.589   0.844  25.164  0.00  0.00    -0.420 OA
BRANCH  11  13
ATOM     13  C   UNL     1      -4.318  -0.553  24.796  0.00  0.00    +0.055 A 
ATOM     14  C   UNL     1      -3.863  -0.780  25.446  0.00  0.00    +0.006 A 
ATOM     15  C   UNL     1      -3.382  -1.448  25.400  0.00  0.00    +0.015 A 
ATOM     16  C   UNL     1      -3.355  -1.891  24.704  0.00  0.00    +0.048 A 
ATOM     17  C   UNL     1      -3.810  -1.663  24.054  0.00  0.00    +0.015 A 
ATOM     18  C   UNL     1      -4.290  -0.996  24.100  0.00  0.00    +0.006 A 
BRANCH  16  19
ATOM     19  N   UNL     1      -2.874  -2.558  24.658  0.00  0.00    -0.304 N 
ATOM     20  C   UNL     1      -3.211  -3.312  24.661  0.00  0.00    +0.112 C 
ATOM     21  C   UNL     1      -2.054  -2.474  24.609  0.00  0.00    +0.112 C 
ENDBRANCH  16  19
ENDBRANCH  11  13
ENDBRANCH   7   8
ENDBRANCH   6   7
BRANCH  25  26
ATOM     26  C   UNL     1      -2.863   4.232  24.500  0.00  0.00    +0.094 C 
BRANCH  26  27
ATOM     27  N   UNL     1      -2.308   4.471  25.062  0.00  0.00    -0.204 NA
BRANCH  27  28
ATOM     28  C   UNL     1      -1.864   5.155  24.937  0.00  0.00    +0.165 C 
BRANCH  28  29
ATOM     29  C   UNL     1      -1.040   5.113  24.913  0.00  0.00    -0.059 C 
ATOM     30  C   UNL     1      -0.216   5.069  24.888  0.00  0.00    -0.013 C 
ENDBRANCH  28  29
ENDBRANCH  27  28
ENDBRANCH  26  27
ENDBRANCH  25  26
TORSDOF 9
ENDMDL
MODEL 3
REMARK VINA RESULT:      -8.1      2.115      3.698
REMARK  Name = 
REMARK  9 active torsions:
REMARK  status: ('A' for Active; 'I' for Inactive)
REMARK    1  A    between atoms: C_2  and  C_4
REMARK    2  A    between atoms: C_6  and  C_7
REMARK    3  A    between atoms: C_7  and  C_8
REMARK    4  A    between atoms: C_11  and  C_13
REMARK    5  A    between atoms: C_16  and  N_19
REMARK    6  A    between atoms: C_25  and  C_26
REMARK    7  A    between atoms: C_26  and  N_27
REMARK    8  A    between atoms: N_27  and  C_28
REMARK    9  A    between atoms: C_28  and  C_29
REMARK                            x       y       z     vdW  Elec       q    Type
REMARK                         _______ _______ _______ _____ _____    ______ ____
ROOT
ATOM      4  C   UNL     1      -3.269   3.252  24.279  0.00  0.00    +0.006 C 
ATOM      5  C   UNL     1      -2.444   3.224  24.275  0.00  0.00    +0.005 C 
ATOM      6  C   UNL     1      -2.021   3.430  24.953  0.00  0.00    +0.027 C 
ATOM     22  C   UNL     1      -2.422   3.663  25.634  0.00  0.00    -0.048 C 
ATOM     23  C   UNL     1      -1.999   3.869  26.311  0.00  0.00    +0.026 C 
ATOM     24  C   UNL     1      -3.246   3.692  25.638  0.00  0.00    -0.033 C 
ATOM     25  C   UNL     1      -3.670   3.486  24.961  0.00  0.00    +0.039 C 
ENDROOT
BRANCH   4   2
ATOM      1  C   UNL     1      -3.942   3.634  23.078  0.00  0.00    +0.000 C 
ATOM      2  C   UNL     1      -3.691   3.047  23.601  0.00  0.00    +0.000 C 
ATOM      3  C   UNL     1      -3.863   2.255  23.446  0.00  0.00    +0.000 C 
ENDBRANCH   4   2
BRANCH   6   7
ATOM      7  C   UNL     1      -1.197   3.401  24.948  0.00  0.00    +0.091 C 
BRANCH   7   8
ATOM      8  C   UNL     1      -0.810   2.691  24.780  0.00  0.00    +0.227 A 
ATOM      9  N   UNL     1      -0.081   2.614  24.400  0.00  0.00    -0.111 NA
ATOM     10  N   UNL     1       0.095   1.810  24.348  0.00  0.00    -0.107 NA
ATOM     11  C   UNL     1      -0.524   1.390  24.697  0.00  0.00    +0.250 A 
ATOM     12  O   UNL     1      -1.083   1.935  24.964  0.00  0.00    -0.420 OA
BRANCH  11  13
ATOM     13  C   UNL     1      -0.575   0.570  24.766  0.00  0.00    +0.055 A 
ATOM     14  C   UNL     1      -0.316   0.086  24.150  0.00  0.00    +0.006 A 
ATOM     15  C   UNL     1      -0.367  -0.734  24.219  0.00  0.00    +0.015 A 
ATOM     16  C   UNL     1      -0.676  -1.072  24.906  0.00  0.00    +0.048 A 
ATOM     17  C   UNL     1      -0.935  -0.588  25.523  0.00  0.00    +0.015 A 
ATOM     18  C   UNL     1      -0.884   0.232  25.453  0.00  0.00    +0.006 A 
BRANCH  16  19
ATOM     19  N   UNL     1      -0.727  -1.891  24.976  0.00  0.00    -0.304 N 
ATOM     20  C   UNL     1      -0.114  -2.314  25.333  0.00  0.00    +0.112 C 
ATOM     21  C   UNL     1      -1.390  -2.290  24.690  0.00  0.00    +0.112 C 
ENDBRANCH  16  19
ENDBRANCH  11  13
ENDBRANCH   7   8
ENDBRANCH   6   7
BRANCH  25  26
ATOM     26  C   UNL     1      -4.494   3.514  24.965  0.00  0.00    +0.094 C 
BRANCH  26  27
ATOM     27  N   UNL     1      -4.909   3.356  25.660  0.00  0.00    -0.204 NA
BRANCH  27  28
ATOM     28  C   UNL     1      -5.728   3.256  25.639  0.00  0.00    +0.165 C 
BRANCH  28  29
ATOM     29  C   UNL     1      -6.076   2.624  26.038  0.00  0.00    -0.059 C 
ATOM     30  C   UNL     1      -6.425   1.992  26.438  0.00  0.00    -0.013 C 
ENDBRANCH  28  29
ENDBRANCH  27  28
ENDBRANCH  26  27
ENDBRANCH  25  26
TORSDOF 9
ENDMDL
MODEL 4
REMARK VINA RESULT:      -8.0      2.896      4.734
REMARK  Name = 
REMARK  9 active torsions:
REMARK  status: ('A' for Active; 'I' for Inactive)
REMARK    1  A    between atoms: C_2  and  C_4
REMARK    2  A    between atoms: C_6  and  C_7
REMARK    3  A    between atoms: C_7  and  C_8
REMARK    4  A    between atoms: C_11  and  C_13
REMARK    5  A    between atoms: C_16  and  N_19
REMARK    6  A    between atoms: C_25  and  C_26
REMARK    7  A    between atoms: C_26  and  N_27
REMARK    8  A    between atoms: N_27  and  C_28
REMARK    9  A    between atoms: C_28  and  C_29
REMARK                            x       y       z     vdW  Elec       q    Type
REMARK                         _______ _______ _______ _____ _____    ______ ____
ROOT
ATOM      4  C   UNL     1      -0.437   0.676  24.231  0.00  0.00    +0.006 C 
ATOM      5  C   UNL     1      -1.116   0.395  24.608  0.00  0.00    +0.005 C 
ATOM      6  C   UNL     1      -1.283  -0.413  24.608  0.00  0.00    +0.027 C 
ATOM     22  C   UNL     1      -0.772  -0.940  24.232  0.00  0.00    -0.048 C 
ATOM     23  C   UNL     1      -0.939  -1.747  24.233  0.00  0.00    +0.026 C 
ATOM     24  C   UNL     1      -0.094  -0.660  23.855  0.00  0.00    -0.033 C 
ATOM     25  C   UNL     1       0.073   0.148  23.855  0.00  0.00    +0.039 C 
ENDROOT
BRANCH   4   2
ATOM      1  C   UNL     1      -0.526   1.957  23.604  0.00  0.00    +0.000 C 
ATOM      2  C   UNL     1      -0.271   1.483  24.231  0.00  0.00    +0.000 C 
ATOM      3  C   UNL     1       0.150   1.819  24.856  0.00  0.00    +0.000 C 
ENDBRANCH   4   2
BRANCH   6   7
ATOM      7  C   UNL     1      -1.961  -0.693  24.985  0.00  0.00    +0.091 C 
BRANCH   7   8
ATOM      8  C   UNL     1      -2.694  -0.351  24.822  0.00  0.00    +0.227 A 
ATOM      9  N   UNL     1      -3.265  -0.650  24.307  0.00  0.00    -0.111 NA
ATOM     10  N   UNL     1      -3.909  -0.134  24.312  0.00  0.00    -0.107 NA
ATOM     11  C   UNL     1      -3.735   0.485  24.830  0.00  0.00    +0.250 A 
ATOM     12  O   UNL     1      -2.985   0.350  25.145  0.00  0.00    -0.420 OA
BRANCH  11  13
ATOM     13  C   UNL     1      -4.226   1.124  25.002  0.00  0.00    +0.055 A 
ATOM     14  C   UNL     1      -4.947   1.001  25.383  0.00  0.00    +0.006 A 
ATOM     15  C   UNL     1      -5.439   1.641  25.555  0.00  0.00    +0.015 A 
ATOM     16  C   UNL     1      -5.209   2.406  25.346  0.00  0.00    +0.048 A 
ATOM     17  C   UNL     1      -4.487   2.529  24.964  0.00  0.00    +0.015 A 
ATOM     18  C   UNL     1      -3.996   1.889  24.793  0.00  0.00    +0.006 A 
BRANCH  16  19
ATOM     19  N   UNL     1      -5.699   3.045  25.517  0.00  0.00    -0.304 N 
ATOM     20  C   UNL     1      -6.472   2.916  25.777  0.00  0.00    +0.112 C 
ATOM     21  C   UNL     1      -5.418   3.817  25.429  0.00  0.00    +0.112 C 
ENDBRANCH  16  19
ENDBRANCH  11  13
ENDBRANCH   7   8
ENDBRANCH   6   7
BRANCH  25  26
ATOM     26  C   UNL     1       0.751   0.429  23.478  0.00  0.00    +0.094 C 
BRANCH  26  27
ATOM     27  N   UNL     1       1.314  -0.102  23.192  0.00  0.00    -0.204 NA
BRANCH  27  28
ATOM     28  C   UNL     1       1.787   0.104  22.548  0.00  0.00    +0.165 C 
BRANCH  28  29
ATOM     29  C   UNL     1       2.608   0.118  22.627  0.00  0.00    -0.059 C 
ATOM     30  C   UNL     1       3.429   0.132  22.705  0.00  0.00    -0.013 C 
ENDBRANCH  28  29
ENDBRANCH  27  28
ENDBRANCH  26  27
ENDBRANCH  25  26
TORSDOF 9
ENDMDL
MODEL 5
REMARK VINA RESULT:      -7.8      2.793      4.553
REMARK  Name = 
REMARK  9 active torsions:
REMARK  status: ('A' for Active; 'I' for Inactive)
REMARK    1  A    between atoms: C_2  and  C_4
REMARK    2  A    between atoms: C_6  and  C_7
REMARK    3  A    between atoms: C_7  and  C_8
REMARK    4  A    between atoms: C_11  and  C_13
REMARK    5  A    between atoms: C_16  and  N_19
REMARK    6  A    between atoms: C_25  and  C_26
REMARK    7  A    between atoms: C_26  and  N_27
REMARK    8  A    between atoms: N_27  and  C_28
REMARK    9  A    between atoms: C_28  and  C_29
REMARK                            x       y       z     vdW  Elec       q    Type
REMARK                         _______ _______ _______ _____ _____    ______ ____
ROOT
ATOM      4  C   UNL     1      -0.711   1.059  24.766  0.00  0.00    +0.006 C 
ATOM      5  C   UNL     1      -1.067   1.705  25.137  0.00  0.00    +0.005 C 
ATOM      6  C   UNL     1      -0.790   2.468  24.990  0.00  0.00    +0.027 C 
ATOM     22  C   UNL     1      -0.158   2.585  24.473  0.00  0.00    -0.048 C 
ATOM     23  C   UNL     1       0.118   3.348  24.327  0.00  0.00    +0.026 C 
ATOM     24  C   UNL     1       0.197   1.940  24.103  0.00  0.00    -0.033 C 
ATOM     25  C   UNL     1      -0.079   1.176  24.249  0.00  0.00    +0.039 C 
ENDROOT
BRANCH   4   2
ATOM      1  C   UNL     1      -1.493  -0.071  24.371  0.00  0.00    +0.000 C 
ATOM      2  C   UNL     1      -0.988   0.296  24.913  0.00  0.00    +0.000 C 
ATOM      3  C   UNL     1      -0.762  -0.101  25.600  0.00  0.00    +0.000 C 
ENDBRANCH   4   2
BRANCH   6   7
ATOM      7  C   UNL     1      -1.146   3.113  25.361  0.00  0.00    +0.091 C 
BRANCH   7   8
ATOM      8  C   UNL     1      -1.941   3.283  25.218  0.00  0.00    +0.227 A 
ATOM      9  N   UNL     1      -2.236   3.975  24.877  0.00  0.00    -0.111 NA
ATOM     10  N   UNL     1      -3.057   3.911  24.840  0.00  0.00    -0.107 NA
ATOM     11  C   UNL     1      -3.271   3.180  25.157  0.00  0.00    +0.250 A 
ATOM     12  O   UNL     1      -2.581   2.792  25.391  0.00  0.00    -0.420 OA
BRANCH  11  13
ATOM     13  C   UNL     1      -4.039   2.888  25.228  0.00  0.00    +0.055 A 
ATOM     14  C   UNL     1      -4.567   3.239  25.755  0.00  0.00    +0.006 A 
ATOM     15  C   UNL     1      -5.336   2.948  25.826  0.00  0.00    +0.015 A 
ATOM     16  C   UNL     1      -5.576   2.304  25.369  0.00  0.00    +0.048 A 
ATOM     17  C   UNL     1      -5.047   1.953  24.842  0.00  0.00    +0.015 A 
ATOM     18  C   UNL     1      -4.280   2.244  24.771  0.00  0.00    +0.006 A 
BRANCH  16  19
ATOM     19  N   UNL     1      -6.344   2.013  25.439  0.00  0.00    -0.304 N 
ATOM     20  C   UNL     1      -6.647   1.821  26.183  0.00  0.00    +0.112 C 
ATOM     21  C   UNL     1      -6.811   1.911  24.766  0.00  0.00    +0.112 C 
ENDBRANCH  16  19
ENDBRANCH  11  13
ENDBRANCH   7   8
ENDBRANCH   6   7
BRANCH  25  26
ATOM     26  C   UNL     1       0.276   0.531  23.879  0.00  0.00    +0.094 C 
BRANCH  26  27
ATOM     27  N   UNL     1       0.946   0.642  23.410  0.00  0.00    -0.204 NA
BRANCH  27  28
ATOM     28  C   UNL     1       1.245   0.015  22.963  0.00  0.00    +0.165 C 
BRANCH  28  29
ATOM     29  C   UNL     1       2.011   0.055  22.660  0.00  0.00    -0.059 C 
ATOM     30  C   UNL     1       2.778   0.093  22.357  0.00  0.00    -0.013 C 
ENDBRANCH  28  29
ENDBRANCH  27  28
ENDBRANCH  26  27
ENDBRANCH  25  26
TORSDOF 9
ENDMDL
MODEL 6
REMARK VINA RESULT:      -7.7      2.218      2.805
REMARK  Name = 
REMARK  9 active torsions:
REMARK  status: ('A' for Active; 'I' for Inactive)
REMARK    1  A    between atoms: C_2  and  C_4
REMARK    2  A    between atoms: C_6  and  C_7
REMARK    3  A    between atoms: C_7  and  C_8
REMARK    4  A    between atoms: C_11  and  C_13
REMARK    5  A    between atoms: C_16  and  N_19
REMARK    6  A    between atoms: C_25  and  C_26
REMARK    7  A    between atoms: C_26  and  N_27
REMARK    8  A    between atoms: N_27  and  C_28
REMARK    9  A    between atoms: C_28  and  C_29
REMARK                            x       y       z     vdW  Elec       q    Type
REMARK                         _______ _______ _______ _____ _____    ______ ____
ROOT
ATOM      4  C   UNL     1      -0.844   2.302  25.068  0.00  0.00    +0.006 C 
ATOM      5  C   UNL     1      -1.594   2.378  24.731  0.00  0.00    +0.005 C 
ATOM      6  C   UNL     1      -2.163   2.851  25.096  0.00  0.00    +0.027 C 
ATOM     22  C   UNL     1      -1.982   3.248  25.796  0.00  0.00    -0.048 C 
ATOM     23  C   UNL     1      -2.551   3.721  26.160  0.00  0.00    +0.026 C 
ATOM     24  C   UNL     1      -1.233   3.172  26.132  0.00  0.00    -0.033 C 
ATOM     25  C   UNL     1      -0.663   2.699  25.768  0.00  0.00    +0.039 C 
ENDROOT
BRANCH   4   2
ATOM      1  C   UNL     1       0.253   2.161  24.163  0.00  0.00    +0.000 C 
ATOM      2  C   UNL     1      -0.275   1.829  24.703  0.00  0.00    +0.000 C 
ATOM      3  C   UNL     1      -0.234   1.023  24.878  0.00  0.00    +0.000 C 
ENDBRANCH   4   2
BRANCH   6   7
ATOM      7  C   UNL     1      -2.912   2.926  24.760  0.00  0.00    +0.091 C 
BRANCH   7   8
ATOM      8  C   UNL     1      -3.413   2.271  24.717  0.00  0.00    +0.227 A 
ATOM      9  N   UNL     1      -4.238   2.289  24.737  0.00  0.00    -0.111 NA
ATOM     10  N   UNL     1      -4.511   1.513  24.680  0.00  0.00    -0.107 NA
ATOM     11  C   UNL     1      -3.855   1.015  24.625  0.00  0.00    +0.250 A 
ATOM     12  O   UNL     1      -3.176   1.484  24.648  0.00  0.00    -0.420 OA
BRANCH  11  13
ATOM     13  C   UNL     1      -3.875   0.193  24.559  0.00  0.00    +0.055 A 
ATOM     14  C   UNL     1      -3.868  -0.277  25.236  0.00  0.00    +0.006 A 
ATOM     15  C   UNL     1      -3.888  -1.098  25.170  0.00  0.00    +0.015 A 
ATOM     16  C   UNL     1      -3.915  -1.451  24.424  0.00  0.00    +0.048 A 
ATOM     17  C   UNL     1      -3.922  -0.981  23.746  0.00  0.00    +0.015 A 
ATOM     18  C   UNL     1      -3.902  -0.160  23.813  0.00  0.00    +0.006 A 
BRANCH  16  19
ATOM     19  N   UNL     1      -3.935  -2.273  24.357  0.00  0.00    -0.304 N 
ATOM     20  C   UNL     1      -3.501  -2.741  24.881  0.00  0.00    +0.112 C 
ATOM     21  C   UNL     1      -4.389  -2.628  23.766  0.00  0.00    +0.112 C 
ENDBRANCH  16  19
ENDBRANCH  11  13
ENDBRANCH   7   8
ENDBRANCH   6   7
BRANCH  25  26
ATOM     26  C   UNL     1       0.086   2.623  26.103  0.00  0.00    +0.094 C 
BRANCH  26  27
ATOM     27  N   UNL     1       0.177   2.670  26.922  0.00  0.00    -0.204 NA
BRANCH  27  28
ATOM     28  C   UNL     1       0.934   2.693  27.252  0.00  0.00    +0.165 C 
BRANCH  28  29
ATOM     29  C   UNL     1       1.034   2.568  28.061  0.00  0.00    -0.059 C 
ATOM     30  C   UNL     1       1.135   2.444  28.871  0.00  0.00    -0.013 C 
ENDBRANCH  28  29
ENDBRANCH  27  28
ENDBRANCH  26  27
ENDBRANCH  25  26
TORSDOF 9
ENDMDL
MODEL 7
REMARK VINA RESULT:      -7.5      3.141      4.920
REMARK  Name = 
REMARK  9 active torsions:
REMARK  status: ('A' for Active; 'I' for Inactive)
REMARK    1  A    between atoms: C_2  and  C_4
REMARK    2  A    between atoms: C_6  and  C_7
REMARK    3  A    between atoms: C_7  and  C_8
REMARK    4  A    between atoms: C_11  and  C_13
REMARK    5  A    between atoms: C_16  and  N_19
REMARK    6  A    between atoms: C_25  and  C_26
REMARK    7  A    between atoms: C_26  and  N_27
REMARK    8  A    between atoms: N_27  and  C_28
REMARK    9  A    between atoms: C_28  and  C_29
REMARK                            x       y       z     vdW  Elec       q    Type
REMARK                         _______ _______ _______ _____ _____    ______ ____
ROOT
ATOM      4  C   UNL     1      -3.265   1.121  24.174  0.00  0.00    +0.006 C 
ATOM      5  C   UNL     1      -2.700   0.525  24.096  0.00  0.00    +0.005 C 
ATOM      6  C   UNL     1      -2.854  -0.230  24.392  0.00  0.00    +0.027 C 
ATOM     22  C   UNL     1      -3.572  -0.388  24.765  0.00  0.00    -0.048 C 
ATOM     23  C   UNL     1      -3.726  -1.143  25.060  0.00  0.00    +0.026 C 
ATOM     24  C   UNL     1      -4.137   0.208  24.842  0.00  0.00    -0.033 C 
ATOM     25  C   UNL     1      -3.984   0.963  24.547  0.00  0.00    +0.039 C 
ENDROOT
BRANCH   4   2
ATOM      1  C   UNL     1      -2.789   2.454  24.372  0.00  0.00    +0.000 C 
ATOM      2  C   UNL     1      -3.111   1.876  23.879  0.00  0.00    +0.000 C 
ATOM      3  C   UNL     1      -3.278   2.053  23.090  0.00  0.00    +0.000 C 
ENDBRANCH   4   2
BRANCH   6   7
ATOM      7  C   UNL     1      -2.289  -0.825  24.314  0.00  0.00    +0.091 C 
BRANCH   7   8
ATOM      8  C   UNL     1      -1.487  -0.646  24.398  0.00  0.00    +0.227 A 
ATOM      9  N   UNL     1      -1.076  -0.586  25.111  0.00  0.00    -0.111 NA
ATOM     10  N   UNL     1      -0.291  -0.399  24.938  0.00  0.00    -0.107 NA
ATOM     11  C   UNL     1      -0.218  -0.343  24.118  0.00  0.00    +0.250 A 
ATOM     12  O   UNL     1      -0.957  -0.496  23.785  0.00  0.00    -0.420 OA
BRANCH  11  13
ATOM     13  C   UNL     1       0.474  -0.166  23.705  0.00  0.00    +0.055 A 
ATOM     14  C   UNL     1       0.775  -0.701  23.154  0.00  0.00    +0.006 A 
ATOM     15  C   UNL     1       1.467  -0.523  22.741  0.00  0.00    +0.015 A 
ATOM     16  C   UNL     1       1.858   0.191  22.879  0.00  0.00    +0.048 A 
ATOM     17  C   UNL     1       1.556   0.726  23.430  0.00  0.00    +0.015 A 
ATOM     18  C   UNL     1       0.864   0.548  23.842  0.00  0.00    +0.006 A 
BRANCH  16  19
ATOM     19  N   UNL     1       2.549   0.369  22.466  0.00  0.00    -0.304 N 
ATOM     20  C   UNL     1       2.668   0.063  21.709  0.00  0.00    +0.112 C 
ATOM     21  C   UNL     1       3.122   0.853  22.811  0.00  0.00    +0.112 C 
ENDBRANCH  16  19
ENDBRANCH  11  13
ENDBRANCH   7   8
ENDBRANCH   6   7
BRANCH  25  26
ATOM     26  C   UNL     1      -4.548   1.559  24.624  0.00  0.00    +0.094 C 
BRANCH  26  27
ATOM     27  N   UNL     1      -5.206   1.443  25.109  0.00  0.00    -0.204 NA
BRANCH  27  28
ATOM     28  C   UNL     1      -5.766   2.044  25.195  0.00  0.00    +0.165 C 
BRANCH  28  29
ATOM     29  C   UNL     1      -6.192   2.112  25.898  0.00  0.00    -0.059 C 
ATOM     30  C   UNL     1      -6.619   2.179  26.601  0.00  0.00    -0.013 C 
ENDBRANCH  28  29
ENDBRANCH  27  28
ENDBRANCH  26  27
ENDBRANCH  25  26
TORSDOF 9
ENDMDL
