MODEL 1
REMARK VINA RESULT:     -13.4      0.000      0.000
REMARK  Name = 
REMARK  9 active torsions:
REMARK  status: ('A' for Active; 'I' for Inactive)
REMARK    1  A    between atoms: C_2  and  C_4
REMARK    2  A    between atoms: C_4  and  C_5
REMARK    3  A    between atoms: C_4  and  N_12
REMARK    4  A    between atoms: C_5  and  C_6
REMARK    5  A    between atoms: C_13  and  C_15
REMARK    6  A    between atoms: C_22  and  N_24
REMARK    7  A    between atoms: N_24  and  S_25
REMARK    8  A    between atoms: S_25  and  C_28
REMARK    9  A    between atoms: C_30  and  C_34
REMARK                            x       y       z     vdW  Elec       q    Type
REMARK                         _______ _______ _______ _____ _____    ______ ____
ROOT
ATOM     15  C   UNL     1      -4.224   1.399  24.746  0.00  0.00    +0.200 C 
ATOM     16  O   UNL     1      -3.566   1.224  24.279  0.00  0.00    -0.216 OA
ATOM     17  C   UNL     1      -4.897   1.288  25.210  0.00  0.00    +0.075 C 
ATOM     18  C   UNL     1      -5.299   1.939  25.518  0.00  0.00    +0.187 C 
ATOM     19  O   UNL     1      -5.971   1.827  25.982  0.00  0.00    -0.220 OA
ATOM     20  C   UNL     1      -5.026   2.702  25.361  0.00  0.00    +0.200 C 
ATOM     21  O   UNL     1      -5.428   3.354  25.669  0.00  0.00    -0.219 OA
ATOM     22  C   UNL     1      -4.354   2.814  24.897  0.00  0.00    +0.133 C 
ATOM     23  C   UNL     1      -3.953   2.162  24.589  0.00  0.00    +0.062 C 
ENDROOT
BRANCH  15  13
ATOM     12  N   UNL     1      -3.607   0.129  24.525  0.00  0.00    -0.195 NA
ATOM     13  C   UNL     1      -4.267   0.575  24.740  0.00  0.00    +0.269 C 
ATOM     14  O   UNL     1      -4.971   0.197  24.949  0.00  0.00    -0.271 OA
BRANCH  12   4
ATOM      4  C   UNL     1      -3.650  -0.695  24.519  0.00  0.00    +0.179 C 
BRANCH   4   2
ATOM      1  N   UNL     1      -4.552  -1.684  24.018  0.00  0.00    -0.086 NA
ATOM      2  C   UNL     1      -4.001  -1.085  23.882  0.00  0.00    +0.281 C 
ATOM      3  O   UNL     1      -3.800  -0.876  23.110  0.00  0.00    -0.270 OA
ENDBRANCH   4   2
BRANCH   4   5
ATOM      5  C   UNL     1      -3.342  -1.129  25.149  0.00  0.00    +0.057 C 
BRANCH   5   6
ATOM      6  C   UNL     1      -2.528  -1.249  25.210  0.00  0.00    -0.020 A 
ATOM      7  C   UNL     1      -2.162  -1.828  24.751  0.00  0.00    -0.004 A 
ATOM      8  C   UNL     1      -1.347  -1.949  24.812  0.00  0.00    -0.000 A 
ATOM      9  C   UNL     1      -0.900  -1.489  25.332  0.00  0.00    -0.000 A 
ATOM     10  C   UNL     1      -1.267  -0.910  25.790  0.00  0.00    -0.000 A 
ATOM     11  C   UNL     1      -2.081  -0.790  25.730  0.00  0.00    -0.004 A 
ENDBRANCH   5   6
ENDBRANCH   4   5
ENDBRANCH  12   4
ENDBRANCH  15  13
BRANCH  22  24
ATOM     24  N   UNL     1      -4.082   3.577  24.741  0.00  0.00    -0.076 NA
BRANCH  24  25
ATOM     25  S   UNL     1      -3.297   3.776  24.899  0.00  0.00    +0.077 S 
ATOM     26  O   UNL     1      -3.481   3.866  25.698  0.00  0.00    -0.152 OA
ATOM     27  O   UNL     1      -3.114   3.685  24.099  0.00  0.00    -0.152 OA
BRANCH  25  28
ATOM     28  C   UNL     1      -2.512   3.974  25.057  0.00  0.00    +0.124 A 
ATOM     29  C   UNL     1      -1.980   3.390  25.298  0.00  0.00    +0.024 A 
ATOM     30  C   UNL     1      -1.195   3.589  25.455  0.00  0.00    +0.073 A 
ATOM     31  C   UNL     1      -0.942   4.369  25.372  0.00  0.00    +0.004 A 
ATOM     32  C   UNL     1      -1.474   4.952  25.132  0.00  0.00    +0.001 A 
ATOM     33  C   UNL     1      -2.260   4.754  24.974  0.00  0.00    +0.020 A 
BRANCH  30  34
ATOM     34  C   UNL     1      -0.662   3.006  25.696  0.00  0.00    +0.419 C 
ATOM     35  F   UNL     1      -0.131   2.424  25.937  0.00  0.00    -0.166 F 
ATOM     36  F   UNL     1      -0.385   2.939  24.922  0.00  0.00    -0.166 F 
ATOM     37  F   UNL     1      -0.940   3.073  26.471  0.00  0.00    -0.166 F 
ENDBRANCH  30  34
ENDBRANCH  25  28
ENDBRANCH  24  25
ENDBRANCH  22  24
TORSDOF 9
ENDMDL
MODEL 2
REMARK VINA RESULT:     -13.4      2.723      5.582
REMARK  Name = 
REMARK  9 active torsions:
REMARK  status: ('A' for Active; 'I' for Inactive)
REMARK    1  A    between atoms: C_2  and  C_4
REMARK    2  A    between atoms: C_4  and  C_5
REMARK    3  A    between atoms: C_4  and  N_12
REMARK    4  A    between atoms: C_5  and  C_6
REMARK    5  A    between atoms: C_13  and  C_15
REMARK    6  A    between atoms: C_22  and  N_24
REMARK    7  A    between atoms: N_24  and  S_25
REMARK    8  A    between atoms: S_25  and  C_28
REMARK    9  A    between atoms: C_30  and  C_34
REMARK                            x       y       z     vdW  Elec       q    Type
REMARK                         _______ _______ _______ _____ _____    ______ ____
ROOT
ATOM     15  C   UNL     1      -1.094   1.049  24.785  0.00  0.00    +0.200 C 
ATOM     16  O   UNL     1      -1.696   1.122  25.346  0.00  0.00    -0.216 OA
ATOM     17  C   UNL     1      -0.535   1.260  24.217  0.00  0.00    +0.075 C 
ATOM     18  C   UNL     1      -0.064   0.681  23.866  0.00  0.00    +0.187 C 
ATOM     19  O   UNL     1       0.495   0.892  23.298  0.00  0.00    -0.220 OA
ATOM     20  C   UNL     1      -0.153  -0.110  24.085  0.00  0.00    +0.200 C 
ATOM     21  O   UNL     1       0.319  -0.690  23.734  0.00  0.00    -0.219 OA
ATOM     22  C   UNL     1      -0.712  -0.321  24.653  0.00  0.00    +0.133 C 
ATOM     23  C   UNL     1      -1.183   0.258  25.003  0.00  0.00    +0.062 C 
ENDROOT
BRANCH  15  13
ATOM     12  N   UNL     1      -1.867   2.196  25.142  0.00  0.00    -0.195 NA
ATOM     13  C   UNL     1      -1.215   1.865  24.762  0.00  0.00    +0.269 C 
ATOM     14  O   UNL     1      -0.682   2.349  24.358  0.00  0.00    -0.271 OA
BRANCH  12   4
ATOM      4  C   UNL     1      -1.988   3.012  25.118  0.00  0.00    +0.179 C 
BRANCH   4   2
ATOM      1  N   UNL     1      -1.184   4.176  25.326  0.00  0.00    -0.086 NA
ATOM      2  C   UNL     1      -1.563   3.507  25.625  0.00  0.00    +0.281 C 
ATOM      3  O   UNL     1      -1.518   3.332  26.430  0.00  0.00    -0.270 OA
ENDBRANCH   4   2
BRANCH   4   5
ATOM      5  C   UNL     1      -2.533   3.334  24.590  0.00  0.00    +0.057 C 
BRANCH   5   6
ATOM      6  C   UNL     1      -3.342   3.253  24.730  0.00  0.00    -0.020 A 
ATOM      7  C   UNL     1      -3.690   3.634  25.373  0.00  0.00    -0.004 A 
ATOM      8  C   UNL     1      -4.499   3.553  25.513  0.00  0.00    -0.000 A 
ATOM      9  C   UNL     1      -4.961   3.090  25.009  0.00  0.00    -0.000 A 
ATOM     10  C   UNL     1      -4.613   2.709  24.365  0.00  0.00    -0.000 A 
ATOM     11  C   UNL     1      -3.804   2.790  24.225  0.00  0.00    -0.004 A 
ENDBRANCH   5   6
ENDBRANCH   4   5
ENDBRANCH  12   4
ENDBRANCH  15  13
BRANCH  22  24
ATOM     24  N   UNL     1      -0.800  -1.112  24.871  0.00  0.00    -0.076 NA
BRANCH  24  25
ATOM     25  S   UNL     1      -1.529  -1.486  24.777  0.00  0.00    +0.077 S 
ATOM     26  O   UNL     1      -1.367  -1.604  23.977  0.00  0.00    -0.152 OA
ATOM     27  O   UNL     1      -1.692  -1.369  25.578  0.00  0.00    -0.152 OA
BRANCH  25  28
ATOM     28  C   UNL     1      -2.258  -1.860  24.684  0.00  0.00    +0.124 A 
ATOM     29  C   UNL     1      -2.922  -1.421  24.464  0.00  0.00    +0.024 A 
ATOM     30  C   UNL     1      -3.651  -1.796  24.371  0.00  0.00    +0.073 A 
ATOM     31  C   UNL     1      -3.718  -2.608  24.497  0.00  0.00    +0.004 A 
ATOM     32  C   UNL     1      -3.055  -3.046  24.716  0.00  0.00    +0.001 A 
ATOM     33  C   UNL     1      -2.324  -2.672  24.810  0.00  0.00    +0.020 A 
BRANCH  30  34
ATOM     34  C   UNL     1      -4.315  -1.356  24.151  0.00  0.00    +0.419 C 
ATOM     35  F   UNL     1      -4.978  -0.918  23.931  0.00  0.00    -0.166 F 
ATOM     36  F   UNL     1      -4.286  -1.690  23.397  0.00  0.00    -0.166 F 
ATOM     37  F   UNL     1      -4.344  -1.023  24.905  0.00  0.00    -0.166 F 
ENDBRANCH  30  34
ENDBRANCH  25  28
ENDBRANCH  24  25
ENDBRANCH  22  24
TORSDOF 9
ENDMDL
MODEL 3
REMARK VINA RESULT:     -13.2      2.208      3.415
REMARK  Name = 
REMARK  9 active torsions:
REMARK  status: ('A' for Active; 'I' for Inactive)
REMARK    1  A    between atoms: C_2  and  C_4
REMARK    2  A    between atoms: C_4  and  C_5
REMARK    3  A    between atoms: C_4  and  N_12
REMARK    4  A    between atoms: C_5  and  C_6
REMARK    5  A    between atoms: C_13  and  C_15
REMARK    6  A    between atoms: C_22  and  N_24
REMARK    7  A    between atoms: N_24  and  S_25
REMARK    8  A    between atoms: S_25  and  C_28
REMARK    9  A    between atoms: C_30  and  C_34
REMARK                            x       y       z     vdW  Elec       q    Type
REMARK                         _______ _______ _______ _____ _____    ______ ____
ROOT
ATOM     15  C   UNL     1      -1.672   1.368  24.722  0.00  0.00    +0.200 C 
ATOM     16  O   UNL     1      -2.270   1.039  24.257  0.00  0.00    -0.216 OA
ATOM     17  C   UNL     1      -0.982   1.426  25.168  0.00  0.00    +0.075 C 
ATOM     18  C   UNL     1      -0.766   2.148  25.504  0.00  0.00    +0.187 C 
ATOM     19  O   UNL     1      -0.075   2.206  25.951  0.00  0.00    -0.220 OA
ATOM     20  C   UNL     1      -1.243   2.813  25.392  0.00  0.00    +0.200 C 
ATOM     21  O   UNL     1      -1.028   3.535  25.728  0.00  0.00    -0.219 OA
ATOM     22  C   UNL     1      -1.934   2.755  24.945  0.00  0.00    +0.133 C 
ATOM     23  C   UNL     1      -2.149   2.033  24.610  0.00  0.00    +0.062 C 
ENDROOT
BRANCH  15  13
ATOM     12  N   UNL     1      -1.838  -0.019  25.019  0.00  0.00    -0.195 NA
ATOM     13  C   UNL     1      -1.404   0.590  24.672  0.00  0.00    +0.269 C 
ATOM     14  O   UNL     1      -0.701   0.420  24.273  0.00  0.00    -0.271 OA
BRANCH  12   4
ATOM      4  C   UNL     1      -1.570  -0.798  24.969  0.00  0.00    +0.179 C 
BRANCH   4   2
ATOM      1  N   UNL     1      -0.375  -1.488  25.342  0.00  0.00    -0.086 NA
ATOM      2  C   UNL     1      -1.072  -1.102  25.554  0.00  0.00    +0.281 C 
ATOM      3  O   UNL     1      -1.273  -1.018  26.349  0.00  0.00    -0.270 OA
ENDBRANCH   4   2
BRANCH   4   5
ATOM      5  C   UNL     1      -1.798  -1.274  24.335  0.00  0.00    +0.057 C 
BRANCH   5   6
ATOM      6  C   UNL     1      -2.489  -1.721  24.382  0.00  0.00    -0.020 A 
ATOM      7  C   UNL     1      -2.452  -2.519  24.587  0.00  0.00    -0.004 A 
ATOM      8  C   UNL     1      -3.144  -2.967  24.634  0.00  0.00    -0.000 A 
ATOM      9  C   UNL     1      -3.874  -2.615  24.475  0.00  0.00    -0.000 A 
ATOM     10  C   UNL     1      -3.911  -1.816  24.270  0.00  0.00    -0.000 A 
ATOM     11  C   UNL     1      -3.220  -1.370  24.223  0.00  0.00    -0.004 A 
ENDBRANCH   5   6
ENDBRANCH   4   5
ENDBRANCH  12   4
ENDBRANCH  15  13
BRANCH  22  24
ATOM     24  N   UNL     1      -2.410   3.420  24.834  0.00  0.00    -0.076 NA
BRANCH  24  25
ATOM     25  S   UNL     1      -3.217   3.381  25.001  0.00  0.00    +0.077 S 
ATOM     26  O   UNL     1      -3.052   3.407  25.809  0.00  0.00    -0.152 OA
ATOM     27  O   UNL     1      -3.382   3.354  24.193  0.00  0.00    -0.152 OA
BRANCH  25  28
ATOM     28  C   UNL     1      -4.024   3.341  25.167  0.00  0.00    +0.124 A 
ATOM     29  C   UNL     1      -4.441   2.644  25.023  0.00  0.00    +0.024 A 
ATOM     30  C   UNL     1      -5.248   2.605  25.190  0.00  0.00    +0.073 A 
ATOM     31  C   UNL     1      -5.639   3.262  25.500  0.00  0.00    +0.004 A 
ATOM     32  C   UNL     1      -5.221   3.959  25.643  0.00  0.00    +0.001 A 
ATOM     33  C   UNL     1      -4.413   3.999  25.477  0.00  0.00    +0.020 A 
BRANCH  30  34
ATOM     34  C   UNL     1      -5.666   1.907  25.046  0.00  0.00    +0.419 C 
ATOM     35  F   UNL     1      -6.083   1.211  24.903  0.00  0.00    -0.166 F 
ATOM     36  F   UNL     1      -5.929   2.213  24.326  0.00  0.00    -0.166 F 
ATOM     37  F   UNL     1      -5.403   1.602  25.766  0.00  0.00    -0.166 F 
ENDBRANCH  30  34
ENDBRANCH  25  28
ENDBRANCH  24  25
ENDBRANCH  22  24
TORSDOF 9
ENDMDL
MODEL 4
REMARK VINA RESULT:     -12.9      2.207      4.619
REMARK  Name = 
REMARK  9 active torsions:
REMARK  status: ('A' for Active; 'I' for Inactive)
REMARK    1  A    between atoms: C_2  and  C_4
REMARK    2  A    between atoms: C_4  and  C_5
REMARK    3  A    between atoms: C_4  and  N_12
REMARK    4  A    between atoms: C_5  and  C_6
REMARK    5  A    between atoms: C_13  and  C_15
REMARK    6  A    between atoms: C_22  and  N_24
REMARK    7  A    between atoms: N_24  and  S_25
REMARK    8  A    between atoms: S_25  and  C_28
REMARK    9  A    between atoms: C_30  and  C_34
REMARK                            x       y       z     vdW  Elec       q    Type
REMARK                         _______ _______ _______ _____ _____    ______ ____
ROOT
ATOM     15  C   UNL     1      -3.694   2.371  24.598  0.00  0.00    +0.200 C 
ATOM     16  O   UNL     1      -3.006   2.039  24.287  0.00  0.00    -0.216 OA
ATOM     17  C   UNL     1      -4.207   2.931  24.922  0.00  0.00    +0.075 C 
ATOM     18  C   UNL     1      -4.985   2.724  25.101  0.00  0.00    +0.187 C 
ATOM     19  O   UNL     1      -5.497   3.283  25.424  0.00  0.00    -0.220 OA
ATOM     20  C   UNL     1      -5.250   1.956  24.955  0.00  0.00    +0.200 C 
ATOM     21  O   UNL     1      -6.028   1.748  25.134  0.00  0.00    -0.219 OA
ATOM     22  C   UNL     1      -4.737   1.396  24.632  0.00  0.00    +0.133 C 
ATOM     23  C   UNL     1      -3.960   1.604  24.453  0.00  0.00    +0.062 C 
ENDROOT
BRANCH  15  13
ATOM     12  N   UNL     1      -2.573   3.037  25.183  0.00  0.00    -0.195 NA
ATOM     13  C   UNL     1      -3.189   3.023  24.635  0.00  0.00    +0.269 C 
ATOM     14  O   UNL     1      -3.301   3.661  24.123  0.00  0.00    -0.271 OA
BRANCH  12   4
ATOM      4  C   UNL     1      -2.068   3.689  25.219  0.00  0.00    +0.179 C 
BRANCH   4   2
ATOM      1  N   UNL     1      -2.186   5.107  25.357  0.00  0.00    -0.086 NA
ATOM      2  C   UNL     1      -2.278   4.349  25.669  0.00  0.00    +0.281 C 
ATOM      3  O   UNL     1      -2.580   4.250  26.430  0.00  0.00    -0.270 OA
ENDBRANCH   4   2
BRANCH   4   5
ATOM      5  C   UNL     1      -1.354   3.682  24.807  0.00  0.00    +0.057 C 
BRANCH   5   6
ATOM      6  C   UNL     1      -0.742   3.183  25.049  0.00  0.00    -0.020 A 
ATOM      7  C   UNL     1      -0.558   3.114  25.849  0.00  0.00    -0.004 A 
ATOM      8  C   UNL     1       0.054   2.615  26.090  0.00  0.00    -0.000 A 
ATOM      9  C   UNL     1       0.481   2.185  25.529  0.00  0.00    -0.000 A 
ATOM     10  C   UNL     1       0.296   2.255  24.728  0.00  0.00    -0.000 A 
ATOM     11  C   UNL     1      -0.315   2.753  24.487  0.00  0.00    -0.004 A 
ENDBRANCH   5   6
ENDBRANCH   4   5
ENDBRANCH  12   4
ENDBRANCH  15  13
BRANCH  22  24
ATOM     24  N   UNL     1      -5.004   0.628  24.487  0.00  0.00    -0.076 NA
BRANCH  24  25
ATOM     25  S   UNL     1      -4.549  -0.017  24.727  0.00  0.00    +0.077 S 
ATOM     26  O   UNL     1      -4.824   0.075  25.499  0.00  0.00    -0.152 OA
ATOM     27  O   UNL     1      -4.274  -0.109  23.954  0.00  0.00    -0.152 OA
BRANCH  25  28
ATOM     28  C   UNL     1      -4.094  -0.662  24.966  0.00  0.00    +0.124 A 
ATOM     29  C   UNL     1      -4.039  -1.329  24.483  0.00  0.00    +0.024 A 
ATOM     30  C   UNL     1      -3.584  -1.974  24.723  0.00  0.00    +0.073 A 
ATOM     31  C   UNL     1      -3.183  -1.953  25.444  0.00  0.00    +0.004 A 
ATOM     32  C   UNL     1      -3.239  -1.286  25.926  0.00  0.00    +0.001 A 
ATOM     33  C   UNL     1      -3.694  -0.640  25.687  0.00  0.00    +0.020 A 
BRANCH  30  34
ATOM     34  C   UNL     1      -3.529  -2.642  24.240  0.00  0.00    +0.419 C 
ATOM     35  F   UNL     1      -3.474  -3.309  23.759  0.00  0.00    -0.166 F 
ATOM     36  F   UNL     1      -2.743  -2.456  24.073  0.00  0.00    -0.166 F 
ATOM     37  F   UNL     1      -4.315  -2.828  24.409  0.00  0.00    -0.166 F 
ENDBRANCH  30  34
ENDBRANCH  25  28
ENDBRANCH  24  25
ENDBRANCH  22  24
TORSDOF 9
ENDMDL
MODEL 5
REMARK VINA RESULT:     -12.6      2.234      3.394
REMARK  Name = 
REMARK  9 active torsions:
REMARK  status: ('A' for Active; 'I' for Inactive)
REMARK    1  A    between atoms: C_2  and  C_4
REMARK    2  A    between atoms: C_4  and  C_5
REMARK    3  A    between atoms: C_4  and  N_12
REMARK    4  A    between atoms: C_5  and  C_6
REMARK    5  A    between atoms: C_13  and  C_15
REMARK    6  A    between atoms: C_22  and  N_24
REMARK    7  A    between atoms: N_24  and  S_25
REMARK    8  A    between atoms: S_25  and  C_28
REMARK    9  A    between atoms: C_30  and  C_34
REMARK                            x       y       z     vdW  Elec       q    Type
REMARK                         _______ _______ _______ _____ _____    ______ ____
ROOT
ATOM     15  C   UNL     1      -1.013   0.454  25.370  0.00  0.00    +0.200 C 
ATOM     16  O   UNL     1      -1.404   0.650  26.070  0.00  0.00    -0.216 OA
ATOM     17  C   UNL     1      -0.765   0.014  24.718  0.00  0.00    +0.075 C 
ATOM     18  C   UNL     1      -0.241   0.343  24.173  0.00  0.00    +0.187 C 
ATOM     19  O   UNL     1       0.007  -0.097  23.521  0.00  0.00    -0.220 OA
ATOM     20  C   UNL     1       0.035   1.114  24.280  0.00  0.00    +0.200 C 
ATOM     21  O   UNL     1       0.559   1.443  23.734  0.00  0.00    -0.219 OA
ATOM     22  C   UNL     1      -0.213   1.554  24.932  0.00  0.00    +0.133 C 
ATOM     23  C   UNL     1      -0.737   1.224  25.477  0.00  0.00    +0.062 C 
ENDROOT
BRANCH  15  13
ATOM     12  N   UNL     1      -2.236  -0.285  25.364  0.00  0.00    -0.195 NA
ATOM     13  C   UNL     1      -1.425  -0.248  25.507  0.00  0.00    +0.269 C 
ATOM     14  O   UNL     1      -1.024  -0.914  25.786  0.00  0.00    -0.271 OA
BRANCH  12   4
ATOM      4  C   UNL     1      -2.648  -0.986  25.501  0.00  0.00    +0.179 C 
BRANCH   4   2
ATOM      1  N   UNL     1      -2.990  -1.639  26.726  0.00  0.00    -0.086 NA
ATOM      2  C   UNL     1      -3.138  -1.055  26.162  0.00  0.00    +0.281 C 
ATOM      3  O   UNL     1      -3.774  -0.540  26.258  0.00  0.00    -0.270 OA
ENDBRANCH   4   2
BRANCH   4   5
ATOM      5  C   UNL     1      -2.571  -1.619  24.977  0.00  0.00    +0.057 C 
BRANCH   5   6
ATOM      6  C   UNL     1      -3.205  -1.836  24.495  0.00  0.00    -0.020 A 
ATOM      7  C   UNL     1      -3.610  -1.262  24.064  0.00  0.00    -0.004 A 
ATOM      8  C   UNL     1      -4.244  -1.479  23.581  0.00  0.00    -0.000 A 
ATOM      9  C   UNL     1      -4.472  -2.271  23.531  0.00  0.00    -0.000 A 
ATOM     10  C   UNL     1      -4.065  -2.845  23.963  0.00  0.00    -0.000 A 
ATOM     11  C   UNL     1      -3.432  -2.628  24.445  0.00  0.00    -0.004 A 
ENDBRANCH   5   6
ENDBRANCH   4   5
ENDBRANCH  12   4
ENDBRANCH  15  13
BRANCH  22  24
ATOM     24  N   UNL     1       0.063   2.324  25.039  0.00  0.00    -0.076 NA
BRANCH  24  25
ATOM     25  S   UNL     1      -0.473   2.946  25.118  0.00  0.00    +0.077 S 
ATOM     26  O   UNL     1      -0.616   2.927  24.306  0.00  0.00    -0.152 OA
ATOM     27  O   UNL     1      -0.329   2.966  25.931  0.00  0.00    -0.152 OA
BRANCH  25  28
ATOM     28  C   UNL     1      -1.008   3.568  25.198  0.00  0.00    +0.124 A 
ATOM     29  C   UNL     1      -1.760   3.427  25.507  0.00  0.00    +0.024 A 
ATOM     30  C   UNL     1      -2.296   4.050  25.587  0.00  0.00    +0.073 A 
ATOM     31  C   UNL     1      -2.080   4.813  25.358  0.00  0.00    +0.004 A 
ATOM     32  C   UNL     1      -1.329   4.953  25.049  0.00  0.00    +0.001 A 
ATOM     33  C   UNL     1      -0.792   4.330  24.969  0.00  0.00    +0.020 A 
BRANCH  30  34
ATOM     34  C   UNL     1      -3.049   3.910  25.896  0.00  0.00    +0.419 C 
ATOM     35  F   UNL     1      -3.800   3.770  26.205  0.00  0.00    -0.166 F 
ATOM     36  F   UNL     1      -2.800   4.192  26.630  0.00  0.00    -0.166 F 
ATOM     37  F   UNL     1      -3.298   3.628  25.162  0.00  0.00    -0.166 F 
ENDBRANCH  30  34
ENDBRANCH  25  28
ENDBRANCH  24  25
ENDBRANCH  22  24
TORSDOF 9
ENDMDL
