MODEL 1
REMARK VINA RESULT:     -10.2      0.000      0.000
REMARK  Name = 
REMARK  9 active torsions:
REMARK  status: ('A' for Active; 'I' for Inactive)
REMARK    1  A    between atoms: C_2  and  N_3
REMARK    2  A    between atoms: N_3  and  C_4
REMARK    3  A    between atoms: C_6  and  C_8
REMARK    4  A    between atoms: C_8  and  C_9
REMARK    5  A    between atoms: C_9  and  C_10
REMARK    6  A    between atoms: C_17  and  N_20
REMARK    7  A    between atoms: N_20  and  C_21
REMARK    8  A    between atoms: C_21  and  C_22
REMARK    9  A    between atoms: C_25  and  O_26
REMARK                            x       y       z     vdW  Elec       q    Type
REMARK                         _______ _______ _______ _____ _____    ______ ____
ROOT
ATOM     10  C   UNL     1      -4.336   3.208  25.167  0.00  0.00    +0.080 C 
ATOM     11  C   UNL     1      -4.803   3.746  25.584  0.00  0.00    +0.131 C 
ATOM     12  N   UNL     1      -5.488   3.489  25.963  0.00  0.00    -0.203 NA
ATOM     13  C   UNL     1      -5.707   2.694  25.926  0.00  0.00    +0.256 C 
ATOM     14  O   UNL     1      -6.393   2.438  26.307  0.00  0.00    -0.272 OA
ATOM     15  C   UNL     1      -5.240   2.157  25.510  0.00  0.00    +0.138 C 
ATOM     16  C   UNL     1      -5.316   1.346  25.378  0.00  0.00    +0.044 C 
ATOM     17  C   UNL     1      -4.677   1.102  24.918  0.00  0.00    +0.091 C 
ATOM     18  C   UNL     1      -4.206   1.761  24.764  0.00  0.00    +0.090 C 
ATOM     19  N   UNL     1      -4.555   2.413  25.131  0.00  0.00    -0.265 NA
ENDROOT
BRANCH  10   9
ATOM      9  C   UNL     1      -3.650   3.465  24.787  0.00  0.00    +0.027 C 
BRANCH   9   8
ATOM      8  C   UNL     1      -3.002   3.718  25.232  0.00  0.00    +0.087 C 
BRANCH   8   6
ATOM      3  N   UNL     1      -1.608   4.024  25.170  0.00  0.00    -0.280 N 
ATOM      6  C   UNL     1      -2.370   4.095  24.860  0.00  0.00    +0.226 C 
ATOM      7  O   UNL     1      -2.498   4.543  24.180  0.00  0.00    -0.275 OA
BRANCH   3   2
ATOM      1  C   UNL     1      -0.769   5.170  25.014  0.00  0.00    +0.023 C 
ATOM      2  C   UNL     1      -0.975   4.401  24.799  0.00  0.00    +0.093 C 
ENDBRANCH   3   2
BRANCH   3   4
ATOM      4  C   UNL     1      -1.479   3.576  25.851  0.00  0.00    +0.093 C 
ATOM      5  C   UNL     1      -0.799   3.112  25.916  0.00  0.00    +0.023 C 
ENDBRANCH   3   4
ENDBRANCH   8   6
ENDBRANCH   9   8
ENDBRANCH  10   9
BRANCH  17  20
ATOM     20  N   UNL     1      -4.534   0.332  24.656  0.00  0.00    -0.213 NA
BRANCH  20  21
ATOM     21  C   UNL     1      -4.367  -0.264  25.201  0.00  0.00    +0.115 C 
BRANCH  21  22
ATOM     22  C   UNL     1      -3.930  -0.925  24.968  0.00  0.00    -0.005 A 
ATOM     23  C   UNL     1      -3.244  -1.130  25.378  0.00  0.00    +0.000 A 
ATOM     24  C   UNL     1      -2.807  -1.791  25.146  0.00  0.00    +0.037 A 
ATOM     25  C   UNL     1      -3.057  -2.246  24.504  0.00  0.00    +0.139 A 
ATOM     28  C   UNL     1      -3.744  -2.040  24.095  0.00  0.00    +0.037 A 
ATOM     29  C   UNL     1      -4.180  -1.380  24.327  0.00  0.00    +0.000 A 
BRANCH  25  26
ATOM     26  O   UNL     1      -2.621  -2.906  24.272  0.00  0.00    -0.471 OA
ATOM     27  C   UNL     1      -1.798  -2.863  24.230  0.00  0.00    +0.252 C 
ENDBRANCH  25  26
ENDBRANCH  21  22
ENDBRANCH  20  21
ENDBRANCH  17  20
TORSDOF 9
ENDMDL
MODEL 2
REMARK VINA RESULT:      -9.2      2.125      4.776
REMARK  Name = 
REMARK  9 active torsions:
REMARK  status: ('A' for Active; 'I' for Inactive)
REMARK    1  A    between atoms: C_2  and  N_3
REMARK    2  A    between atoms: N_3  and  C_4
REMARK    3  A    between atoms: C_6  and  C_8
REMARK    4  A    between atoms: C_8  and  C_9
REMARK    5  A    between atoms: C_9  and  C_10
REMARK    6  A    between atoms: C_17  and  N_20
REMARK    7  A    between atoms: N_20  and  C_21
REMARK    8  A    between atoms: C_21  and  C_22
REMARK    9  A    between atoms: C_25  and  O_26
REMARK                            x       y       z     vdW  Elec       q    Type
REMARK                         _______ _______ _______ _____ _____    ______ ____
ROOT
ATOM     10  C   UNL     1      -1.906  -1.277  24.881  0.00  0.00    +0.080 C 
ATOM     11  C   UNL     1      -1.693  -2.037  24.640  0.00  0.00    +0.131 C 
ATOM     12  N   UNL     1      -2.278  -2.584  24.440  0.00  0.00    -0.203 NA
ATOM     13  C   UNL     1      -3.074  -2.371  24.482  0.00  0.00    +0.256 C 
ATOM     14  O   UNL     1      -3.657  -2.919  24.282  0.00  0.00    -0.272 OA
ATOM     15  C   UNL     1      -3.285  -1.612  24.723  0.00  0.00    +0.138 C 
ATOM     16  C   UNL     1      -4.019  -1.247  24.817  0.00  0.00    +0.044 C 
ATOM     17  C   UNL     1      -3.889  -0.475  25.075  0.00  0.00    +0.091 C 
ATOM     18  C   UNL     1      -3.075  -0.361  25.140  0.00  0.00    +0.090 C 
ATOM     19  N   UNL     1      -2.702  -1.065  24.923  0.00  0.00    -0.265 NA
ENDROOT
BRANCH  10   9
ATOM      9  C   UNL     1      -1.321  -0.730  25.081  0.00  0.00    +0.027 C 
BRANCH   9   8
ATOM      8  C   UNL     1      -0.760  -0.503  24.521  0.00  0.00    +0.087 C 
BRANCH   8   6
ATOM      3  N   UNL     1       0.190   0.452  24.046  0.00  0.00    -0.280 N 
ATOM      6  C   UNL     1      -0.306   0.174  24.644  0.00  0.00    +0.226 C 
ATOM      7  O   UNL     1      -0.347   0.575  25.364  0.00  0.00    -0.275 OA
BRANCH   3   2
ATOM      1  C   UNL     1       0.383   1.860  23.885  0.00  0.00    +0.023 C 
ATOM      2  C   UNL     1       0.645   1.131  24.169  0.00  0.00    +0.093 C 
ENDBRANCH   3   2
BRANCH   3   4
ATOM      4  C   UNL     1       0.232   0.053  23.326  0.00  0.00    +0.093 C 
ATOM      5  C   UNL     1       0.959  -0.030  22.942  0.00  0.00    +0.023 C 
ENDBRANCH   3   4
ENDBRANCH   8   6
ENDBRANCH   9   8
ENDBRANCH  10   9
BRANCH  17  20
ATOM     20  N   UNL     1      -4.472   0.087  25.239  0.00  0.00    -0.213 NA
BRANCH  20  21
ATOM     21  C   UNL     1      -4.612   0.702  24.707  0.00  0.00    +0.115 C 
BRANCH  21  22
ATOM     22  C   UNL     1      -4.929   1.415  24.976  0.00  0.00    -0.005 A 
ATOM     23  C   UNL     1      -5.627   1.415  25.415  0.00  0.00    +0.000 A 
ATOM     24  C   UNL     1      -5.945   2.129  25.684  0.00  0.00    +0.037 A 
ATOM     25  C   UNL     1      -5.563   2.840  25.513  0.00  0.00    +0.139 A 
ATOM     28  C   UNL     1      -4.865   2.838  25.073  0.00  0.00    +0.037 A 
ATOM     29  C   UNL     1      -4.548   2.126  24.805  0.00  0.00    +0.000 A 
BRANCH  25  26
ATOM     26  O   UNL     1      -5.880   3.552  25.782  0.00  0.00    -0.471 OA
ATOM     27  C   UNL     1      -5.552   4.269  25.538  0.00  0.00    +0.252 C 
ENDBRANCH  25  26
ENDBRANCH  21  22
ENDBRANCH  20  21
ENDBRANCH  17  20
TORSDOF 9
ENDMDL
MODEL 3
REMARK VINA RESULT:      -9.1      1.118      5.007
REMARK  Name = 
REMARK  9 active torsions:
REMARK  status: ('A' for Active; 'I' for Inactive)
REMARK    1  A    between atoms: C_2  and  N_3
REMARK    2  A    between atoms: N_3  and  C_4
REMARK    3  A    between atoms: C_6  and  C_8
REMARK    4  A    between atoms: C_8  and  C_9
REMARK    5  A    between atoms: C_9  and  C_10
REMARK    6  A    between atoms: C_17  and  N_20
REMARK    7  A    between atoms: N_20  and  C_21
REMARK    8  A    between atoms: C_21  and  C_22
REMARK    9  A    between atoms: C_25  and  O_26
REMARK                            x       y       z     vdW  Elec       q    Type
REMARK                         _______ _______ _______ _____ _____    ______ ____
ROOT
ATOM     10  C   UNL     1      -5.066   1.251  25.101  0.00  0.00    +0.080 C 
ATOM     11  C   UNL     1      -5.787   1.010  25.421  0.00  0.00    +0.131 C 
ATOM     12  N   UNL     1      -6.235   1.537  25.870  0.00  0.00    -0.203 NA
ATOM     13  C   UNL     1      -5.963   2.304  25.999  0.00  0.00    +0.256 C 
ATOM     14  O   UNL     1      -6.412   2.831  26.449  0.00  0.00    -0.272 OA
ATOM     15  C   UNL     1      -5.242   2.545  25.680  0.00  0.00    +0.138 C 
ATOM     16  C   UNL     1      -4.834   3.262  25.714  0.00  0.00    +0.044 C 
ATOM     17  C   UNL     1      -4.135   3.178  25.287  0.00  0.00    +0.091 C 
ATOM     18  C   UNL     1      -4.108   2.410  24.988  0.00  0.00    +0.090 C 
ATOM     19  N   UNL     1      -4.793   2.019  25.231  0.00  0.00    -0.265 NA
ENDROOT
BRANCH  10   9
ATOM      9  C   UNL     1      -4.616   0.724  24.652  0.00  0.00    +0.027 C 
BRANCH   9   8
ATOM      8  C   UNL     1      -4.398  -0.006  24.968  0.00  0.00    +0.087 C 
BRANCH   8   6
ATOM      3  N   UNL     1      -3.683  -1.233  24.815  0.00  0.00    -0.280 N 
ATOM      6  C   UNL     1      -4.068  -0.583  24.481  0.00  0.00    +0.226 C 
ATOM      7  O   UNL     1      -4.121  -0.513  23.661  0.00  0.00    -0.275 OA
BRANCH   3   2
ATOM      1  C   UNL     1      -3.624  -2.589  24.368  0.00  0.00    +0.023 C 
ATOM      2  C   UNL     1      -3.352  -1.811  24.328  0.00  0.00    +0.093 C 
ENDBRANCH   3   2
BRANCH   3   4
ATOM      4  C   UNL     1      -3.630  -1.305  25.635  0.00  0.00    +0.093 C 
ATOM      5  C   UNL     1      -2.900  -1.461  25.988  0.00  0.00    +0.023 C 
ENDBRANCH   3   4
ENDBRANCH   8   6
ENDBRANCH   9   8
ENDBRANCH  10   9
BRANCH  17  20
ATOM     20  N   UNL     1      -3.560   3.761  25.177  0.00  0.00    -0.213 NA
BRANCH  20  21
ATOM     21  C   UNL     1      -2.909   3.798  25.681  0.00  0.00    +0.115 C 
BRANCH  21  22
ATOM     22  C   UNL     1      -2.205   4.142  25.421  0.00  0.00    -0.005 A 
ATOM     23  C   UNL     1      -1.543   3.669  25.279  0.00  0.00    +0.000 A 
ATOM     24  C   UNL     1      -0.839   4.013  25.019  0.00  0.00    +0.037 A 
ATOM     25  C   UNL     1      -0.797   4.829  24.901  0.00  0.00    +0.139 A 
ATOM     28  C   UNL     1      -1.460   5.300  25.044  0.00  0.00    +0.037 A 
ATOM     29  C   UNL     1      -2.163   4.957  25.303  0.00  0.00    +0.000 A 
BRANCH  25  26
ATOM     26  O   UNL     1      -0.094   5.172  24.642  0.00  0.00    -0.471 OA
ATOM     27  C   UNL     1       0.167   5.045  23.869  0.00  0.00    +0.252 C 
ENDBRANCH  25  26
ENDBRANCH  21  22
ENDBRANCH  20  21
ENDBRANCH  17  20
TORSDOF 9
ENDMDL
MODEL 4
REMARK VINA RESULT:      -9.0      1.700      3.491
REMARK  Name = 
REMARK  9 active torsions:
REMARK  status: ('A' for Active; 'I' for Inactive)
REMARK    1  A    between atoms: C_2  and  N_3
REMARK    2  A    between atoms: N_3  and  C_4
REMARK    3  A    between atoms: C_6  and  C_8
REMARK    4  A    between atoms: C_8  and  C_9
REMARK    5  A    between atoms: C_9  and  C_10
REMARK    6  A    between atoms: C_17  and  N_20
REMARK    7  A    between atoms: N_20  and  C_21
REMARK    8  A    between atoms: C_21  and  C_22
REMARK    9  A    between atoms: C_25  and  O_26
REMARK                            x       y       z     vdW  Elec       q    Type
REMARK                         _______ _______ _______ _____ _____    ______ ____
ROOT
ATOM     10  C   UNL     1      -1.224   2.678  25.277  0.00  0.00    +0.080 C 
ATOM     11  C   UNL     1      -0.677   3.267  25.093  0.00  0.00    +0.131 C 
ATOM     12  N   UNL     1       0.047   3.063  24.752  0.00  0.00    -0.203 NA
ATOM     13  C   UNL     1       0.222   2.272  24.597  0.00  0.00    +0.256 C 
ATOM     14  O   UNL     1       0.946   2.070  24.256  0.00  0.00    -0.272 OA
ATOM     15  C   UNL     1      -0.325   1.685  24.782  0.00  0.00    +0.138 C 
ATOM     16  C   UNL     1      -0.307   0.865  24.693  0.00  0.00    +0.044 C 
ATOM     17  C   UNL     1      -1.018   0.561  24.978  0.00  0.00    +0.091 C 
ATOM     18  C   UNL     1      -1.477   1.192  25.244  0.00  0.00    +0.090 C 
ATOM     19  N   UNL     1      -1.049   1.887  25.122  0.00  0.00    -0.265 NA
ENDROOT
BRANCH  10   9
ATOM      9  C   UNL     1      -1.948   2.881  25.618  0.00  0.00    +0.027 C 
BRANCH   9   8
ATOM      8  C   UNL     1      -2.493   3.332  25.193  0.00  0.00    +0.087 C 
BRANCH   8   6
ATOM      3  N   UNL     1      -3.892   3.611  25.129  0.00  0.00    -0.280 N 
ATOM      6  C   UNL     1      -3.186   3.591  25.556  0.00  0.00    +0.226 C 
ATOM      7  O   UNL     1      -3.174   3.832  26.345  0.00  0.00    -0.275 OA
BRANCH   3   2
ATOM      1  C   UNL     1      -5.238   3.368  25.545  0.00  0.00    +0.023 C 
ATOM      2  C   UNL     1      -4.586   3.871  25.493  0.00  0.00    +0.093 C 
ENDBRANCH   3   2
BRANCH   3   4
ATOM      4  C   UNL     1      -3.905   3.371  24.340  0.00  0.00    +0.093 C 
ATOM      5  C   UNL     1      -4.229   3.866  23.764  0.00  0.00    +0.023 C 
ENDBRANCH   3   4
ENDBRANCH   8   6
ENDBRANCH   9   8
ENDBRANCH  10   9
BRANCH  17  20
ATOM     20  N   UNL     1      -1.234  -0.236  24.995  0.00  0.00    -0.213 NA
BRANCH  20  21
ATOM     21  C   UNL     1      -1.874  -0.480  25.455  0.00  0.00    +0.115 C 
BRANCH  21  22
ATOM     22  C   UNL     1      -2.327  -1.129  25.219  0.00  0.00    -0.005 A 
ATOM     23  C   UNL     1      -1.963  -1.777  24.863  0.00  0.00    +0.000 A 
ATOM     24  C   UNL     1      -2.416  -2.426  24.627  0.00  0.00    +0.037 A 
ATOM     25  C   UNL     1      -3.232  -2.426  24.748  0.00  0.00    +0.139 A 
ATOM     28  C   UNL     1      -3.595  -1.776  25.105  0.00  0.00    +0.037 A 
ATOM     29  C   UNL     1      -3.143  -1.128  25.340  0.00  0.00    +0.000 A 
BRANCH  25  26
ATOM     26  O   UNL     1      -3.684  -3.074  24.513  0.00  0.00    -0.471 OA
ATOM     27  C   UNL     1      -4.224  -2.998  23.894  0.00  0.00    +0.252 C 
ENDBRANCH  25  26
ENDBRANCH  21  22
ENDBRANCH  20  21
ENDBRANCH  17  20
TORSDOF 9
ENDMDL
MODEL 5
REMARK VINA RESULT:      -8.7      2.172      5.896
REMARK  Name = 
REMARK  9 active torsions:
REMARK  status: ('A' for Active; 'I' for Inactive)
REMARK    1  A    between atoms: C_2  and  N_3
REMARK    2  A    between atoms: N_3  and  C_4
REMARK    3  A    between atoms: C_6  and  C_8
REMARK    4  A    between atoms: C_8  and  C_9
REMARK    5  A    between atoms: C_9  and  C_10
REMARK    6  A    between atoms: C_17  and  N_20
REMARK    7  A    between atoms: N_20  and  C_21
REMARK    8  A    between atoms: C_21  and  C_22
REMARK    9  A    between atoms: C_25  and  O_26
REMARK                            x       y       z     vdW  Elec       q    Type
REMARK                         _______ _______ _______ _____ _____    ______ ____
ROOT
ATOM     10  C   UNL     1      -0.772  -0.360  24.558  0.00  0.00    +0.080 C 
ATOM     11  C   UNL     1      -0.130  -0.672  24.145  0.00  0.00    +0.131 C 
ATOM     12  N   UNL     1       0.419  -0.166  23.794  0.00  0.00    -0.203 NA
ATOM     13  C   UNL     1       0.325   0.651  23.856  0.00  0.00    +0.256 C 
ATOM     14  O   UNL     1       0.874   1.157  23.505  0.00  0.00    -0.272 OA
ATOM     15  C   UNL     1      -0.317   0.962  24.269  0.00  0.00    +0.138 C 
ATOM     16  C   UNL     1      -0.552   1.738  24.422  0.00  0.00    +0.044 C 
ATOM     17  C   UNL     1      -1.246   1.712  24.867  0.00  0.00    +0.091 C 
ATOM     18  C   UNL     1      -1.440   0.920  24.990  0.00  0.00    +0.090 C 
ATOM     19  N   UNL     1      -0.866   0.457  24.620  0.00  0.00    -0.265 NA
ENDROOT
BRANCH  10   9
ATOM      9  C   UNL     1      -1.321  -0.867  24.910  0.00  0.00    +0.027 C 
BRANCH   9   8
ATOM      8  C   UNL     1      -1.868  -1.271  24.442  0.00  0.00    +0.087 C 
BRANCH   8   6
ATOM      3  N   UNL     1      -3.056  -2.060  24.522  0.00  0.00    -0.280 N 
ATOM      6  C   UNL     1      -2.276  -1.917  24.752  0.00  0.00    +0.226 C 
ATOM      7  O   UNL     1      -1.906  -2.421  25.290  0.00  0.00    -0.275 OA
BRANCH   3   2
ATOM      1  C   UNL     1      -3.765  -3.286  24.326  0.00  0.00    +0.023 C 
ATOM      2  C   UNL     1      -3.465  -2.707  24.832  0.00  0.00    +0.093 C 
ENDBRANCH   3   2
BRANCH   3   4
ATOM      4  C   UNL     1      -3.427  -1.557  23.984  0.00  0.00    +0.093 C 
ATOM      5  C   UNL     1      -4.230  -1.385  24.067  0.00  0.00    +0.023 C 
ENDBRANCH   3   4
ENDBRANCH   8   6
ENDBRANCH   9   8
ENDBRANCH  10   9
BRANCH  17  20
ATOM     20  N   UNL     1      -1.671   2.364  25.142  0.00  0.00    -0.213 NA
BRANCH  20  21
ATOM     21  C   UNL     1      -2.119   2.815  24.616  0.00  0.00    +0.115 C 
BRANCH  21  22
ATOM     22  C   UNL     1      -2.853   3.112  24.850  0.00  0.00    -0.005 A 
ATOM     23  C   UNL     1      -3.528   2.931  24.412  0.00  0.00    +0.000 A 
ATOM     24  C   UNL     1      -4.263   3.229  24.645  0.00  0.00    +0.037 A 
ATOM     25  C   UNL     1      -4.320   3.706  25.316  0.00  0.00    +0.139 A 
ATOM     28  C   UNL     1      -3.644   3.886  25.753  0.00  0.00    +0.037 A 
ATOM     29  C   UNL     1      -2.911   3.590  25.520  0.00  0.00    +0.000 A 
BRANCH  25  26
ATOM     26  O   UNL     1      -5.053   4.003  25.549  0.00  0.00    -0.471 OA
ATOM     27  C   UNL     1      -5.682   3.487  25.690  0.00  0.00    +0.252 C 
ENDBRANCH  25  26
ENDBRANCH  21  22
ENDBRANCH  20  21
ENDBRANCH  17  20
TORSDOF 9
ENDMDL
MODEL 6
REMARK VINA RESULT:      -8.4      3.048      4.818
REMARK  Name = 
REMARK  9 active torsions:
REMARK  status: ('A' for Active; 'I' for Inactive)
REMARK    1  A    between atoms: C_2  and  N_3
REMARK    2  A    between atoms: N_3  and  C_4
REMARK    3  A    between atoms: C_6  and  C_8
REMARK    4  A    between atoms: C_8  and  C_9
REMARK    5  A    between atoms: C_9  and  C_10
REMARK    6  A    between atoms: C_17  and  N_20
REMARK    7  A    between atoms: N_20  and  C_21
REMARK    8  A    between atoms: C_21  and  C_22
REMARK    9  A    between atoms: C_25  and  O_26
REMARK                            x       y       z     vdW  Elec       q    Type
REMARK                         _______ _______ _______ _____ _____    ______ ____
ROOT
ATOM     10  C   UNL     1      -3.071   0.005  24.725  0.00  0.00    +0.080 C 
ATOM     11  C   UNL     1      -3.675  -0.510  24.950  0.00  0.00    +0.131 C 
ATOM     12  N   UNL     1      -3.515  -1.312  25.054  0.00  0.00    -0.203 NA
ATOM     13  C   UNL     1      -2.751  -1.600  24.934  0.00  0.00    +0.256 C 
ATOM     14  O   UNL     1      -2.592  -2.403  25.039  0.00  0.00    -0.272 OA
ATOM     15  C   UNL     1      -2.148  -1.085  24.710  0.00  0.00    +0.138 C 
ATOM     16  C   UNL     1      -1.347  -1.208  24.552  0.00  0.00    +0.044 C 
ATOM     17  C   UNL     1      -1.012  -0.482  24.351  0.00  0.00    +0.091 C 
ATOM     18  C   UNL     1      -1.605   0.091  24.383  0.00  0.00    +0.090 C 
ATOM     19  N   UNL     1      -2.307  -0.283  24.605  0.00  0.00    -0.265 NA
ENDROOT
BRANCH  10   9
ATOM      9  C   UNL     1      -3.231   0.808  24.621  0.00  0.00    +0.027 C 
BRANCH   9   8
ATOM      8  C   UNL     1      -3.965   1.115  24.841  0.00  0.00    +0.087 C 
BRANCH   8   6
ATOM      3  N   UNL     1      -4.835   2.233  25.019  0.00  0.00    -0.280 N 
ATOM      6  C   UNL     1      -4.099   1.927  24.805  0.00  0.00    +0.226 C 
ATOM      7  O   UNL     1      -3.498   2.435  24.555  0.00  0.00    -0.275 OA
BRANCH   3   2
ATOM      1  C   UNL     1      -5.104   3.474  25.676  0.00  0.00    +0.023 C 
ATOM      2  C   UNL     1      -4.970   3.047  24.983  0.00  0.00    +0.093 C 
ENDBRANCH   3   2
BRANCH   3   4
ATOM      4  C   UNL     1      -5.436   1.727  25.269  0.00  0.00    +0.093 C 
ATOM      5  C   UNL     1      -6.219   1.880  25.057  0.00  0.00    +0.023 C 
ENDBRANCH   3   4
ENDBRANCH   8   6
ENDBRANCH   9   8
ENDBRANCH  10   9
BRANCH  17  20
ATOM     20  N   UNL     1      -0.222  -0.350  24.152  0.00  0.00    -0.213 NA
BRANCH  20  21
ATOM     21  C   UNL     1      -0.033   0.168  23.538  0.00  0.00    +0.115 C 
BRANCH  21  22
ATOM     22  C   UNL     1       0.743   0.208  23.257  0.00  0.00    -0.005 A 
ATOM     23  C   UNL     1       1.001  -0.324  22.682  0.00  0.00    +0.000 A 
ATOM     24  C   UNL     1       1.776  -0.283  22.402  0.00  0.00    +0.037 A 
ATOM     25  C   UNL     1       2.292   0.289  22.696  0.00  0.00    +0.139 A 
ATOM     28  C   UNL     1       2.033   0.821  23.272  0.00  0.00    +0.037 A 
ATOM     29  C   UNL     1       1.259   0.781  23.552  0.00  0.00    +0.000 A 
BRANCH  25  26
ATOM     26  O   UNL     1       3.067   0.329  22.416  0.00  0.00    -0.471 OA
ATOM     27  C   UNL     1       3.609   0.839  22.772  0.00  0.00    +0.252 C 
ENDBRANCH  25  26
ENDBRANCH  21  22
ENDBRANCH  20  21
ENDBRANCH  17  20
TORSDOF 9
ENDMDL
MODEL 7
REMARK VINA RESULT:      -6.5     16.265     19.303
REMARK  Name = 
REMARK  9 active torsions:
REMARK  status: ('A' for Active; 'I' for Inactive)
REMARK    1  A    between atoms: C_2  and  N_3
REMARK    2  A    between atoms: N_3  and  C_4
REMARK    3  A    between atoms: C_6  and  C_8
REMARK    4  A    between atoms: C_8  and  C_9
REMARK    5  A    between atoms: C_9  and  C_10
REMARK    6  A    between atoms: C_17  and  N_20
REMARK    7  A    between atoms: N_20  and  C_21
REMARK    8  A    between atoms: C_21  and  C_22
REMARK    9  A    between atoms: C_25  and  O_26
REMARK                            x       y       z     vdW  Elec       q    Type
REMARK                         _______ _______ _______ _____ _____    ______ ____
ROOT
ATOM     10  C   UNL     1      14.361   7.751  18.382  0.00  0.00    +0.080 C 
ATOM     11  C   UNL     1      14.470   7.435  17.628  0.00  0.00    +0.131 C 
ATOM     12  N   UNL     1      13.822   7.323  17.131  0.00  0.00    -0.203 NA
ATOM     13  C   UNL     1      13.064   7.526  17.389  0.00  0.00    +0.256 C 
ATOM     14  O   UNL     1      12.416   7.413  16.891  0.00  0.00    -0.272 OA
ATOM     15  C   UNL     1      12.956   7.841  18.142  0.00  0.00    +0.138 C 
ATOM     16  C   UNL     1      12.280   8.091  18.545  0.00  0.00    +0.044 C 
ATOM     17  C   UNL     1      12.511   8.357  19.290  0.00  0.00    +0.091 C 
ATOM     18  C   UNL     1      13.329   8.273  19.350  0.00  0.00    +0.090 C 
ATOM     19  N   UNL     1      13.604   7.953  18.640  0.00  0.00    -0.265 NA
ENDROOT
BRANCH  10   9
ATOM      9  C   UNL     1      15.010   7.863  18.880  0.00  0.00    +0.027 C 
BRANCH   9   8
ATOM      8  C   UNL     1      15.572   7.266  18.967  0.00  0.00    +0.087 C 
BRANCH   8   6
ATOM      3  N   UNL     1      16.728   6.741  19.623  0.00  0.00    -0.280 N 
ATOM      6  C   UNL     1      16.139   7.317  19.563  0.00  0.00    +0.226 C 
ATOM      7  O   UNL     1      16.119   7.943  20.100  0.00  0.00    -0.275 OA
BRANCH   3   2
ATOM      1  C   UNL     1      17.086   6.640  21.003  0.00  0.00    +0.023 C 
ATOM      2  C   UNL     1      17.296   6.792  20.220  0.00  0.00    +0.093 C 
ENDBRANCH   3   2
BRANCH   3   4
ATOM      4  C   UNL     1      16.749   6.115  19.087  0.00  0.00    +0.093 C 
ATOM      5  C   UNL     1      17.318   5.522  19.167  0.00  0.00    +0.023 C 
ENDBRANCH   3   4
ENDBRANCH   8   6
ENDBRANCH   9   8
ENDBRANCH  10   9
BRANCH  17  20
ATOM     20  N   UNL     1      12.011   8.657  19.875  0.00  0.00    -0.213 NA
BRANCH  20  21
ATOM     21  C   UNL     1      11.351   8.223  20.114  0.00  0.00    +0.115 C 
BRANCH  21  22
ATOM     22  C   UNL     1      11.075   8.287  20.889  0.00  0.00    -0.005 A 
ATOM     23  C   UNL     1      10.899   7.606  21.321  0.00  0.00    +0.000 A 
ATOM     24  C   UNL     1      10.623   7.670  22.096  0.00  0.00    +0.037 A 
ATOM     25  C   UNL     1      10.523   8.414  22.439  0.00  0.00    +0.139 A 
ATOM     28  C   UNL     1      10.700   9.094  22.006  0.00  0.00    +0.037 A 
ATOM     29  C   UNL     1      10.975   9.031  21.232  0.00  0.00    +0.000 A 
BRANCH  25  26
ATOM     26  O   UNL     1      10.248   8.477  23.213  0.00  0.00    -0.471 OA
ATOM     27  C   UNL     1      10.508   9.094  23.696  0.00  0.00    +0.252 C 
ENDBRANCH  25  26
ENDBRANCH  21  22
ENDBRANCH  20  21
ENDBRANCH  17  20
TORSDOF 9
ENDMDL
