MODEL 1
REMARK VINA RESULT:     -10.1      0.000      0.000
REMARK  Name = 
REMARK  7 active torsions:
REMARK  status: ('A' for Active; 'I' for Inactive)
REMARK    1  A    between atoms: C_2  and  C_4
REMARK    2  A    between atoms: C_4  and  N_5
REMARK    3  A    between atoms: C_6  and  C_7
REMARK    4  A    between atoms: C_9  and  C_14
REMARK    5  A    between atoms: C_17  and  N_18
REMARK    6  A    between atoms: C_19  and  C_21
REMARK    7  A    between atoms: C_21  and  C_22
REMARK                            x       y       z     vdW  Elec       q    Type
REMARK                         _______ _______ _______ _____ _____    ______ ____
ROOT
ATOM      5  N   UNL     1      -2.231   3.448  25.047  0.00  0.00    -0.274 N 
ATOM      6  C   UNL     1      -2.464   2.670  24.907  0.00  0.00    +0.140 C 
ATOM      9  C   UNL     1      -3.229   2.508  24.643  0.00  0.00    +0.159 C 
ATOM     10  O   UNL     1      -3.762   3.127  24.520  0.00  0.00    -0.341 OA
ATOM     11  C   UNL     1      -3.529   3.906  24.660  0.00  0.00    +0.227 C 
ATOM     12  C   UNL     1      -2.764   4.067  24.924  0.00  0.00    +0.256 C 
ATOM     13  O   UNL     1      -2.531   4.846  25.064  0.00  0.00    -0.272 OA
ENDROOT
BRANCH   9  14
ATOM     14  C   UNL     1      -3.461   1.730  24.503  0.00  0.00    +0.006 A 
ATOM     15  C   UNL     1      -3.228   1.348  23.810  0.00  0.00    -0.001 A 
ATOM     16  C   UNL     1      -3.460   0.569  23.669  0.00  0.00    +0.016 A 
ATOM     17  C   UNL     1      -3.926   0.172  24.222  0.00  0.00    +0.073 A 
ATOM     25  C   UNL     1      -4.159   0.553  24.916  0.00  0.00    +0.016 A 
ATOM     26  C   UNL     1      -3.926   1.332  25.056  0.00  0.00    -0.001 A 
BRANCH  17  18
ATOM     18  N   UNL     1      -4.159  -0.608  24.081  0.00  0.00    -0.179 NA
ATOM     19  C   UNL     1      -3.692  -1.232  24.351  0.00  0.00    +0.246 C 
ATOM     20  O   UNL     1      -2.993  -1.078  24.761  0.00  0.00    -0.273 OA
BRANCH  19  21
ATOM     21  C   UNL     1      -3.925  -2.011  24.210  0.00  0.00    +0.087 C 
BRANCH  21  22
ATOM     22  C   UNL     1      -3.450  -2.636  24.467  0.00  0.00    +0.009 C 
ATOM     23  C   UNL     1      -3.509  -2.905  25.245  0.00  0.00    +0.001 C 
ATOM     24  C   UNL     1      -2.917  -2.990  23.947  0.00  0.00    +0.001 C 
ENDBRANCH  21  22
ENDBRANCH  19  21
ENDBRANCH  17  18
ENDBRANCH   9  14
BRANCH   6   7
ATOM      7  C   UNL     1      -1.931   2.052  25.031  0.00  0.00    +0.205 C 
ATOM      8  O   UNL     1      -1.645   1.899  25.790  0.00  0.00    -0.218 OA
ENDBRANCH   6   7
BRANCH   5   4
ATOM      4  C   UNL     1      -1.466   3.610  25.311  0.00  0.00    +0.094 C 
BRANCH   4   2
ATOM      1  C   UNL     1      -0.904   4.895  25.037  0.00  0.00    +0.002 C 
ATOM      2  C   UNL     1      -0.968   4.091  24.863  0.00  0.00    +0.020 C 
ATOM      3  C   UNL     1      -0.533   3.767  24.240  0.00  0.00    +0.002 C 
ENDBRANCH   4   2
ENDBRANCH   5   4
TORSDOF 7
ENDMDL
MODEL 2
REMARK VINA RESULT:      -9.9      1.615      5.513
REMARK  Name = 
REMARK  7 active torsions:
REMARK  status: ('A' for Active; 'I' for Inactive)
REMARK    1  A    between atoms: C_2  and  C_4
REMARK    2  A    between atoms: C_4  and  N_5
REMARK    3  A    between atoms: C_6  and  C_7
REMARK    4  A    between atoms: C_9  and  C_14
REMARK    5  A    between atoms: C_17  and  N_18
REMARK    6  A    between atoms: C_19  and  C_21
REMARK    7  A    between atoms: C_21  and  C_22
REMARK                            x       y       z     vdW  Elec       q    Type
REMARK                         _______ _______ _______ _____ _____    ______ ____
ROOT
ATOM      5  N   UNL     1      -2.159  -1.302  24.530  0.00  0.00    -0.274 N 
ATOM      6  C   UNL     1      -1.939  -0.517  24.655  0.00  0.00    +0.140 C 
ATOM      9  C   UNL     1      -1.150  -0.329  24.808  0.00  0.00    +0.159 C 
ATOM     10  O   UNL     1      -0.581  -0.927  24.835  0.00  0.00    -0.341 OA
ATOM     11  C   UNL     1      -0.802  -1.712  24.710  0.00  0.00    +0.227 C 
ATOM     12  C   UNL     1      -1.590  -1.900  24.557  0.00  0.00    +0.256 C 
ATOM     13  O   UNL     1      -1.811  -2.685  24.431  0.00  0.00    -0.272 OA
ENDROOT
BRANCH   9  14
ATOM     14  C   UNL     1      -0.930   0.456  24.934  0.00  0.00    +0.006 A 
ATOM     15  C   UNL     1      -0.605   0.897  24.316  0.00  0.00    -0.001 A 
ATOM     16  C   UNL     1      -0.385   1.681  24.441  0.00  0.00    +0.016 A 
ATOM     17  C   UNL     1      -0.489   2.026  25.184  0.00  0.00    +0.073 A 
ATOM     25  C   UNL     1      -0.813   1.585  25.802  0.00  0.00    +0.016 A 
ATOM     26  C   UNL     1      -1.034   0.800  25.675  0.00  0.00    -0.001 A 
BRANCH  17  18
ATOM     18  N   UNL     1      -0.268   2.811  25.310  0.00  0.00    -0.179 NA
ATOM     19  C   UNL     1      -0.814   3.417  25.186  0.00  0.00    +0.246 C 
ATOM     20  O   UNL     1      -1.580   3.238  24.938  0.00  0.00    -0.273 OA
BRANCH  19  21
ATOM     21  C   UNL     1      -0.593   4.202  25.312  0.00  0.00    +0.087 C 
BRANCH  21  22
ATOM     22  C   UNL     1      -1.057   4.814  25.010  0.00  0.00    +0.009 C 
ATOM     23  C   UNL     1      -1.796   4.973  25.341  0.00  0.00    +0.001 C 
ATOM     24  C   UNL     1      -0.783   5.267  24.377  0.00  0.00    +0.001 C 
ENDBRANCH  21  22
ENDBRANCH  19  21
ENDBRANCH  17  18
ENDBRANCH   9  14
BRANCH   6   7
ATOM      7  C   UNL     1      -2.507   0.080  24.628  0.00  0.00    +0.205 C 
ATOM      8  O   UNL     1      -2.902   0.243  23.921  0.00  0.00    -0.218 OA
ENDBRANCH   6   7
BRANCH   5   4
ATOM      4  C   UNL     1      -2.948  -1.490  24.377  0.00  0.00    +0.094 C 
BRANCH   4   2
ATOM      1  C   UNL     1      -3.514  -1.855  25.637  0.00  0.00    +0.002 C 
ATOM      2  C   UNL     1      -3.341  -2.038  24.851  0.00  0.00    +0.020 C 
ATOM      3  C   UNL     1      -3.563  -2.770  24.540  0.00  0.00    +0.002 C 
ENDBRANCH   4   2
ENDBRANCH   5   4
TORSDOF 7
ENDMDL
MODEL 3
REMARK VINA RESULT:      -9.6      1.077      5.101
REMARK  Name = 
REMARK  7 active torsions:
REMARK  status: ('A' for Active; 'I' for Inactive)
REMARK    1  A    between atoms: C_2  and  C_4
REMARK    2  A    between atoms: C_4  and  N_5
REMARK    3  A    between atoms: C_6  and  C_7
REMARK    4  A    between atoms: C_9  and  C_14
REMARK    5  A    between atoms: C_17  and  N_18
REMARK    6  A    between atoms: C_19  and  C_21
REMARK    7  A    between atoms: C_21  and  C_22
REMARK                            x       y       z     vdW  Elec       q    Type
REMARK                         _______ _______ _______ _____ _____    ______ ____
ROOT
ATOM      5  N   UNL     1      -3.263  -1.731  24.606  0.00  0.00    -0.274 N 
ATOM      6  C   UNL     1      -3.233  -0.909  24.651  0.00  0.00    +0.140 C 
ATOM      9  C   UNL     1      -3.810  -0.453  24.278  0.00  0.00    +0.159 C 
ATOM     10  O   UNL     1      -4.419  -0.821  23.859  0.00  0.00    -0.341 OA
ATOM     11  C   UNL     1      -4.449  -1.644  23.814  0.00  0.00    +0.227 C 
ATOM     12  C   UNL     1      -3.872  -2.100  24.186  0.00  0.00    +0.256 C 
ATOM     13  O   UNL     1      -3.902  -2.923  24.141  0.00  0.00    -0.272 OA
ENDROOT
BRANCH   9  14
ATOM     14  C   UNL     1      -3.780   0.370  24.324  0.00  0.00    +0.006 A 
ATOM     15  C   UNL     1      -4.228   0.768  24.890  0.00  0.00    -0.001 A 
ATOM     16  C   UNL     1      -4.198   1.591  24.936  0.00  0.00    +0.016 A 
ATOM     17  C   UNL     1      -3.719   2.016  24.415  0.00  0.00    +0.073 A 
ATOM     25  C   UNL     1      -3.271   1.618  23.848  0.00  0.00    +0.016 A 
ATOM     26  C   UNL     1      -3.302   0.794  23.803  0.00  0.00    -0.001 A 
BRANCH  17  18
ATOM     18  N   UNL     1      -3.689   2.840  24.461  0.00  0.00    -0.179 NA
ATOM     19  C   UNL     1      -3.099   3.206  24.905  0.00  0.00    +0.246 C 
ATOM     20  O   UNL     1      -2.539   2.750  25.304  0.00  0.00    -0.273 OA
BRANCH  19  21
ATOM     21  C   UNL     1      -3.069   4.029  24.951  0.00  0.00    +0.087 C 
BRANCH  21  22
ATOM     22  C   UNL     1      -2.554   4.394  25.483  0.00  0.00    +0.009 C 
ATOM     23  C   UNL     1      -2.775   4.489  26.272  0.00  0.00    +0.001 C 
ATOM     24  C   UNL     1      -1.818   4.664  25.225  0.00  0.00    +0.001 C 
ENDBRANCH  21  22
ENDBRANCH  19  21
ENDBRANCH  17  18
ENDBRANCH   9  14
BRANCH   6   7
ATOM      7  C   UNL     1      -2.624  -0.541  25.070  0.00  0.00    +0.205 C 
ATOM      8  O   UNL     1      -2.578  -0.626  25.890  0.00  0.00    -0.218 OA
ENDBRANCH   6   7
BRANCH   5   4
ATOM      4  C   UNL     1      -2.686  -2.188  24.979  0.00  0.00    +0.094 C 
BRANCH   4   2
ATOM      1  C   UNL     1      -2.309  -3.327  24.203  0.00  0.00    +0.002 C 
ATOM      2  C   UNL     1      -2.125  -2.592  24.530  0.00  0.00    +0.020 C 
ATOM      3  C   UNL     1      -1.378  -2.261  24.407  0.00  0.00    +0.002 C 
ENDBRANCH   4   2
ENDBRANCH   5   4
TORSDOF 7
ENDMDL
MODEL 4
REMARK VINA RESULT:      -9.5      1.506      2.160
REMARK  Name = 
REMARK  7 active torsions:
REMARK  status: ('A' for Active; 'I' for Inactive)
REMARK    1  A    between atoms: C_2  and  C_4
REMARK    2  A    between atoms: C_4  and  N_5
REMARK    3  A    between atoms: C_6  and  C_7
REMARK    4  A    between atoms: C_9  and  C_14
REMARK    5  A    between atoms: C_17  and  N_18
REMARK    6  A    between atoms: C_19  and  C_21
REMARK    7  A    between atoms: C_21  and  C_22
REMARK                            x       y       z     vdW  Elec       q    Type
REMARK                         _______ _______ _______ _____ _____    ______ ____
ROOT
ATOM      5  N   UNL     1      -1.228   3.174  24.991  0.00  0.00    -0.274 N 
ATOM      6  C   UNL     1      -1.403   2.373  24.911  0.00  0.00    +0.140 C 
ATOM      9  C   UNL     1      -0.839   1.805  25.112  0.00  0.00    +0.159 C 
ATOM     10  O   UNL     1      -0.098   2.040  25.391  0.00  0.00    -0.341 OA
ATOM     11  C   UNL     1       0.077   2.843  25.471  0.00  0.00    +0.227 C 
ATOM     12  C   UNL     1      -0.487   3.410  25.270  0.00  0.00    +0.256 C 
ATOM     13  O   UNL     1      -0.313   4.212  25.350  0.00  0.00    -0.272 OA
ENDROOT
BRANCH   9  14
ATOM     14  C   UNL     1      -1.014   1.003  25.032  0.00  0.00    +0.006 A 
ATOM     15  C   UNL     1      -0.846   0.612  24.326  0.00  0.00    -0.001 A 
ATOM     16  C   UNL     1      -1.020  -0.190  24.246  0.00  0.00    +0.016 A 
ATOM     17  C   UNL     1      -1.364  -0.602  24.874  0.00  0.00    +0.073 A 
ATOM     25  C   UNL     1      -1.532  -0.211  25.580  0.00  0.00    +0.016 A 
ATOM     26  C   UNL     1      -1.356   0.592  25.659  0.00  0.00    -0.001 A 
BRANCH  17  18
ATOM     18  N   UNL     1      -1.539  -1.405  24.794  0.00  0.00    -0.179 NA
ATOM     19  C   UNL     1      -2.297  -1.640  24.570  0.00  0.00    +0.246 C 
ATOM     20  O   UNL     1      -2.880  -1.075  24.425  0.00  0.00    -0.273 OA
BRANCH  19  21
ATOM     21  C   UNL     1      -2.471  -2.443  24.490  0.00  0.00    +0.087 C 
BRANCH  21  22
ATOM     22  C   UNL     1      -3.249  -2.706  24.577  0.00  0.00    +0.009 C 
ATOM     23  C   UNL     1      -3.537  -2.901  25.325  0.00  0.00    +0.001 C 
ATOM     24  C   UNL     1      -3.738  -2.773  23.916  0.00  0.00    +0.001 C 
ENDBRANCH  21  22
ENDBRANCH  19  21
ENDBRANCH  17  18
ENDBRANCH   9  14
BRANCH   6   7
ATOM      7  C   UNL     1      -2.143   2.138  24.632  0.00  0.00    +0.205 C 
ATOM      8  O   UNL     1      -2.369   2.319  23.859  0.00  0.00    -0.218 OA
ENDBRANCH   6   7
BRANCH   5   4
ATOM      4  C   UNL     1      -1.792   3.742  24.790  0.00  0.00    +0.094 C 
BRANCH   4   2
ATOM      1  C   UNL     1      -2.500   4.127  25.970  0.00  0.00    +0.002 C 
ATOM      2  C   UNL     1      -2.008   4.320  25.337  0.00  0.00    +0.020 C 
ATOM      3  C   UNL     1      -1.731   5.094  25.251  0.00  0.00    +0.002 C 
ENDBRANCH   4   2
ENDBRANCH   5   4
TORSDOF 7
ENDMDL
