MODEL 1
REMARK VINA RESULT:     -10.0      0.000      0.000
REMARK  Name = 
REMARK  5 active torsions:
REMARK  status: ('A' for Active; 'I' for Inactive)
REMARK    1  A    between atoms: C_2  and  C_4
REMARK    2  A    between atoms: C_6  and  C_7
REMARK    3  A    between atoms: C_7  and  C_8
REMARK    4  A    between atoms: C_17  and  C_18
REMARK    5  A    between atoms: C_18  and  N_19
REMARK                            x       y       z     vdW  Elec       q    Type
REMARK                         _______ _______ _______ _____ _____    ______ ____
ROOT
ATOM      4  C   UNL     1      -3.573   2.932  25.004  0.00  0.00    +0.006 C 
ATOM      5  C   UNL     1      -2.998   3.426  25.329  0.00  0.00    +0.005 C 
ATOM      6  C   UNL     1      -2.257   3.122  25.527  0.00  0.00    +0.027 C 
ATOM     14  C   UNL     1      -2.091   2.324  25.400  0.00  0.00    -0.048 C 
ATOM     15  C   UNL     1      -1.351   2.019  25.597  0.00  0.00    +0.026 C 
ATOM     16  C   UNL     1      -2.667   1.829  25.074  0.00  0.00    -0.034 C 
ATOM     17  C   UNL     1      -3.408   2.134  24.877  0.00  0.00    +0.037 C 
ENDROOT
BRANCH   4   2
ATOM      1  C   UNL     1      -4.904   3.293  25.380  0.00  0.00    +0.000 C 
ATOM      2  C   UNL     1      -4.314   3.236  24.807  0.00  0.00    +0.000 C 
ATOM      3  C   UNL     1      -4.465   3.484  24.033  0.00  0.00    +0.000 C 
ENDBRANCH   4   2
BRANCH   6   7
ATOM      7  C   UNL     1      -1.682   3.615  25.852  0.00  0.00    +0.091 C 
BRANCH   7   8
ATOM      8  C   UNL     1      -1.438   4.290  25.443  0.00  0.00    +0.226 A 
ATOM      9  N   UNL     1      -1.737   5.052  25.543  0.00  0.00    -0.112 NA
ATOM     10  N   UNL     1      -1.336   5.553  25.025  0.00  0.00    -0.112 NA
ATOM     11  C   UNL     1      -0.789   5.100  24.605  0.00  0.00    +0.227 A 
ATOM     12  C   UNL     1      -0.270   5.379  24.027  0.00  0.00    +0.097 C 
ATOM     13  O   UNL     1      -0.852   4.319  24.864  0.00  0.00    -0.423 OA
ENDBRANCH   7   8
ENDBRANCH   6   7
BRANCH  17  18
ATOM     18  C   UNL     1      -3.983   1.640  24.552  0.00  0.00    +0.076 C 
BRANCH  18  19
ATOM     19  N   UNL     1      -3.877   0.823  24.560  0.00  0.00    -0.269 NA
ATOM     20  C   UNL     1      -4.029   0.394  25.249  0.00  0.00    +0.094 C 
ATOM     21  C   UNL     1      -3.923  -0.424  25.257  0.00  0.00    +0.111 C 
ATOM     22  N   UNL     1      -3.665  -0.813  24.577  0.00  0.00    -0.275 N 
ATOM     23  C   UNL     1      -3.513  -0.385  23.889  0.00  0.00    +0.111 C 
ATOM     24  C   UNL     1      -3.618   0.433  23.881  0.00  0.00    +0.094 C 
ATOM     25  C   UNL     1      -3.559  -1.632  24.585  0.00  0.00    +0.220 A 
ATOM     26  N   UNL     1      -3.711  -2.061  25.274  0.00  0.00    -0.212 NA
ATOM     27  C   UNL     1      -3.605  -2.879  25.282  0.00  0.00    +0.103 A 
ATOM     28  C   UNL     1      -3.347  -3.269  24.602  0.00  0.00    +0.041 A 
ATOM     29  C   UNL     1      -3.195  -2.840  23.914  0.00  0.00    +0.103 A 
ATOM     30  N   UNL     1      -3.301  -2.021  23.906  0.00  0.00    -0.212 NA
ENDBRANCH  18  19
ENDBRANCH  17  18
TORSDOF 5
ENDMDL
MODEL 2
REMARK VINA RESULT:      -9.8      2.836      4.505
REMARK  Name = 
REMARK  5 active torsions:
REMARK  status: ('A' for Active; 'I' for Inactive)
REMARK    1  A    between atoms: C_2  and  C_4
REMARK    2  A    between atoms: C_6  and  C_7
REMARK    3  A    between atoms: C_7  and  C_8
REMARK    4  A    between atoms: C_17  and  C_18
REMARK    5  A    between atoms: C_18  and  N_19
REMARK                            x       y       z     vdW  Elec       q    Type
REMARK                         _______ _______ _______ _____ _____    ______ ____
ROOT
ATOM      4  C   UNL     1      -3.279  -0.160  24.853  0.00  0.00    +0.006 C 
ATOM      5  C   UNL     1      -3.932   0.304  24.661  0.00  0.00    +0.005 C 
ATOM      6  C   UNL     1      -3.834   0.987  24.208  0.00  0.00    +0.027 C 
ATOM     14  C   UNL     1      -3.082   1.205  23.948  0.00  0.00    -0.048 C 
ATOM     15  C   UNL     1      -2.983   1.888  23.496  0.00  0.00    +0.026 C 
ATOM     16  C   UNL     1      -2.428   0.740  24.141  0.00  0.00    -0.034 C 
ATOM     17  C   UNL     1      -2.527   0.057  24.593  0.00  0.00    +0.037 C 
ENDROOT
BRANCH   4   2
ATOM      1  C   UNL     1      -3.617  -1.546  24.946  0.00  0.00    +0.000 C 
ATOM      2  C   UNL     1      -3.377  -0.843  25.305  0.00  0.00    +0.000 C 
ATOM      3  C   UNL     1      -3.236  -0.823  26.119  0.00  0.00    +0.000 C 
ENDBRANCH   4   2
BRANCH   6   7
ATOM      7  C   UNL     1      -4.487   1.452  24.016  0.00  0.00    +0.091 C 
BRANCH   7   8
ATOM      8  C   UNL     1      -4.950   1.783  24.615  0.00  0.00    +0.226 A 
ATOM      9  N   UNL     1      -5.675   1.496  24.881  0.00  0.00    -0.112 NA
ATOM     10  N   UNL     1      -5.941   1.995  25.483  0.00  0.00    -0.112 NA
ATOM     11  C   UNL     1      -5.379   2.589  25.587  0.00  0.00    +0.227 A 
ATOM     12  C   UNL     1      -5.421   3.207  26.133  0.00  0.00    +0.097 C 
ATOM     13  O   UNL     1      -4.766   2.458  25.050  0.00  0.00    -0.423 OA
ENDBRANCH   7   8
ENDBRANCH   6   7
BRANCH  17  18
ATOM     18  C   UNL     1      -1.873  -0.407  24.786  0.00  0.00    +0.076 C 
BRANCH  18  19
ATOM     19  N   UNL     1      -1.150  -0.277  24.412  0.00  0.00    -0.269 NA
ATOM     20  C   UNL     1      -0.643   0.313  24.687  0.00  0.00    +0.094 C 
ATOM     21  C   UNL     1       0.080   0.443  24.313  0.00  0.00    +0.111 C 
ATOM     22  N   UNL     1       0.297  -0.017  23.663  0.00  0.00    -0.275 N 
ATOM     23  C   UNL     1      -0.209  -0.606  23.388  0.00  0.00    +0.111 C 
ATOM     24  C   UNL     1      -0.933  -0.736  23.762  0.00  0.00    +0.094 C 
ATOM     25  C   UNL     1       1.021   0.114  23.288  0.00  0.00    +0.220 A 
ATOM     26  N   UNL     1       1.528   0.704  23.564  0.00  0.00    -0.212 NA
ATOM     27  C   UNL     1       2.251   0.834  23.190  0.00  0.00    +0.103 A 
ATOM     28  C   UNL     1       2.468   0.374  22.540  0.00  0.00    +0.041 A 
ATOM     29  C   UNL     1       1.961  -0.215  22.265  0.00  0.00    +0.103 A 
ATOM     30  N   UNL     1       1.238  -0.346  22.639  0.00  0.00    -0.212 NA
ENDBRANCH  18  19
ENDBRANCH  17  18
TORSDOF 5
ENDMDL
MODEL 3
REMARK VINA RESULT:      -9.2      2.387      3.498
REMARK  Name = 
REMARK  5 active torsions:
REMARK  status: ('A' for Active; 'I' for Inactive)
REMARK    1  A    between atoms: C_2  and  C_4
REMARK    2  A    between atoms: C_6  and  C_7
REMARK    3  A    between atoms: C_7  and  C_8
REMARK    4  A    between atoms: C_17  and  C_18
REMARK    5  A    between atoms: C_18  and  N_19
REMARK                            x       y       z     vdW  Elec       q    Type
REMARK                         _______ _______ _______ _____ _____    ______ ____
ROOT
ATOM      4  C   UNL     1      -2.372   3.638  24.955  0.00  0.00    +0.006 C 
ATOM      5  C   UNL     1      -3.157   3.867  24.850  0.00  0.00    +0.005 C 
ATOM      6  C   UNL     1      -3.648   3.440  24.342  0.00  0.00    +0.027 C 
ATOM     14  C   UNL     1      -3.352   2.783  23.939  0.00  0.00    -0.048 C 
ATOM     15  C   UNL     1      -3.842   2.356  23.432  0.00  0.00    +0.026 C 
ATOM     16  C   UNL     1      -2.566   2.554  24.044  0.00  0.00    -0.034 C 
ATOM     17  C   UNL     1      -2.077   2.982  24.552  0.00  0.00    +0.037 C 
ENDROOT
BRANCH   4   2
ATOM      1  C   UNL     1      -1.909   3.928  26.275  0.00  0.00    +0.000 C 
ATOM      2  C   UNL     1      -1.883   4.065  25.462  0.00  0.00    +0.000 C 
ATOM      3  C   UNL     1      -1.365   4.632  25.157  0.00  0.00    +0.000 C 
ENDBRANCH   4   2
BRANCH   6   7
ATOM      7  C   UNL     1      -4.433   3.669  24.237  0.00  0.00    +0.091 C 
BRANCH   7   8
ATOM      8  C   UNL     1      -4.978   3.568  24.850  0.00  0.00    +0.226 A 
ATOM      9  N   UNL     1      -5.314   4.170  25.302  0.00  0.00    -0.112 NA
ATOM     10  N   UNL     1      -5.826   3.821  25.849  0.00  0.00    -0.112 NA
ATOM     11  C   UNL     1      -5.804   3.005  25.733  0.00  0.00    +0.227 A 
ATOM     12  C   UNL     1      -6.232   2.443  26.160  0.00  0.00    +0.097 C 
ATOM     13  O   UNL     1      -5.280   2.848  25.115  0.00  0.00    -0.423 OA
ENDBRANCH   7   8
ENDBRANCH   6   7
BRANCH  17  18
ATOM     18  C   UNL     1      -1.291   2.753  24.657  0.00  0.00    +0.076 C 
BRANCH  18  19
ATOM     19  N   UNL     1      -1.096   1.953  24.686  0.00  0.00    -0.269 NA
ATOM     20  C   UNL     1      -0.726   1.594  24.040  0.00  0.00    +0.094 C 
ATOM     21  C   UNL     1      -0.530   0.793  24.070  0.00  0.00    +0.111 C 
ATOM     22  N   UNL     1      -0.704   0.351  24.744  0.00  0.00    -0.275 N 
ATOM     23  C   UNL     1      -1.073   0.708  25.389  0.00  0.00    +0.111 C 
ATOM     24  C   UNL     1      -1.269   1.509  25.359  0.00  0.00    +0.094 C 
ATOM     25  C   UNL     1      -0.507  -0.451  24.773  0.00  0.00    +0.220 A 
ATOM     26  N   UNL     1      -0.138  -0.808  24.128  0.00  0.00    -0.212 NA
ATOM     27  C   UNL     1       0.058  -1.609  24.157  0.00  0.00    +0.103 A 
ATOM     28  C   UNL     1      -0.115  -2.053  24.832  0.00  0.00    +0.041 A 
ATOM     29  C   UNL     1      -0.485  -1.694  25.476  0.00  0.00    +0.103 A 
ATOM     30  N   UNL     1      -0.681  -0.893  25.447  0.00  0.00    -0.212 NA
ENDBRANCH  18  19
ENDBRANCH  17  18
TORSDOF 5
ENDMDL
MODEL 4
REMARK VINA RESULT:      -9.1      1.995      5.955
REMARK  Name = 
REMARK  5 active torsions:
REMARK  status: ('A' for Active; 'I' for Inactive)
REMARK    1  A    between atoms: C_2  and  C_4
REMARK    2  A    between atoms: C_6  and  C_7
REMARK    3  A    between atoms: C_7  and  C_8
REMARK    4  A    between atoms: C_17  and  C_18
REMARK    5  A    between atoms: C_18  and  N_19
REMARK                            x       y       z     vdW  Elec       q    Type
REMARK                         _______ _______ _______ _____ _____    ______ ____
ROOT
ATOM      4  C   UNL     1      -1.842  -0.459  25.348  0.00  0.00    +0.006 C 
ATOM      5  C   UNL     1      -2.556  -0.864  25.279  0.00  0.00    +0.005 C 
ATOM      6  C   UNL     1      -3.241  -0.460  25.056  0.00  0.00    +0.027 C 
ATOM     14  C   UNL     1      -3.209   0.349  24.902  0.00  0.00    -0.048 C 
ATOM     15  C   UNL     1      -3.892   0.754  24.679  0.00  0.00    +0.026 C 
ATOM     16  C   UNL     1      -2.493   0.755  24.970  0.00  0.00    -0.034 C 
ATOM     17  C   UNL     1      -1.810   0.350  25.193  0.00  0.00    +0.037 C 
ENDROOT
BRANCH   4   2
ATOM      1  C   UNL     1      -0.658  -1.178  24.995  0.00  0.00    +0.000 C 
ATOM      2  C   UNL     1      -1.158  -0.863  25.570  0.00  0.00    +0.000 C 
ATOM      3  C   UNL     1      -0.975  -0.954  26.371  0.00  0.00    +0.000 C 
ENDBRANCH   4   2
BRANCH   6   7
ATOM      7  C   UNL     1      -3.955  -0.865  24.988  0.00  0.00    +0.091 C 
BRANCH   7   8
ATOM      8  C   UNL     1      -4.000  -1.549  24.527  0.00  0.00    +0.226 A 
ATOM      9  N   UNL     1      -4.225  -1.583  23.733  0.00  0.00    -0.112 NA
ATOM     10  N   UNL     1      -4.192  -2.372  23.494  0.00  0.00    -0.112 NA
ATOM     11  C   UNL     1      -3.948  -2.824  24.140  0.00  0.00    +0.227 A 
ATOM     12  C   UNL     1      -3.841  -3.642  24.146  0.00  0.00    +0.097 C 
ATOM     13  O   UNL     1      -3.829  -2.315  24.778  0.00  0.00    -0.423 OA
ENDBRANCH   7   8
ENDBRANCH   6   7
BRANCH  17  18
ATOM     18  C   UNL     1      -1.095   0.756  25.261  0.00  0.00    +0.076 C 
BRANCH  18  19
ATOM     19  N   UNL     1      -1.073   1.573  25.157  0.00  0.00    -0.269 NA
ATOM     20  C   UNL     1      -0.719   1.894  24.484  0.00  0.00    +0.094 C 
ATOM     21  C   UNL     1      -0.696   2.713  24.380  0.00  0.00    +0.111 C 
ATOM     22  N   UNL     1      -1.028   3.209  24.949  0.00  0.00    -0.275 N 
ATOM     23  C   UNL     1      -1.382   2.889  25.621  0.00  0.00    +0.111 C 
ATOM     24  C   UNL     1      -1.404   2.071  25.725  0.00  0.00    +0.094 C 
ATOM     25  C   UNL     1      -1.006   4.028  24.845  0.00  0.00    +0.220 A 
ATOM     26  N   UNL     1      -0.652   4.349  24.172  0.00  0.00    -0.212 NA
ATOM     27  C   UNL     1      -0.630   5.167  24.068  0.00  0.00    +0.103 A 
ATOM     28  C   UNL     1      -0.962   5.665  24.637  0.00  0.00    +0.041 A 
ATOM     29  C   UNL     1      -1.316   5.343  25.309  0.00  0.00    +0.103 A 
ATOM     30  N   UNL     1      -1.338   4.525  25.413  0.00  0.00    -0.212 NA
ENDBRANCH  18  19
ENDBRANCH  17  18
TORSDOF 5
ENDMDL
