MODEL 1
REMARK VINA RESULT:     -12.6      0.000      0.000
REMARK  Name = 
REMARK  3 active torsions:
REMARK  status: ('A' for Active; 'I' for Inactive)
REMARK    1  A    between atoms: C_7  and  C_9
REMARK    2  A    between atoms: N_12  and  C_13
REMARK    3  A    between atoms: C_13  and  C_14
REMARK                            x       y       z     vdW  Elec       q    Type
REMARK                         _______ _______ _______ _____ _____    ______ ____
ROOT
ATOM      9  C   UNL     1      -4.458   1.084  24.865  0.00  0.00    +0.094 C 
ATOM     10  C   UNL     1      -5.109   1.400  25.260  0.00  0.00    +0.028 C 
ATOM     11  C   UNL     1      -5.068   2.222  25.205  0.00  0.00    +0.073 C 
ATOM     12  N   UNL     1      -4.391   2.414  24.775  0.00  0.00    -0.268 NA
ATOM     20  C   UNL     1      -4.014   1.711  24.565  0.00  0.00    +0.082 C 
ENDROOT
BRANCH   9   7
ATOM      1 CL   UNL     1      -3.215  -3.036  25.201  0.00  0.00    -0.082 Cl
ATOM      2  C   UNL     1      -3.536  -2.342  24.895  0.00  0.00    +0.059 A 
ATOM      3  C   UNL     1      -3.520  -1.648  25.342  0.00  0.00    +0.034 A 
ATOM      4  C   UNL     1      -3.842  -0.953  25.036  0.00  0.00    +0.119 A 
ATOM      5  C   UNL     1      -4.179  -0.951  24.283  0.00  0.00    +0.164 A 
ATOM      6  O   UNL     1      -4.451  -0.188  24.128  0.00  0.00    -0.438 OA
ATOM      7  C   UNL     1      -4.282   0.282  24.784  0.00  0.00    +0.207 A 
ATOM      8  N   UNL     1      -3.905  -0.191  25.345  0.00  0.00    -0.212 NA
ATOM     21  C   UNL     1      -4.196  -1.645  23.836  0.00  0.00    +0.040 A 
ATOM     22  C   UNL     1      -3.874  -2.340  24.143  0.00  0.00    +0.015 A 
ENDBRANCH   9   7
BRANCH  12  13
ATOM     13  C   UNL     1      -4.135   3.175  24.588  0.00  0.00    +0.099 C 
BRANCH  13  14
ATOM     14  C   UNL     1      -3.504   3.512  24.999  0.00  0.00    -0.006 A 
ATOM     15  C   UNL     1      -3.628   3.852  25.741  0.00  0.00    -0.003 A 
ATOM     16  C   UNL     1      -2.997   4.188  26.151  0.00  0.00    -0.000 A 
ATOM     17  C   UNL     1      -2.241   4.185  25.821  0.00  0.00    -0.000 A 
ATOM     18  C   UNL     1      -2.116   3.845  25.079  0.00  0.00    -0.000 A 
ATOM     19  C   UNL     1      -2.748   3.508  24.668  0.00  0.00    -0.003 A 
ENDBRANCH  13  14
ENDBRANCH  12  13
TORSDOF 3
ENDMDL
MODEL 2
REMARK VINA RESULT:     -12.3      2.146      5.025
REMARK  Name = 
REMARK  3 active torsions:
REMARK  status: ('A' for Active; 'I' for Inactive)
REMARK    1  A    between atoms: C_7  and  C_9
REMARK    2  A    between atoms: N_12  and  C_13
REMARK    3  A    between atoms: C_13  and  C_14
REMARK                            x       y       z     vdW  Elec       q    Type
REMARK                         _______ _______ _______ _____ _____    ______ ____
ROOT
ATOM      9  C   UNL     1      -3.225   1.516  24.374  0.00  0.00    +0.094 C 
ATOM     10  C   UNL     1      -3.214   1.183  23.619  0.00  0.00    +0.028 C 
ATOM     11  C   UNL     1      -3.639   0.476  23.645  0.00  0.00    +0.073 C 
ATOM     12  N   UNL     1      -3.912   0.372  24.417  0.00  0.00    -0.268 NA
ATOM     20  C   UNL     1      -3.656   1.014  24.867  0.00  0.00    +0.082 C 
ENDROOT
BRANCH   9   7
ATOM      1 CL   UNL     1      -0.714   4.954  25.085  0.00  0.00    -0.082 Cl
ATOM      2  C   UNL     1      -1.360   4.442  25.108  0.00  0.00    +0.059 A 
ATOM      3  C   UNL     1      -1.334   3.727  24.700  0.00  0.00    +0.034 A 
ATOM      4  C   UNL     1      -1.980   3.214  24.723  0.00  0.00    +0.119 A 
ATOM      5  C   UNL     1      -2.652   3.417  25.155  0.00  0.00    +0.164 A 
ATOM      6  O   UNL     1      -3.200   2.806  25.077  0.00  0.00    -0.438 OA
ATOM      7  C   UNL     1      -2.867   2.225  24.597  0.00  0.00    +0.207 A 
ATOM      8  N   UNL     1      -2.113   2.477  24.378  0.00  0.00    -0.212 NA
ATOM     21  C   UNL     1      -2.679   4.134  25.564  0.00  0.00    +0.040 A 
ATOM     22  C   UNL     1      -2.032   4.646  25.541  0.00  0.00    +0.015 A 
ENDBRANCH   9   7
BRANCH  12  13
ATOM     13  C   UNL     1      -4.362  -0.263  24.690  0.00  0.00    +0.099 C 
BRANCH  13  14
ATOM     14  C   UNL     1      -4.035  -1.021  24.716  0.00  0.00    -0.006 A 
ATOM     15  C   UNL     1      -3.593  -1.258  25.372  0.00  0.00    -0.003 A 
ATOM     16  C   UNL     1      -3.267  -2.014  25.397  0.00  0.00    -0.000 A 
ATOM     17  C   UNL     1      -3.381  -2.535  24.768  0.00  0.00    -0.000 A 
ATOM     18  C   UNL     1      -3.822  -2.298  24.112  0.00  0.00    -0.000 A 
ATOM     19  C   UNL     1      -4.149  -1.541  24.086  0.00  0.00    -0.003 A 
ENDBRANCH  13  14
ENDBRANCH  12  13
TORSDOF 3
ENDMDL
MODEL 3
REMARK VINA RESULT:     -11.8      1.754      2.269
REMARK  Name = 
REMARK  3 active torsions:
REMARK  status: ('A' for Active; 'I' for Inactive)
REMARK    1  A    between atoms: C_7  and  C_9
REMARK    2  A    between atoms: N_12  and  C_13
REMARK    3  A    between atoms: C_13  and  C_14
REMARK                            x       y       z     vdW  Elec       q    Type
REMARK                         _______ _______ _______ _____ _____    ______ ____
ROOT
ATOM      9  C   UNL     1      -1.618   0.868  24.790  0.00  0.00    +0.094 C 
ATOM     10  C   UNL     1      -0.956   1.042  24.330  0.00  0.00    +0.028 C 
ATOM     11  C   UNL     1      -0.590   1.709  24.650  0.00  0.00    +0.073 C 
ATOM     12  N   UNL     1      -1.027   1.947  25.309  0.00  0.00    -0.268 NA
ATOM     20  C   UNL     1      -1.662   1.426  25.395  0.00  0.00    +0.082 C 
ENDROOT
BRANCH   9   7
ATOM      1 CL   UNL     1      -3.751  -2.868  24.434  0.00  0.00    -0.082 Cl
ATOM      2  C   UNL     1      -3.579  -2.063  24.402  0.00  0.00    +0.059 A 
ATOM      3  C   UNL     1      -2.842  -1.788  24.648  0.00  0.00    +0.034 A 
ATOM      4  C   UNL     1      -2.669  -0.982  24.616  0.00  0.00    +0.119 A 
ATOM      5  C   UNL     1      -3.234  -0.450  24.336  0.00  0.00    +0.164 A 
ATOM      6  O   UNL     1      -2.909   0.307  24.367  0.00  0.00    -0.438 OA
ATOM      7  C   UNL     1      -2.143   0.244  24.666  0.00  0.00    +0.207 A 
ATOM      8  N   UNL     1      -1.995  -0.553  24.819  0.00  0.00    -0.212 NA
ATOM     21  C   UNL     1      -3.972  -0.725  24.089  0.00  0.00    +0.040 A 
ATOM     22  C   UNL     1      -4.144  -1.531  24.122  0.00  0.00    +0.015 A 
ENDBRANCH   9   7
BRANCH  12  13
ATOM     13  C   UNL     1      -0.859   2.591  25.796  0.00  0.00    +0.099 C 
BRANCH  13  14
ATOM     14  C   UNL     1      -1.142   3.341  25.601  0.00  0.00    -0.006 A 
ATOM     15  C   UNL     1      -1.893   3.576  25.850  0.00  0.00    -0.003 A 
ATOM     16  C   UNL     1      -2.175   4.326  25.655  0.00  0.00    -0.000 A 
ATOM     17  C   UNL     1      -1.708   4.841  25.212  0.00  0.00    -0.000 A 
ATOM     18  C   UNL     1      -0.957   4.606  24.962  0.00  0.00    -0.000 A 
ATOM     19  C   UNL     1      -0.674   3.855  25.157  0.00  0.00    -0.003 A 
ENDBRANCH  13  14
ENDBRANCH  12  13
TORSDOF 3
ENDMDL
