MODEL 1
REMARK VINA RESULT:     -10.3      0.000      0.000
REMARK  Name = 
REMARK  9 active torsions:
REMARK  status: ('A' for Active; 'I' for Inactive)
REMARK    1  A    between atoms: C_5  and  S_7
REMARK    2  A    between atoms: S_7  and  N_10
REMARK    3  A    between atoms: N_10  and  C_11
REMARK    4  A    between atoms: C_15  and  C_17
REMARK    5  A    between atoms: N_19  and  C_20
REMARK    6  A    between atoms: C_20  and  C_21
REMARK    7  A    between atoms: C_20  and  C_31
REMARK    8  A    between atoms: C_21  and  C_22
REMARK    9  A    between atoms: C_34  and  C_36
REMARK                            x       y       z     vdW  Elec       q    Type
REMARK                         _______ _______ _______ _____ _____    ______ ____
ROOT
ATOM     11  C   UNL     1      -0.652   0.161  24.432  0.00  0.00    +0.102 C 
ATOM     12  C   UNL     1      -0.861  -0.583  24.720  0.00  0.00    +0.041 C 
ATOM     13  C   UNL     1      -1.645  -0.836  24.680  0.00  0.00    +0.096 C 
ATOM     14  N   UNL     1      -2.221  -0.346  24.352  0.00  0.00    -0.268 N 
ATOM     15  C   UNL     1      -2.013   0.399  24.063  0.00  0.00    +0.155 C 
ATOM     16  C   UNL     1      -1.229   0.652  24.103  0.00  0.00    +0.049 C 
ATOM     34  C   UNL     1      -3.005  -0.599  24.312  0.00  0.00    +0.267 C 
ATOM     35  O   UNL     1      -3.581  -0.107  23.983  0.00  0.00    -0.268 OA
ENDROOT
BRANCH  34  36
ATOM     36  C   UNL     1      -3.213  -1.343  24.600  0.00  0.00    +0.133 A 
ATOM     37  C   UNL     1      -3.085  -2.064  24.219  0.00  0.00    +0.040 A 
ATOM     38  C   UNL     1      -3.379  -2.664  24.703  0.00  0.00    +0.081 A 
ATOM     39  C   UNL     1      -3.365  -3.472  24.537  0.00  0.00    +0.054 C 
ATOM     40  N   UNL     1      -3.688  -2.313  25.383  0.00  0.00    -0.173 NA
ATOM     41  N   UNL     1      -3.586  -1.498  25.319  0.00  0.00    -0.245 N 
ATOM     42  C   UNL     1      -3.816  -0.935  25.877  0.00  0.00    +0.154 C 
ENDBRANCH  34  36
BRANCH  15  17
ATOM     17  C   UNL     1      -2.589   0.890  23.735  0.00  0.00    +0.260 C 
ATOM     18  O   UNL     1      -3.068   0.612  23.124  0.00  0.00    -0.272 OA
ATOM     19  N   UNL     1      -2.686   1.659  24.019  0.00  0.00    -0.196 NA
BRANCH  19  20
ATOM     20  C   UNL     1      -3.262   2.150  23.691  0.00  0.00    +0.179 C 
BRANCH  20  31
ATOM     31  C   UNL     1      -3.067   2.655  23.068  0.00  0.00    +0.281 C 
ATOM     32  N   UNL     1      -2.367   3.092  23.097  0.00  0.00    -0.086 NA
ATOM     33  O   UNL     1      -3.569   2.722  22.418  0.00  0.00    -0.270 OA
ENDBRANCH  20  31
BRANCH  20  21
ATOM     21  C   UNL     1      -4.033   2.136  23.985  0.00  0.00    +0.059 C 
BRANCH  21  22
ATOM     22  C   UNL     1      -4.231   2.590  24.644  0.00  0.00    +0.001 A 
ATOM     23  C   UNL     1      -3.767   3.183  24.982  0.00  0.00    +0.095 A 
ATOM     24  N   UNL     1      -4.178   3.490  25.628  0.00  0.00    -0.244 NA
ATOM     25  C   UNL     1      -4.895   3.088  25.689  0.00  0.00    +0.081 A 
ATOM     26  C   UNL     1      -4.928   2.531  25.081  0.00  0.00    +0.015 A 
ATOM     27  C   UNL     1      -5.589   2.044  25.004  0.00  0.00    +0.001 A 
ATOM     28  C   UNL     1      -6.216   2.112  25.535  0.00  0.00    +0.000 A 
ATOM     29  C   UNL     1      -6.183   2.668  26.143  0.00  0.00    +0.002 A 
ATOM     30  C   UNL     1      -5.523   3.156  26.221  0.00  0.00    +0.019 A 
ENDBRANCH  21  22
ENDBRANCH  20  21
ENDBRANCH  19  20
ENDBRANCH  15  17
BRANCH  11  10
ATOM     10  N   UNL     1       0.132   0.415  24.471  0.00  0.00    -0.078 NA
BRANCH  10   7
ATOM      7  S   UNL     1       0.643   0.274  23.839  0.00  0.00    +0.095 S 
ATOM      8  O   UNL     1       0.634   1.079  23.653  0.00  0.00    -0.150 OA
ATOM      9  O   UNL     1       0.651  -0.530  24.024  0.00  0.00    -0.150 OA
BRANCH   7   5
ATOM      1  C   UNL     1       3.025   0.184  22.180  0.00  0.00    +0.132 C 
ATOM      2  N   UNL     1       2.249   0.093  22.444  0.00  0.00    -0.305 N 
ATOM      3  C   UNL     1       1.630  -0.255  22.022  0.00  0.00    +0.180 A 
ATOM      4  N   UNL     1       0.954  -0.230  22.493  0.00  0.00    -0.204 NA
ATOM      5  C   UNL     1       1.153   0.134  23.207  0.00  0.00    +0.223 A 
ATOM      6  C   UNL     1       1.954   0.333  23.176  0.00  0.00    +0.117 A 
ENDBRANCH   7   5
ENDBRANCH  10   7
ENDBRANCH  11  10
TORSDOF 9
ENDMDL
MODEL 2
REMARK VINA RESULT:     -10.1      1.500      3.850
REMARK  Name = 
REMARK  9 active torsions:
REMARK  status: ('A' for Active; 'I' for Inactive)
REMARK    1  A    between atoms: C_5  and  S_7
REMARK    2  A    between atoms: S_7  and  N_10
REMARK    3  A    between atoms: N_10  and  C_11
REMARK    4  A    between atoms: C_15  and  C_17
REMARK    5  A    between atoms: N_19  and  C_20
REMARK    6  A    between atoms: C_20  and  C_21
REMARK    7  A    between atoms: C_20  and  C_31
REMARK    8  A    between atoms: C_21  and  C_22
REMARK    9  A    between atoms: C_34  and  C_36
REMARK                            x       y       z     vdW  Elec       q    Type
REMARK                         _______ _______ _______ _____ _____    ______ ____
ROOT
ATOM     11  C   UNL     1      -1.901  -0.274  25.366  0.00  0.00    +0.102 C 
ATOM     12  C   UNL     1      -1.140  -0.458  25.106  0.00  0.00    +0.041 C 
ATOM     13  C   UNL     1      -0.701   0.101  24.686  0.00  0.00    +0.096 C 
ATOM     14  N   UNL     1      -1.023   0.842  24.525  0.00  0.00    -0.268 N 
ATOM     15  C   UNL     1      -1.785   1.027  24.784  0.00  0.00    +0.155 C 
ATOM     16  C   UNL     1      -2.224   0.469  25.205  0.00  0.00    +0.049 C 
ATOM     34  C   UNL     1      -0.585   1.401  24.104  0.00  0.00    +0.267 C 
ATOM     35  O   UNL     1      -0.908   2.143  23.943  0.00  0.00    -0.268 OA
ENDROOT
BRANCH  34  36
ATOM     36  C   UNL     1       0.176   1.217  23.845  0.00  0.00    +0.133 A 
ATOM     37  C   UNL     1       0.378   0.602  23.333  0.00  0.00    +0.040 A 
ATOM     38  C   UNL     1       1.196   0.620  23.223  0.00  0.00    +0.081 A 
ATOM     39  C   UNL     1       1.634   0.103  22.752  0.00  0.00    +0.054 C 
ATOM     40  N   UNL     1       1.499   1.247  23.667  0.00  0.00    -0.173 NA
ATOM     41  N   UNL     1       0.868   1.615  24.051  0.00  0.00    -0.245 N 
ATOM     42  C   UNL     1       0.921   2.267  24.554  0.00  0.00    +0.154 C 
ENDBRANCH  34  36
BRANCH  15  17
ATOM     17  C   UNL     1      -2.107   1.769  24.623  0.00  0.00    +0.260 C 
ATOM     18  O   UNL     1      -2.084   2.071  23.856  0.00  0.00    -0.272 OA
ATOM     19  N   UNL     1      -2.453   2.210  25.229  0.00  0.00    -0.196 NA
BRANCH  19  20
ATOM     20  C   UNL     1      -2.775   2.951  25.068  0.00  0.00    +0.179 C 
BRANCH  20  31
ATOM     31  C   UNL     1      -2.339   3.634  25.230  0.00  0.00    +0.281 C 
ATOM     32  N   UNL     1      -2.283   4.230  24.662  0.00  0.00    -0.086 NA
ATOM     33  O   UNL     1      -1.960   3.719  25.957  0.00  0.00    -0.270 OA
ENDBRANCH  20  31
BRANCH  20  21
ATOM     21  C   UNL     1      -3.532   3.012  24.746  0.00  0.00    +0.059 C 
BRANCH  21  22
ATOM     22  C   UNL     1      -4.190   3.042  25.241  0.00  0.00    +0.001 A 
ATOM     23  C   UNL     1      -4.262   3.499  25.925  0.00  0.00    +0.095 A 
ATOM     24  N   UNL     1      -5.009   3.360  26.247  0.00  0.00    -0.244 NA
ATOM     25  C   UNL     1      -5.398   2.818  25.763  0.00  0.00    +0.081 A 
ATOM     26  C   UNL     1      -4.892   2.622  25.141  0.00  0.00    +0.015 A 
ATOM     27  C   UNL     1      -5.137   2.085  24.564  0.00  0.00    +0.001 A 
ATOM     28  C   UNL     1      -5.887   1.745  24.608  0.00  0.00    +0.000 A 
ATOM     29  C   UNL     1      -6.393   1.941  25.230  0.00  0.00    +0.002 A 
ATOM     30  C   UNL     1      -6.149   2.478  25.807  0.00  0.00    +0.019 A 
ENDBRANCH  21  22
ENDBRANCH  20  21
ENDBRANCH  19  20
ENDBRANCH  15  17
BRANCH  11  10
ATOM     10  N   UNL     1      -2.340  -0.831  25.786  0.00  0.00    -0.078 NA
BRANCH  10   7
ATOM      7  S   UNL     1      -2.793  -1.390  25.381  0.00  0.00    +0.095 S 
ATOM      8  O   UNL     1      -2.107  -1.811  25.196  0.00  0.00    -0.150 OA
ATOM      9  O   UNL     1      -3.478  -0.969  25.566  0.00  0.00    -0.150 OA
BRANCH   7   5
ATOM      1  C   UNL     1      -4.680  -2.606  23.539  0.00  0.00    +0.132 C 
ATOM      2  N   UNL     1      -4.112  -2.507  24.129  0.00  0.00    -0.305 N 
ATOM      3  C   UNL     1      -3.769  -3.109  24.577  0.00  0.00    +0.180 A 
ATOM      4  N   UNL     1      -3.233  -2.764  25.100  0.00  0.00    -0.204 NA
ATOM      5  C   UNL     1      -3.245  -1.948  24.976  0.00  0.00    +0.223 A 
ATOM      6  C   UNL     1      -3.788  -1.790  24.376  0.00  0.00    +0.117 A 
ENDBRANCH   7   5
ENDBRANCH  10   7
ENDBRANCH  11  10
TORSDOF 9
ENDMDL
MODEL 3
REMARK VINA RESULT:      -9.9      1.566      4.032
REMARK  Name = 
REMARK  9 active torsions:
REMARK  status: ('A' for Active; 'I' for Inactive)
REMARK    1  A    between atoms: C_5  and  S_7
REMARK    2  A    between atoms: S_7  and  N_10
REMARK    3  A    between atoms: N_10  and  C_11
REMARK    4  A    between atoms: C_15  and  C_17
REMARK    5  A    between atoms: N_19  and  C_20
REMARK    6  A    between atoms: C_20  and  C_21
REMARK    7  A    between atoms: C_20  and  C_31
REMARK    8  A    between atoms: C_21  and  C_22
REMARK    9  A    between atoms: C_34  and  C_36
REMARK                            x       y       z     vdW  Elec       q    Type
REMARK                         _______ _______ _______ _____ _____    ______ ____
ROOT
ATOM     11  C   UNL     1      -0.664   1.305  25.000  0.00  0.00    +0.102 C 
ATOM     12  C   UNL     1      -0.465   2.090  25.158  0.00  0.00    +0.041 C 
ATOM     13  C   UNL     1      -1.047   2.675  25.139  0.00  0.00    +0.096 C 
ATOM     14  N   UNL     1      -1.827   2.475  24.962  0.00  0.00    -0.268 N 
ATOM     15  C   UNL     1      -2.027   1.690  24.803  0.00  0.00    +0.155 C 
ATOM     16  C   UNL     1      -1.445   1.105  24.822  0.00  0.00    +0.049 C 
ATOM     34  C   UNL     1      -2.409   3.060  24.942  0.00  0.00    +0.267 C 
ATOM     35  O   UNL     1      -3.190   2.860  24.765  0.00  0.00    -0.268 OA
ENDROOT
BRANCH  34  36
ATOM     36  C   UNL     1      -2.210   3.845  25.100  0.00  0.00    +0.133 A 
ATOM     37  C   UNL     1      -1.680   4.307  24.669  0.00  0.00    +0.040 A 
ATOM     38  C   UNL     1      -1.648   5.054  25.019  0.00  0.00    +0.081 A 
ATOM     39  C   UNL     1      -1.187   5.689  24.766  0.00  0.00    +0.054 C 
ATOM     40  N   UNL     1      -2.159   5.052  25.668  0.00  0.00    -0.173 NA
ATOM     41  N   UNL     1      -2.506   4.305  25.717  0.00  0.00    -0.245 N 
ATOM     42  C   UNL     1      -3.053   4.062  26.285  0.00  0.00    +0.154 C 
ENDBRANCH  34  36
BRANCH  15  17
ATOM     17  C   UNL     1      -2.807   1.491  24.626  0.00  0.00    +0.260 C 
ATOM     18  O   UNL     1      -3.180   1.826  23.971  0.00  0.00    -0.272 OA
ATOM     19  N   UNL     1      -3.216   0.956  25.104  0.00  0.00    -0.196 NA
BRANCH  19  20
ATOM     20  C   UNL     1      -3.996   0.757  24.927  0.00  0.00    +0.179 C 
BRANCH  20  31
ATOM     31  C   UNL     1      -4.612   1.250  25.168  0.00  0.00    +0.281 C 
ATOM     32  N   UNL     1      -5.125   1.572  24.608  0.00  0.00    -0.086 NA
ATOM     33  O   UNL     1      -4.715   1.421  25.968  0.00  0.00    -0.270 OA
ENDBRANCH  20  31
BRANCH  20  21
ATOM     21  C   UNL     1      -4.161   0.065  24.508  0.00  0.00    +0.059 C 
BRANCH  21  22
ATOM     22  C   UNL     1      -3.980  -0.669  24.837  0.00  0.00    +0.001 A 
ATOM     23  C   UNL     1      -3.752  -0.808  25.618  0.00  0.00    +0.095 A 
ATOM     24  N   UNL     1      -3.627  -1.619  25.707  0.00  0.00    -0.244 NA
ATOM     25  C   UNL     1      -3.777  -1.981  24.982  0.00  0.00    +0.081 A 
ATOM     26  C   UNL     1      -3.996  -1.394  24.444  0.00  0.00    +0.015 A 
ATOM     27  C   UNL     1      -4.180  -1.596  23.666  0.00  0.00    +0.001 A 
ATOM     28  C   UNL     1      -4.147  -2.384  23.425  0.00  0.00    +0.000 A 
ATOM     29  C   UNL     1      -3.928  -2.971  23.962  0.00  0.00    +0.002 A 
ATOM     30  C   UNL     1      -3.744  -2.770  24.741  0.00  0.00    +0.019 A 
ENDBRANCH  21  22
ENDBRANCH  20  21
ENDBRANCH  19  20
ENDBRANCH  15  17
BRANCH  11  10
ATOM     10  N   UNL     1      -0.083   0.720  25.019  0.00  0.00    -0.078 NA
BRANCH  10   7
ATOM      7  S   UNL     1       0.290   0.487  24.320  0.00  0.00    +0.095 S 
ATOM      8  O   UNL     1      -0.127  -0.225  24.335  0.00  0.00    -0.150 OA
ATOM      9  O   UNL     1       0.707   1.200  24.306  0.00  0.00    -0.150 OA
BRANCH   7   5
ATOM      1  C   UNL     1       2.304   0.080  22.268  0.00  0.00    +0.132 C 
ATOM      2  N   UNL     1       1.589   0.067  22.680  0.00  0.00    -0.305 N 
ATOM      3  C   UNL     1       0.885  -0.276  22.418  0.00  0.00    +0.180 A 
ATOM      4  N   UNL     1       0.313  -0.160  23.001  0.00  0.00    -0.204 NA
ATOM      5  C   UNL     1       0.663   0.254  23.623  0.00  0.00    +0.223 A 
ATOM      6  C   UNL     1       1.452   0.395  23.424  0.00  0.00    +0.117 A 
ENDBRANCH   7   5
ENDBRANCH  10   7
ENDBRANCH  11  10
TORSDOF 9
ENDMDL
MODEL 4
REMARK VINA RESULT:      -9.8      1.976      4.533
REMARK  Name = 
REMARK  9 active torsions:
REMARK  status: ('A' for Active; 'I' for Inactive)
REMARK    1  A    between atoms: C_5  and  S_7
REMARK    2  A    between atoms: S_7  and  N_10
REMARK    3  A    between atoms: N_10  and  C_11
REMARK    4  A    between atoms: C_15  and  C_17
REMARK    5  A    between atoms: N_19  and  C_20
REMARK    6  A    between atoms: C_20  and  C_21
REMARK    7  A    between atoms: C_20  and  C_31
REMARK    8  A    between atoms: C_21  and  C_22
REMARK    9  A    between atoms: C_34  and  C_36
REMARK                            x       y       z     vdW  Elec       q    Type
REMARK                         _______ _______ _______ _____ _____    ______ ____
ROOT
ATOM     11  C   UNL     1      -3.772   0.941  24.043  0.00  0.00    +0.102 C 
ATOM     12  C   UNL     1      -3.911   0.128  24.032  0.00  0.00    +0.041 C 
ATOM     13  C   UNL     1      -3.322  -0.395  24.280  0.00  0.00    +0.096 C 
ATOM     14  N   UNL     1      -2.595  -0.104  24.539  0.00  0.00    -0.268 N 
ATOM     15  C   UNL     1      -2.455   0.709  24.550  0.00  0.00    +0.155 C 
ATOM     16  C   UNL     1      -3.044   1.232  24.301  0.00  0.00    +0.049 C 
ATOM     34  C   UNL     1      -2.006  -0.627  24.787  0.00  0.00    +0.267 C 
ATOM     35  O   UNL     1      -1.279  -0.336  25.046  0.00  0.00    -0.268 OA
ENDROOT
BRANCH  34  36
ATOM     36  C   UNL     1      -2.146  -1.440  24.777  0.00  0.00    +0.133 A 
ATOM     37  C   UNL     1      -2.793  -1.825  25.114  0.00  0.00    +0.040 A 
ATOM     38  C   UNL     1      -2.709  -2.634  24.973  0.00  0.00    +0.081 A 
ATOM     39  C   UNL     1      -3.232  -3.224  25.214  0.00  0.00    +0.054 C 
ATOM     40  N   UNL     1      -2.010  -2.747  24.548  0.00  0.00    -0.173 NA
ATOM     41  N   UNL     1      -1.663  -2.010  24.427  0.00  0.00    -0.245 N 
ATOM     42  C   UNL     1      -0.955  -1.867  24.026  0.00  0.00    +0.154 C 
ENDBRANCH  34  36
BRANCH  15  17
ATOM     17  C   UNL     1      -1.728   1.000  24.808  0.00  0.00    +0.260 C 
ATOM     18  O   UNL     1      -1.398   0.718  25.510  0.00  0.00    -0.272 OA
ATOM     19  N   UNL     1      -1.330   1.571  24.365  0.00  0.00    -0.196 NA
BRANCH  19  20
ATOM     20  C   UNL     1      -0.603   1.861  24.624  0.00  0.00    +0.179 C 
BRANCH  20  31
ATOM     31  C   UNL     1       0.097   1.531  24.338  0.00  0.00    +0.281 C 
ATOM     32  N   UNL     1       0.733   1.407  24.850  0.00  0.00    -0.086 NA
ATOM     33  O   UNL     1       0.162   1.326  23.543  0.00  0.00    -0.270 OA
ENDBRANCH  20  31
BRANCH  20  21
ATOM     21  C   UNL     1      -0.576   2.481  25.168  0.00  0.00    +0.059 C 
BRANCH  21  22
ATOM     22  C   UNL     1      -0.624   3.261  24.908  0.00  0.00    +0.001 A 
ATOM     23  C   UNL     1      -0.191   3.594  24.289  0.00  0.00    +0.095 A 
ATOM     24  N   UNL     1      -0.413   4.385  24.219  0.00  0.00    -0.244 NA
ATOM     25  C   UNL     1      -0.984   4.542  24.793  0.00  0.00    +0.081 A 
ATOM     26  C   UNL     1      -1.114   3.847  25.219  0.00  0.00    +0.015 A 
ATOM     27  C   UNL     1      -1.663   3.838  25.835  0.00  0.00    +0.001 A 
ATOM     28  C   UNL     1      -2.080   4.523  26.026  0.00  0.00    +0.000 A 
ATOM     29  C   UNL     1      -1.950   5.218  25.600  0.00  0.00    +0.002 A 
ATOM     30  C   UNL     1      -1.402   5.227  24.984  0.00  0.00    +0.019 A 
ENDBRANCH  21  22
ENDBRANCH  20  21
ENDBRANCH  19  20
ENDBRANCH  15  17
BRANCH  11  10
ATOM     10  N   UNL     1      -4.360   1.464  23.795  0.00  0.00    -0.078 NA
BRANCH  10   7
ATOM      7  S   UNL     1      -4.745   1.942  24.346  0.00  0.00    +0.095 S 
ATOM      8  O   UNL     1      -4.341   2.601  24.056  0.00  0.00    -0.150 OA
ATOM      9  O   UNL     1      -5.148   1.283  24.636  0.00  0.00    -0.150 OA
BRANCH   7   5
ATOM      1  C   UNL     1      -5.735   4.275  25.763  0.00  0.00    +0.132 C 
ATOM      2  N   UNL     1      -5.584   3.493  25.548  0.00  0.00    -0.305 N 
ATOM      3  C   UNL     1      -5.859   2.821  25.940  0.00  0.00    +0.180 A 
ATOM      4  N   UNL     1      -5.578   2.158  25.538  0.00  0.00    -0.204 NA
ATOM      5  C   UNL     1      -5.129   2.421  24.896  0.00  0.00    +0.223 A 
ATOM      6  C   UNL     1      -5.134   3.246  24.903  0.00  0.00    +0.117 A 
ENDBRANCH   7   5
ENDBRANCH  10   7
ENDBRANCH  11  10
TORSDOF 9
ENDMDL
MODEL 5
REMARK VINA RESULT:      -9.4      1.727      2.513
REMARK  Name = 
REMARK  9 active torsions:
REMARK  status: ('A' for Active; 'I' for Inactive)
REMARK    1  A    between atoms: C_5  and  S_7
REMARK    2  A    between atoms: S_7  and  N_10
REMARK    3  A    between atoms: N_10  and  C_11
REMARK    4  A    between atoms: C_15  and  C_17
REMARK    5  A    between atoms: N_19  and  C_20
REMARK    6  A    between atoms: C_20  and  C_21
REMARK    7  A    between atoms: C_20  and  C_31
REMARK    8  A    between atoms: C_21  and  C_22
REMARK    9  A    between atoms: C_34  and  C_36
REMARK                            x       y       z     vdW  Elec       q    Type
REMARK                         _______ _______ _______ _____ _____    ______ ____
ROOT
ATOM     11  C   UNL     1       0.525   0.407  23.258  0.00  0.00    +0.102 C 
ATOM     12  C   UNL     1       0.108  -0.292  23.121  0.00  0.00    +0.041 C 
ATOM     13  C   UNL     1      -0.477  -0.533  23.650  0.00  0.00    +0.096 C 
ATOM     14  N   UNL     1      -0.646  -0.077  24.316  0.00  0.00    -0.268 N 
ATOM     15  C   UNL     1      -0.229   0.623  24.453  0.00  0.00    +0.155 C 
ATOM     16  C   UNL     1       0.356   0.864  23.924  0.00  0.00    +0.049 C 
ATOM     34  C   UNL     1      -1.231  -0.319  24.845  0.00  0.00    +0.267 C 
ATOM     35  O   UNL     1      -1.400   0.139  25.511  0.00  0.00    -0.268 OA
ENDROOT
BRANCH  34  36
ATOM     36  C   UNL     1      -1.647  -1.018  24.708  0.00  0.00    +0.133 A 
ATOM     37  C   UNL     1      -1.330  -1.779  24.712  0.00  0.00    +0.040 A 
ATOM     38  C   UNL     1      -1.941  -2.311  24.550  0.00  0.00    +0.081 A 
ATOM     39  C   UNL     1      -1.870  -3.131  24.500  0.00  0.00    +0.054 C 
ATOM     40  N   UNL     1      -2.635  -1.876  24.445  0.00  0.00    -0.173 NA
ATOM     41  N   UNL     1      -2.453  -1.078  24.543  0.00  0.00    -0.245 N 
ATOM     42  C   UNL     1      -2.985  -0.449  24.486  0.00  0.00    +0.154 C 
ENDBRANCH  34  36
BRANCH  15  17
ATOM     17  C   UNL     1      -0.398   1.079  25.119  0.00  0.00    +0.260 C 
ATOM     18  O   UNL     1      -0.492   0.717  25.854  0.00  0.00    -0.272 OA
ATOM     19  N   UNL     1      -0.474   1.898  25.050  0.00  0.00    -0.196 NA
BRANCH  19  20
ATOM     20  C   UNL     1      -0.643   2.354  25.715  0.00  0.00    +0.179 C 
BRANCH  20  31
ATOM     31  C   UNL     1      -0.034   2.581  26.224  0.00  0.00    +0.281 C 
ATOM     32  N   UNL     1      -0.120   2.479  27.039  0.00  0.00    -0.086 NA
ATOM     33  O   UNL     1       0.659   2.908  25.920  0.00  0.00    -0.270 OA
ENDBRANCH  20  31
BRANCH  20  21
ATOM     21  C   UNL     1      -1.419   2.585  25.872  0.00  0.00    +0.059 C 
BRANCH  21  22
ATOM     22  C   UNL     1      -1.751   3.221  25.466  0.00  0.00    +0.001 A 
ATOM     23  C   UNL     1      -1.337   3.847  25.123  0.00  0.00    +0.095 A 
ATOM     24  N   UNL     1      -1.885   4.356  24.777  0.00  0.00    -0.244 NA
ATOM     25  C   UNL     1      -2.638   4.046  24.906  0.00  0.00    +0.081 A 
ATOM     26  C   UNL     1      -2.555   3.344  25.332  0.00  0.00    +0.015 A 
ATOM     27  C   UNL     1      -3.224   2.909  25.542  0.00  0.00    +0.001 A 
ATOM     28  C   UNL     1      -3.974   3.174  25.327  0.00  0.00    +0.000 A 
ATOM     29  C   UNL     1      -4.057   3.876  24.901  0.00  0.00    +0.002 A 
ATOM     30  C   UNL     1      -3.389   4.312  24.690  0.00  0.00    +0.019 A 
ENDBRANCH  21  22
ENDBRANCH  20  21
ENDBRANCH  19  20
ENDBRANCH  15  17
BRANCH  11  10
ATOM     10  N   UNL     1       1.110   0.649  22.729  0.00  0.00    -0.078 NA
BRANCH  10   7
ATOM      7  S   UNL     1       1.892   0.411  22.842  0.00  0.00    +0.095 S 
ATOM      8  O   UNL     1       1.739  -0.286  22.427  0.00  0.00    -0.150 OA
ATOM      9  O   UNL     1       2.045   1.108  23.257  0.00  0.00    -0.150 OA
BRANCH   7   5
ATOM      1  C   UNL     1       4.786   0.450  23.070  0.00  0.00    +0.132 C 
ATOM      2  N   UNL     1       4.004   0.190  23.060  0.00  0.00    -0.305 N 
ATOM      3  C   UNL     1       3.747  -0.582  23.197  0.00  0.00    +0.180 A 
ATOM      4  N   UNL     1       2.925  -0.594  23.132  0.00  0.00    -0.204 NA
ATOM      5  C   UNL     1       2.673   0.172  22.955  0.00  0.00    +0.223 A 
ATOM      6  C   UNL     1       3.339   0.656  22.910  0.00  0.00    +0.117 A 
ENDBRANCH   7   5
ENDBRANCH  10   7
ENDBRANCH  11  10
TORSDOF 9
ENDMDL
MODEL 6
REMARK VINA RESULT:      -9.1      1.952      3.808
REMARK  Name = 
REMARK  9 active torsions:
REMARK  status: ('A' for Active; 'I' for Inactive)
REMARK    1  A    between atoms: C_5  and  S_7
REMARK    2  A    between atoms: S_7  and  N_10
REMARK    3  A    between atoms: N_10  and  C_11
REMARK    4  A    between atoms: C_15  and  C_17
REMARK    5  A    between atoms: N_19  and  C_20
REMARK    6  A    between atoms: C_20  and  C_21
REMARK    7  A    between atoms: C_20  and  C_31
REMARK    8  A    between atoms: C_21  and  C_22
REMARK    9  A    between atoms: C_34  and  C_36
REMARK                            x       y       z     vdW  Elec       q    Type
REMARK                         _______ _______ _______ _____ _____    ______ ____
ROOT
ATOM     11  C   UNL     1      -0.954   2.028  25.595  0.00  0.00    +0.102 C 
ATOM     12  C   UNL     1      -0.234   1.731  25.323  0.00  0.00    +0.041 C 
ATOM     13  C   UNL     1      -0.223   1.096  24.795  0.00  0.00    +0.096 C 
ATOM     14  N   UNL     1      -0.931   0.759  24.540  0.00  0.00    -0.268 N 
ATOM     15  C   UNL     1      -1.652   1.056  24.812  0.00  0.00    +0.155 C 
ATOM     16  C   UNL     1      -1.663   1.690  25.339  0.00  0.00    +0.049 C 
ATOM     34  C   UNL     1      -0.919   0.124  24.013  0.00  0.00    +0.267 C 
ATOM     35  O   UNL     1      -1.628  -0.213  23.757  0.00  0.00    -0.268 OA
ENDROOT
BRANCH  34  36
ATOM     36  C   UNL     1      -0.200  -0.173  23.741  0.00  0.00    +0.133 A 
ATOM     37  C   UNL     1       0.315   0.207  23.219  0.00  0.00    +0.040 A 
ATOM     38  C   UNL     1       0.966  -0.288  23.099  0.00  0.00    +0.081 A 
ATOM     39  C   UNL     1       1.614  -0.126  22.616  0.00  0.00    +0.054 C 
ATOM     40  N   UNL     1       0.851  -0.972  23.546  0.00  0.00    -0.173 NA
ATOM     41  N   UNL     1       0.132  -0.900  23.942  0.00  0.00    -0.245 N 
ATOM     42  C   UNL     1      -0.199  -1.460  24.452  0.00  0.00    +0.154 C 
ENDBRANCH  34  36
BRANCH  15  17
ATOM     17  C   UNL     1      -2.359   0.719  24.557  0.00  0.00    +0.260 C 
ATOM     18  O   UNL     1      -2.469   0.545  23.757  0.00  0.00    -0.272 OA
ATOM     19  N   UNL     1      -2.958   0.554  25.100  0.00  0.00    -0.196 NA
BRANCH  19  20
ATOM     20  C   UNL     1      -3.666   0.217  24.844  0.00  0.00    +0.179 C 
BRANCH  20  31
ATOM     31  C   UNL     1      -3.782  -0.598  24.913  0.00  0.00    +0.281 C 
ATOM     32  N   UNL     1      -4.079  -1.026  24.272  0.00  0.00    -0.086 NA
ATOM     33  O   UNL     1      -3.602  -0.983  25.619  0.00  0.00    -0.270 OA
ENDBRANCH  20  31
BRANCH  20  21
ATOM     21  C   UNL     1      -4.257   0.693  24.521  0.00  0.00    +0.059 C 
BRANCH  21  22
ATOM     22  C   UNL     1      -4.783   1.092  25.015  0.00  0.00    +0.001 A 
ATOM     23  C   UNL     1      -5.194   0.764  25.652  0.00  0.00    +0.095 A 
ATOM     24  N   UNL     1      -5.655   1.359  25.990  0.00  0.00    -0.244 NA
ATOM     25  C   UNL     1      -5.528   2.053  25.564  0.00  0.00    +0.081 A 
ATOM     26  C   UNL     1      -4.989   1.888  24.961  0.00  0.00    +0.015 A 
ATOM     27  C   UNL     1      -4.757   2.485  24.442  0.00  0.00    +0.001 A 
ATOM     28  C   UNL     1      -5.063   3.246  24.524  0.00  0.00    +0.000 A 
ATOM     29  C   UNL     1      -5.602   3.411  25.126  0.00  0.00    +0.002 A 
ATOM     30  C   UNL     1      -5.835   2.815  25.646  0.00  0.00    +0.019 A 
ENDBRANCH  21  22
ENDBRANCH  20  21
ENDBRANCH  19  20
ENDBRANCH  15  17
BRANCH  11  10
ATOM     10  N   UNL     1      -0.967   2.662  26.122  0.00  0.00    -0.078 NA
BRANCH  10   7
ATOM      7  S   UNL     1      -1.175   3.415  25.856  0.00  0.00    +0.095 S 
ATOM      8  O   UNL     1      -1.911   3.341  26.223  0.00  0.00    -0.150 OA
ATOM      9  O   UNL     1      -0.440   3.489  25.489  0.00  0.00    -0.150 OA
BRANCH   7   5
ATOM      1  C   UNL     1      -1.070   6.021  24.578  0.00  0.00    +0.132 C 
ATOM      2  N   UNL     1      -1.335   5.365  25.003  0.00  0.00    -0.305 N 
ATOM      3  C   UNL     1      -2.075   5.286  25.360  0.00  0.00    +0.180 A 
ATOM      4  N   UNL     1      -2.105   4.546  25.723  0.00  0.00    -0.204 NA
ATOM      5  C   UNL     1      -1.384   4.167  25.590  0.00  0.00    +0.223 A 
ATOM      6  C   UNL     1      -0.908   4.674  25.145  0.00  0.00    +0.117 A 
ENDBRANCH   7   5
ENDBRANCH  10   7
ENDBRANCH  11  10
TORSDOF 9
ENDMDL
MODEL 7
REMARK VINA RESULT:      -9.1      1.622      4.817
REMARK  Name = 
REMARK  9 active torsions:
REMARK  status: ('A' for Active; 'I' for Inactive)
REMARK    1  A    between atoms: C_5  and  S_7
REMARK    2  A    between atoms: S_7  and  N_10
REMARK    3  A    between atoms: N_10  and  C_11
REMARK    4  A    between atoms: C_15  and  C_17
REMARK    5  A    between atoms: N_19  and  C_20
REMARK    6  A    between atoms: C_20  and  C_21
REMARK    7  A    between atoms: C_20  and  C_31
REMARK    8  A    between atoms: C_21  and  C_22
REMARK    9  A    between atoms: C_34  and  C_36
REMARK                            x       y       z     vdW  Elec       q    Type
REMARK                         _______ _______ _______ _____ _____    ______ ____
ROOT
ATOM     11  C   UNL     1      -0.029   1.911  24.606  0.00  0.00    +0.102 C 
ATOM     12  C   UNL     1       0.677   2.019  24.192  0.00  0.00    +0.041 C 
ATOM     13  C   UNL     1       1.009   1.390  23.773  0.00  0.00    +0.096 C 
ATOM     14  N   UNL     1       0.636   0.655  23.769  0.00  0.00    -0.268 N 
ATOM     15  C   UNL     1      -0.070   0.546  24.183  0.00  0.00    +0.155 C 
ATOM     16  C   UNL     1      -0.402   1.175  24.602  0.00  0.00    +0.049 C 
ATOM     34  C   UNL     1       0.968   0.026  23.350  0.00  0.00    +0.267 C 
ATOM     35  O   UNL     1       0.595  -0.710  23.346  0.00  0.00    -0.268 OA
ENDROOT
BRANCH  34  36
ATOM     36  C   UNL     1       1.674   0.134  22.936  0.00  0.00    +0.133 A 
ATOM     37  C   UNL     1       2.372   0.449  23.242  0.00  0.00    +0.040 A 
ATOM     38  C   UNL     1       2.935   0.455  22.638  0.00  0.00    +0.081 A 
ATOM     39  C   UNL     1       3.711   0.726  22.701  0.00  0.00    +0.054 C 
ATOM     40  N   UNL     1       2.583   0.143  21.959  0.00  0.00    -0.173 NA
ATOM     41  N   UNL     1       1.804  -0.055  22.144  0.00  0.00    -0.245 N 
ATOM     42  C   UNL     1       1.252  -0.385  21.626  0.00  0.00    +0.154 C 
ENDBRANCH  34  36
BRANCH  15  17
ATOM     17  C   UNL     1      -0.442  -0.189  24.178  0.00  0.00    +0.260 C 
ATOM     18  O   UNL     1      -0.441  -0.647  23.492  0.00  0.00    -0.272 OA
ATOM     19  N   UNL     1      -0.815  -0.468  24.860  0.00  0.00    -0.196 NA
BRANCH  19  20
ATOM     20  C   UNL     1      -1.188  -1.203  24.855  0.00  0.00    +0.179 C 
BRANCH  20  31
ATOM     31  C   UNL     1      -0.786  -1.870  25.131  0.00  0.00    +0.281 C 
ATOM     32  N   UNL     1      -0.877  -2.594  24.744  0.00  0.00    -0.086 NA
ATOM     33  O   UNL     1      -0.296  -1.813  25.791  0.00  0.00    -0.270 OA
ENDBRANCH  20  31
BRANCH  20  21
ATOM     21  C   UNL     1      -1.961  -1.273  24.575  0.00  0.00    +0.059 C 
BRANCH  21  22
ATOM     22  C   UNL     1      -2.593  -1.032  25.045  0.00  0.00    +0.001 A 
ATOM     23  C   UNL     1      -2.634  -1.083  25.868  0.00  0.00    +0.095 A 
ATOM     24  N   UNL     1      -3.362  -0.780  26.107  0.00  0.00    -0.244 NA
ATOM     25  C   UNL     1      -3.773  -0.542  25.433  0.00  0.00    +0.081 A 
ATOM     26  C   UNL     1      -3.297  -0.697  24.777  0.00  0.00    +0.015 A 
ATOM     27  C   UNL     1      -3.568  -0.514  24.019  0.00  0.00    +0.001 A 
ATOM     28  C   UNL     1      -4.313  -0.175  23.917  0.00  0.00    +0.000 A 
ATOM     29  C   UNL     1      -4.788  -0.020  24.573  0.00  0.00    +0.002 A 
ATOM     30  C   UNL     1      -4.519  -0.203  25.331  0.00  0.00    +0.019 A 
ENDBRANCH  21  22
ENDBRANCH  20  21
ENDBRANCH  19  20
ENDBRANCH  15  17
BRANCH  11  10
ATOM     10  N   UNL     1      -0.361   2.539  25.025  0.00  0.00    -0.078 NA
BRANCH  10   7
ATOM      7  S   UNL     1      -1.151   2.744  24.902  0.00  0.00    +0.095 S 
ATOM      8  O   UNL     1      -0.945   3.109  24.191  0.00  0.00    -0.150 OA
ATOM      9  O   UNL     1      -1.357   2.380  25.613  0.00  0.00    -0.150 OA
BRANCH   7   5
ATOM      1  C   UNL     1      -3.917   3.492  25.373  0.00  0.00    +0.132 C 
ATOM      2  N   UNL     1      -3.212   3.294  24.995  0.00  0.00    -0.305 N 
ATOM      3  C   UNL     1      -3.098   3.238  24.179  0.00  0.00    +0.180 A 
ATOM      4  N   UNL     1      -2.313   3.026  24.045  0.00  0.00    -0.204 NA
ATOM      5  C   UNL     1      -1.940   2.950  24.778  0.00  0.00    +0.223 A 
ATOM      6  C   UNL     1      -2.496   3.116  25.365  0.00  0.00    +0.117 A 
ENDBRANCH   7   5
ENDBRANCH  10   7
ENDBRANCH  11  10
TORSDOF 9
ENDMDL
MODEL 8
REMARK VINA RESULT:      -8.9      1.613      4.148
REMARK  Name = 
REMARK  9 active torsions:
REMARK  status: ('A' for Active; 'I' for Inactive)
REMARK    1  A    between atoms: C_5  and  S_7
REMARK    2  A    between atoms: S_7  and  N_10
REMARK    3  A    between atoms: N_10  and  C_11
REMARK    4  A    between atoms: C_15  and  C_17
REMARK    5  A    between atoms: N_19  and  C_20
REMARK    6  A    between atoms: C_20  and  C_21
REMARK    7  A    between atoms: C_20  and  C_31
REMARK    8  A    between atoms: C_21  and  C_22
REMARK    9  A    between atoms: C_34  and  C_36
REMARK                            x       y       z     vdW  Elec       q    Type
REMARK                         _______ _______ _______ _____ _____    ______ ____
ROOT
ATOM     11  C   UNL     1      -1.800  -0.698  25.076  0.00  0.00    +0.102 C 
ATOM     12  C   UNL     1      -0.994  -0.804  24.934  0.00  0.00    +0.041 C 
ATOM     13  C   UNL     1      -0.582  -0.260  24.469  0.00  0.00    +0.096 C 
ATOM     14  N   UNL     1      -0.976   0.389  24.147  0.00  0.00    -0.268 N 
ATOM     15  C   UNL     1      -1.782   0.495  24.289  0.00  0.00    +0.155 C 
ATOM     16  C   UNL     1      -2.194  -0.049  24.754  0.00  0.00    +0.049 C 
ATOM     34  C   UNL     1      -0.564   0.933  23.683  0.00  0.00    +0.267 C 
ATOM     35  O   UNL     1      -0.959   1.582  23.361  0.00  0.00    -0.268 OA
ENDROOT
BRANCH  34  36
ATOM     36  C   UNL     1       0.241   0.827  23.541  0.00  0.00    +0.133 A 
ATOM     37  C   UNL     1       0.578   0.236  23.073  0.00  0.00    +0.040 A 
ATOM     38  C   UNL     1       1.397   0.337  23.085  0.00  0.00    +0.081 A 
ATOM     39  C   UNL     1       1.949  -0.132  22.691  0.00  0.00    +0.054 C 
ATOM     40  N   UNL     1       1.566   0.991  23.560  0.00  0.00    -0.173 NA
ATOM     41  N   UNL     1       0.852   1.293  23.841  0.00  0.00    -0.245 N 
ATOM     42  C   UNL     1       0.764   1.948  24.336  0.00  0.00    +0.154 C 
ENDBRANCH  34  36
BRANCH  15  17
ATOM     17  C   UNL     1      -2.176   1.144  23.967  0.00  0.00    +0.260 C 
ATOM     18  O   UNL     1      -2.083   1.328  23.168  0.00  0.00    -0.272 OA
ATOM     19  N   UNL     1      -2.663   1.610  24.443  0.00  0.00    -0.196 NA
BRANCH  19  20
ATOM     20  C   UNL     1      -3.056   2.259  24.121  0.00  0.00    +0.179 C 
BRANCH  20  31
ATOM     31  C   UNL     1      -3.822   2.171  23.825  0.00  0.00    +0.281 C 
ATOM     32  N   UNL     1      -4.385   1.751  24.259  0.00  0.00    -0.086 NA
ATOM     33  O   UNL     1      -4.024   2.502  23.098  0.00  0.00    -0.270 OA
ENDBRANCH  20  31
BRANCH  20  21
ATOM     21  C   UNL     1      -2.685   2.996  24.094  0.00  0.00    +0.059 C 
BRANCH  21  22
ATOM     22  C   UNL     1      -2.704   3.491  24.753  0.00  0.00    +0.001 A 
ATOM     23  C   UNL     1      -3.201   3.411  25.407  0.00  0.00    +0.095 A 
ATOM     24  N   UNL     1      -3.033   4.024  25.932  0.00  0.00    -0.244 NA
ATOM     25  C   UNL     1      -2.432   4.484  25.603  0.00  0.00    +0.081 A 
ATOM     26  C   UNL     1      -2.229   4.154  24.874  0.00  0.00    +0.015 A 
ATOM     27  C   UNL     1      -1.637   4.501  24.416  0.00  0.00    +0.001 A 
ATOM     28  C   UNL     1      -1.249   5.177  24.686  0.00  0.00    +0.000 A 
ATOM     29  C   UNL     1      -1.452   5.506  25.414  0.00  0.00    +0.002 A 
ATOM     30  C   UNL     1      -2.044   5.160  25.873  0.00  0.00    +0.019 A 
ENDBRANCH  21  22
ENDBRANCH  20  21
ENDBRANCH  19  20
ENDBRANCH  15  17
BRANCH  11  10
ATOM     10  N   UNL     1      -2.212  -1.242  25.540  0.00  0.00    -0.078 NA
BRANCH  10   7
ATOM      7  S   UNL     1      -2.726  -1.781  25.185  0.00  0.00    +0.095 S 
ATOM      8  O   UNL     1      -3.371  -1.366  25.489  0.00  0.00    -0.150 OA
ATOM      9  O   UNL     1      -2.080  -2.196  24.881  0.00  0.00    -0.150 OA
BRANCH   7   5
ATOM      1  C   UNL     1      -4.793  -2.926  23.497  0.00  0.00    +0.132 C 
ATOM      2  N   UNL     1      -4.190  -2.846  24.054  0.00  0.00    -0.305 N 
ATOM      3  C   UNL     1      -3.871  -3.452  24.514  0.00  0.00    +0.180 A 
ATOM      4  N   UNL     1      -3.284  -3.127  24.994  0.00  0.00    -0.204 NA
ATOM      5  C   UNL     1      -3.240  -2.319  24.830  0.00  0.00    +0.223 A 
ATOM      6  C   UNL     1      -3.800  -2.146  24.250  0.00  0.00    +0.117 A 
ENDBRANCH   7   5
ENDBRANCH  10   7
ENDBRANCH  11  10
TORSDOF 9
ENDMDL
MODEL 9
REMARK VINA RESULT:      -8.9      1.973      5.841
REMARK  Name = 
REMARK  9 active torsions:
REMARK  status: ('A' for Active; 'I' for Inactive)
REMARK    1  A    between atoms: C_5  and  S_7
REMARK    2  A    between atoms: S_7  and  N_10
REMARK    3  A    between atoms: N_10  and  C_11
REMARK    4  A    between atoms: C_15  and  C_17
REMARK    5  A    between atoms: N_19  and  C_20
REMARK    6  A    between atoms: C_20  and  C_21
REMARK    7  A    between atoms: C_20  and  C_31
REMARK    8  A    between atoms: C_21  and  C_22
REMARK    9  A    between atoms: C_34  and  C_36
REMARK                            x       y       z     vdW  Elec       q    Type
REMARK                         _______ _______ _______ _____ _____    ______ ____
ROOT
ATOM     11  C   UNL     1      -3.540   2.150  24.022  0.00  0.00    +0.102 C 
ATOM     12  C   UNL     1      -3.326   2.947  24.028  0.00  0.00    +0.041 C 
ATOM     13  C   UNL     1      -2.567   3.168  24.262  0.00  0.00    +0.096 C 
ATOM     14  N   UNL     1      -2.021   2.594  24.491  0.00  0.00    -0.268 N 
ATOM     15  C   UNL     1      -2.235   1.796  24.486  0.00  0.00    +0.155 C 
ATOM     16  C   UNL     1      -2.994   1.575  24.251  0.00  0.00    +0.049 C 
ATOM     34  C   UNL     1      -1.262   2.816  24.726  0.00  0.00    +0.267 C 
ATOM     35  O   UNL     1      -0.716   2.241  24.955  0.00  0.00    -0.268 OA
ENDROOT
BRANCH  34  36
ATOM     36  C   UNL     1      -1.048   3.612  24.731  0.00  0.00    +0.133 A 
ATOM     37  C   UNL     1      -1.454   4.220  25.115  0.00  0.00    +0.040 A 
ATOM     38  C   UNL     1      -1.048   4.925  24.975  0.00  0.00    +0.081 A 
ATOM     39  C   UNL     1      -1.260   5.671  25.256  0.00  0.00    +0.054 C 
ATOM     40  N   UNL     1      -0.392   4.752  24.505  0.00  0.00    -0.173 NA
ATOM     41  N   UNL     1      -0.393   3.941  24.355  0.00  0.00    -0.245 N 
ATOM     42  C   UNL     1       0.165   3.531  23.905  0.00  0.00    +0.154 C 
ENDBRANCH  34  36
BRANCH  15  17
ATOM     17  C   UNL     1      -1.689   1.222  24.715  0.00  0.00    +0.260 C 
ATOM     18  O   UNL     1      -1.273   1.308  25.422  0.00  0.00    -0.272 OA
ATOM     19  N   UNL     1      -1.560   0.562  24.238  0.00  0.00    -0.196 NA
BRANCH  19  20
ATOM     20  C   UNL     1      -1.014  -0.013  24.467  0.00  0.00    +0.179 C 
BRANCH  20  31
ATOM     31  C   UNL     1      -0.249   0.001  24.159  0.00  0.00    +0.281 C 
ATOM     32  N   UNL     1      -0.134   0.087  23.346  0.00  0.00    -0.086 NA
ATOM     33  O   UNL     1       0.400  -0.072  24.662  0.00  0.00    -0.270 OA
ENDBRANCH  20  31
BRANCH  20  21
ATOM     21  C   UNL     1      -1.234  -0.600  25.003  0.00  0.00    +0.059 C 
BRANCH  21  22
ATOM     22  C   UNL     1      -1.570  -1.302  24.732  0.00  0.00    +0.001 A 
ATOM     23  C   UNL     1      -1.279  -1.776  24.122  0.00  0.00    +0.095 A 
ATOM     24  N   UNL     1      -1.786  -2.420  24.035  0.00  0.00    -0.244 NA
ATOM     25  C   UNL     1      -2.390  -2.346  24.592  0.00  0.00    +0.081 A 
ATOM     26  C   UNL     1      -2.257  -1.654  25.022  0.00  0.00    +0.015 A 
ATOM     27  C   UNL     1      -2.779  -1.436  25.623  0.00  0.00    +0.001 A 
ATOM     28  C   UNL     1      -3.433  -1.908  25.793  0.00  0.00    +0.000 A 
ATOM     29  C   UNL     1      -3.566  -2.599  25.363  0.00  0.00    +0.002 A 
ATOM     30  C   UNL     1      -3.045  -2.818  24.762  0.00  0.00    +0.019 A 
ENDBRANCH  21  22
ENDBRANCH  20  21
ENDBRANCH  19  20
ENDBRANCH  15  17
BRANCH  11  10
ATOM     10  N   UNL     1      -4.299   1.928  23.788  0.00  0.00    -0.078 NA
BRANCH  10   7
ATOM      7  S   UNL     1      -4.914   1.917  24.338  0.00  0.00    +0.095 S 
ATOM      8  O   UNL     1      -4.821   1.102  24.427  0.00  0.00    -0.150 OA
ATOM      9  O   UNL     1      -5.007   2.733  24.250  0.00  0.00    -0.150 OA
BRANCH   7   5
ATOM      1  C   UNL     1      -6.374   1.847  26.847  0.00  0.00    +0.132 C 
ATOM      2  N   UNL     1      -6.199   1.875  26.042  0.00  0.00    -0.305 N 
ATOM      3  C   UNL     1      -6.749   1.907  25.427  0.00  0.00    +0.180 A 
ATOM      4  N   UNL     1      -6.335   1.926  24.715  0.00  0.00    -0.204 NA
ATOM      5  C   UNL     1      -5.528   1.907  24.888  0.00  0.00    +0.223 A 
ATOM      6  C   UNL     1      -5.444   1.875  25.709  0.00  0.00    +0.117 A 
ENDBRANCH   7   5
ENDBRANCH  10   7
ENDBRANCH  11  10
TORSDOF 9
ENDMDL
MODEL 10
REMARK VINA RESULT:      -8.8      1.891      4.144
REMARK  Name = 
REMARK  9 active torsions:
REMARK  status: ('A' for Active; 'I' for Inactive)
REMARK    1  A    between atoms: C_5  and  S_7
REMARK    2  A    between atoms: S_7  and  N_10
REMARK    3  A    between atoms: N_10  and  C_11
REMARK    4  A    between atoms: C_15  and  C_17
REMARK    5  A    between atoms: N_19  and  C_20
REMARK    6  A    between atoms: C_20  and  C_21
REMARK    7  A    between atoms: C_20  and  C_31
REMARK    8  A    between atoms: C_21  and  C_22
REMARK    9  A    between atoms: C_34  and  C_36
REMARK                            x       y       z     vdW  Elec       q    Type
REMARK                         _______ _______ _______ _____ _____    ______ ____
ROOT
ATOM     11  C   UNL     1      -4.138  -0.452  24.519  0.00  0.00    +0.102 C 
ATOM     12  C   UNL     1      -4.678  -0.196  25.088  0.00  0.00    +0.041 C 
ATOM     13  C   UNL     1      -4.819   0.610  25.189  0.00  0.00    +0.096 C 
ATOM     14  N   UNL     1      -4.422   1.161  24.722  0.00  0.00    -0.268 N 
ATOM     15  C   UNL     1      -3.881   0.906  24.152  0.00  0.00    +0.155 C 
ATOM     16  C   UNL     1      -3.740   0.100  24.051  0.00  0.00    +0.049 C 
ATOM     34  C   UNL     1      -4.563   1.968  24.824  0.00  0.00    +0.267 C 
ATOM     35  O   UNL     1      -4.165   2.519  24.356  0.00  0.00    -0.268 OA
ENDROOT
BRANCH  34  36
ATOM     36  C   UNL     1      -5.103   2.223  25.393  0.00  0.00    +0.133 A 
ATOM     37  C   UNL     1      -5.822   1.862  25.575  0.00  0.00    +0.040 A 
ATOM     38  C   UNL     1      -6.182   2.300  26.175  0.00  0.00    +0.081 A 
ATOM     39  C   UNL     1      -6.911   2.136  26.524  0.00  0.00    +0.054 C 
ATOM     40  N   UNL     1      -5.685   2.932  26.362  0.00  0.00    -0.173 NA
ATOM     41  N   UNL     1      -5.018   2.884  25.879  0.00  0.00    -0.245 N 
ATOM     42  C   UNL     1      -4.379   3.406  25.882  0.00  0.00    +0.154 C 
ENDBRANCH  34  36
BRANCH  15  17
ATOM     17  C   UNL     1      -3.483   1.457  23.685  0.00  0.00    +0.260 C 
ATOM     18  O   UNL     1      -3.898   2.081  23.340  0.00  0.00    -0.272 OA
ATOM     19  N   UNL     1      -2.671   1.384  23.563  0.00  0.00    -0.196 NA
BRANCH  19  20
ATOM     20  C   UNL     1      -2.273   1.935  23.096  0.00  0.00    +0.179 C 
BRANCH  20  31
ATOM     31  C   UNL     1      -2.392   1.945  22.279  0.00  0.00    +0.281 C 
ATOM     32  N   UNL     1      -2.585   2.652  21.899  0.00  0.00    -0.086 NA
ATOM     33  O   UNL     1      -2.318   1.250  21.842  0.00  0.00    -0.270 OA
ENDBRANCH  20  31
BRANCH  20  21
ATOM     21  C   UNL     1      -1.757   2.476  23.444  0.00  0.00    +0.059 C 
BRANCH  21  22
ATOM     22  C   UNL     1      -1.088   2.209  23.846  0.00  0.00    +0.001 A 
ATOM     23  C   UNL     1      -0.608   1.576  23.623  0.00  0.00    +0.095 A 
ATOM     24  N   UNL     1      -0.006   1.503  24.182  0.00  0.00    -0.244 NA
ATOM     25  C   UNL     1      -0.113   2.091  24.750  0.00  0.00    +0.081 A 
ATOM     26  C   UNL     1      -0.782   2.527  24.543  0.00  0.00    +0.015 A 
ATOM     27  C   UNL     1      -1.025   3.158  25.016  0.00  0.00    +0.001 A 
ATOM     28  C   UNL     1      -0.600   3.353  25.695  0.00  0.00    +0.000 A 
ATOM     29  C   UNL     1       0.069   2.917  25.902  0.00  0.00    +0.002 A 
ATOM     30  C   UNL     1       0.313   2.286  25.430  0.00  0.00    +0.019 A 
ENDBRANCH  21  22
ENDBRANCH  20  21
ENDBRANCH  19  20
ENDBRANCH  15  17
BRANCH  11  10
ATOM     10  N   UNL     1      -3.996  -1.258  24.417  0.00  0.00    -0.078 NA
BRANCH  10   7
ATOM      7  S   UNL     1      -3.238  -1.561  24.536  0.00  0.00    +0.095 S 
ATOM      8  O   UNL     1      -3.132  -1.617  23.719  0.00  0.00    -0.150 OA
ATOM      9  O   UNL     1      -3.344  -1.505  25.353  0.00  0.00    -0.150 OA
BRANCH   7   5
ATOM      1  C   UNL     1      -0.486  -1.851  25.416  0.00  0.00    +0.132 C 
ATOM      2  N   UNL     1      -1.215  -1.997  25.059  0.00  0.00    -0.305 N 
ATOM      3  C   UNL     1      -1.412  -2.664  24.616  0.00  0.00    +0.180 A 
ATOM      4  N   UNL     1      -2.194  -2.582  24.366  0.00  0.00    -0.204 NA
ATOM      5  C   UNL     1      -2.480  -1.864  24.655  0.00  0.00    +0.223 A 
ATOM      6  C   UNL     1      -1.875  -1.502  25.083  0.00  0.00    +0.117 A 
ENDBRANCH   7   5
ENDBRANCH  10   7
ENDBRANCH  11  10
TORSDOF 9
ENDMDL
