MODEL 1
REMARK VINA RESULT:     -10.8      0.000      0.000
REMARK  Name = 
REMARK  9 active torsions:
REMARK  status: ('A' for Active; 'I' for Inactive)
REMARK    1  A    between atoms: O_2  and  C_3
REMARK    2  A    between atoms: C_6  and  C_7
REMARK    3  A    between atoms: C_7  and  N_8
REMARK    4  A    between atoms: C_9  and  C_11
REMARK    5  A    between atoms: C_11  and  C_12
REMARK    6  A    between atoms: C_14  and  C_15
REMARK    7  A    between atoms: C_18  and  C_19
REMARK    8  A    between atoms: C_19  and  N_20
REMARK    9  A    between atoms: C_21  and  C_23
REMARK                            x       y       z     vdW  Elec       q    Type
REMARK                         _______ _______ _______ _____ _____    ______ ____
ROOT
ATOM     12  C   UNL     1      -4.627   1.710  24.690  0.00  0.00    +0.027 C 
ATOM     13  C   UNL     1      -3.933   1.737  24.245  0.00  0.00    +0.005 C 
ATOM     14  C   UNL     1      -3.536   1.038  24.059  0.00  0.00    +0.006 C 
ATOM     18  C   UNL     1      -3.832   0.314  24.318  0.00  0.00    +0.043 C 
ATOM     27  C   UNL     1      -4.526   0.287  24.763  0.00  0.00    -0.033 C 
ATOM     28  C   UNL     1      -4.923   0.986  24.950  0.00  0.00    -0.048 C 
ATOM     29  C   UNL     1      -5.617   0.959  25.395  0.00  0.00    +0.026 C 
ENDROOT
BRANCH  14  15
ATOM     15  C   UNL     1      -2.842   1.064  23.613  0.00  0.00    +0.000 C 
ATOM     16  C   UNL     1      -2.882   1.145  22.793  0.00  0.00    +0.000 C 
ATOM     17  C   UNL     1      -2.108   1.011  23.987  0.00  0.00    +0.000 C 
ENDBRANCH  14  15
BRANCH  12  11
ATOM     11  C   UNL     1      -5.024   2.409  24.876  0.00  0.00    +0.091 C 
BRANCH  11   9
ATOM      8  N   UNL     1      -4.098   3.465  25.141  0.00  0.00    -0.201 NA
ATOM      9  C   UNL     1      -4.686   2.948  25.402  0.00  0.00    +0.242 C 
ATOM     10  O   UNL     1      -4.935   2.969  26.187  0.00  0.00    -0.273 OA
BRANCH   8   7
ATOM      7  C   UNL     1      -3.761   4.003  25.667  0.00  0.00    +0.141 C 
BRANCH   7   6
ATOM      3  C   UNL     1      -1.503   4.917  25.220  0.00  0.00    +0.139 A 
ATOM      4  C   UNL     1      -1.605   4.329  25.789  0.00  0.00    +0.037 A 
ATOM      5  C   UNL     1      -2.357   4.024  25.938  0.00  0.00    +0.001 A 
ATOM      6  C   UNL     1      -3.008   4.308  25.518  0.00  0.00    -0.000 A 
ATOM     30  C   UNL     1      -2.906   4.897  24.948  0.00  0.00    +0.001 A 
ATOM     31  C   UNL     1      -2.154   5.201  24.800  0.00  0.00    +0.037 A 
BRANCH   3   2
ATOM      1  C   UNL     1      -0.219   4.798  24.604  0.00  0.00    +0.252 C 
ATOM      2  O   UNL     1      -0.752   5.221  25.071  0.00  0.00    -0.471 OA
ENDBRANCH   3   2
ENDBRANCH   7   6
ENDBRANCH   8   7
ENDBRANCH  11   9
ENDBRANCH  12  11
BRANCH  18  19
ATOM     19  C   UNL     1      -3.434  -0.385  24.132  0.00  0.00    +0.119 C 
BRANCH  19  20
ATOM     20  N   UNL     1      -3.780  -1.114  24.305  0.00  0.00    -0.205 NA
ATOM     21  C   UNL     1      -3.338  -1.808  24.231  0.00  0.00    +0.240 C 
ATOM     22  O   UNL     1      -2.552  -1.771  23.983  0.00  0.00    -0.273 OA
BRANCH  21  23
ATOM     23  C   UNL     1      -3.683  -2.536  24.405  0.00  0.00    +0.071 C 
ATOM     24  C   UNL     1      -4.029  -3.265  24.577  0.00  0.00    +0.009 C 
ATOM     25  C   UNL     1      -4.077  -2.522  23.679  0.00  0.00    +0.009 C 
ATOM     26  C   UNL     1      -3.290  -2.551  25.129  0.00  0.00    +0.009 C 
ENDBRANCH  21  23
ENDBRANCH  19  20
ENDBRANCH  18  19
TORSDOF 9
ENDMDL
MODEL 2
REMARK VINA RESULT:     -10.7      1.117      5.570
REMARK  Name = 
REMARK  9 active torsions:
REMARK  status: ('A' for Active; 'I' for Inactive)
REMARK    1  A    between atoms: O_2  and  C_3
REMARK    2  A    between atoms: C_6  and  C_7
REMARK    3  A    between atoms: C_7  and  N_8
REMARK    4  A    between atoms: C_9  and  C_11
REMARK    5  A    between atoms: C_11  and  C_12
REMARK    6  A    between atoms: C_14  and  C_15
REMARK    7  A    between atoms: C_18  and  C_19
REMARK    8  A    between atoms: C_19  and  N_20
REMARK    9  A    between atoms: C_21  and  C_23
REMARK                            x       y       z     vdW  Elec       q    Type
REMARK                         _______ _______ _______ _____ _____    ______ ____
ROOT
ATOM     12  C   UNL     1      -4.261   2.189  24.211  0.00  0.00    +0.027 C 
ATOM     13  C   UNL     1      -4.526   2.607  24.873  0.00  0.00    +0.005 C 
ATOM     14  C   UNL     1      -4.082   3.236  25.167  0.00  0.00    +0.006 C 
ATOM     18  C   UNL     1      -3.374   3.448  24.803  0.00  0.00    +0.043 C 
ATOM     27  C   UNL     1      -3.109   3.031  24.142  0.00  0.00    -0.033 C 
ATOM     28  C   UNL     1      -3.553   2.401  23.847  0.00  0.00    -0.048 C 
ATOM     29  C   UNL     1      -3.288   1.984  23.186  0.00  0.00    +0.026 C 
ENDROOT
BRANCH  14  15
ATOM     15  C   UNL     1      -4.347   3.654  25.829  0.00  0.00    +0.000 C 
ATOM     16  C   UNL     1      -4.912   4.248  25.741  0.00  0.00    +0.000 C 
ATOM     17  C   UNL     1      -4.046   3.476  26.576  0.00  0.00    +0.000 C 
ENDBRANCH  14  15
BRANCH  12  11
ATOM     11  C   UNL     1      -4.705   1.560  23.917  0.00  0.00    +0.091 C 
BRANCH  11   9
ATOM      8  N   UNL     1      -4.363   0.235  24.327  0.00  0.00    -0.201 NA
ATOM      9  C   UNL     1      -4.848   0.899  24.390  0.00  0.00    +0.242 C 
ATOM     10  O   UNL     1      -5.475   0.902  24.925  0.00  0.00    -0.273 OA
BRANCH   8   7
ATOM      7  C   UNL     1      -4.506  -0.426  24.801  0.00  0.00    +0.141 C 
BRANCH   7   6
ATOM      3  C   UNL     1      -2.943  -2.345  24.750  0.00  0.00    +0.139 A 
ATOM      4  C   UNL     1      -3.543  -2.287  24.188  0.00  0.00    +0.037 A 
ATOM      5  C   UNL     1      -4.065  -1.648  24.205  0.00  0.00    +0.001 A 
ATOM      6  C   UNL     1      -3.985  -1.066  24.784  0.00  0.00    -0.000 A 
ATOM     30  C   UNL     1      -3.383  -1.123  25.346  0.00  0.00    +0.001 A 
ATOM     31  C   UNL     1      -2.862  -1.762  25.329  0.00  0.00    +0.037 A 
BRANCH   3   2
ATOM      1  C   UNL     1      -1.656  -2.885  24.442  0.00  0.00    +0.252 C 
ATOM      2  O   UNL     1      -2.422  -2.983  24.733  0.00  0.00    -0.471 OA
ENDBRANCH   3   2
ENDBRANCH   7   6
ENDBRANCH   8   7
ENDBRANCH  11   9
ENDBRANCH  12  11
BRANCH  18  19
ATOM     19  C   UNL     1      -2.929   4.078  25.098  0.00  0.00    +0.119 C 
BRANCH  19  20
ATOM     20  N   UNL     1      -2.151   4.185  24.848  0.00  0.00    -0.205 NA
ATOM     21  C   UNL     1      -1.698   4.800  25.162  0.00  0.00    +0.240 C 
ATOM     22  O   UNL     1      -2.025   5.307  25.725  0.00  0.00    -0.273 OA
BRANCH  21  23
ATOM     23  C   UNL     1      -0.920   4.908  24.912  0.00  0.00    +0.071 C 
ATOM     24  C   UNL     1      -0.141   5.017  24.661  0.00  0.00    +0.009 C 
ATOM     25  C   UNL     1      -1.124   5.641  24.591  0.00  0.00    +0.009 C 
ATOM     26  C   UNL     1      -0.715   4.176  25.232  0.00  0.00    +0.009 C 
ENDBRANCH  21  23
ENDBRANCH  19  20
ENDBRANCH  18  19
TORSDOF 9
ENDMDL
MODEL 3
REMARK VINA RESULT:     -10.2      1.491      2.228
REMARK  Name = 
REMARK  9 active torsions:
REMARK  status: ('A' for Active; 'I' for Inactive)
REMARK    1  A    between atoms: O_2  and  C_3
REMARK    2  A    between atoms: C_6  and  C_7
REMARK    3  A    between atoms: C_7  and  N_8
REMARK    4  A    between atoms: C_9  and  C_11
REMARK    5  A    between atoms: C_11  and  C_12
REMARK    6  A    between atoms: C_14  and  C_15
REMARK    7  A    between atoms: C_18  and  C_19
REMARK    8  A    between atoms: C_19  and  N_20
REMARK    9  A    between atoms: C_21  and  C_23
REMARK                            x       y       z     vdW  Elec       q    Type
REMARK                         _______ _______ _______ _____ _____    ______ ____
ROOT
ATOM     12  C   UNL     1      -3.668   2.204  23.769  0.00  0.00    +0.027 C 
ATOM     13  C   UNL     1      -4.266   2.111  24.332  0.00  0.00    +0.005 C 
ATOM     14  C   UNL     1      -4.540   1.357  24.520  0.00  0.00    +0.006 C 
ATOM     18  C   UNL     1      -4.219   0.696  24.148  0.00  0.00    +0.043 C 
ATOM     27  C   UNL     1      -3.622   0.788  23.586  0.00  0.00    -0.033 C 
ATOM     28  C   UNL     1      -3.347   1.543  23.397  0.00  0.00    -0.048 C 
ATOM     29  C   UNL     1      -2.750   1.635  22.835  0.00  0.00    +0.026 C 
ENDROOT
BRANCH  14  15
ATOM     15  C   UNL     1      -5.138   1.264  25.083  0.00  0.00    +0.000 C 
ATOM     16  C   UNL     1      -5.929   1.306  24.854  0.00  0.00    +0.000 C 
ATOM     17  C   UNL     1      -4.943   1.130  25.873  0.00  0.00    +0.000 C 
ENDBRANCH  14  15
BRANCH  12  11
ATOM     11  C   UNL     1      -3.394   2.958  23.581  0.00  0.00    +0.091 C 
BRANCH  11   9
ATOM      8  N   UNL     1      -2.258   3.249  24.398  0.00  0.00    -0.201 NA
ATOM      9  C   UNL     1      -3.029   3.421  24.159  0.00  0.00    +0.242 C 
ATOM     10  O   UNL     1      -3.434   4.054  24.497  0.00  0.00    -0.273 OA
BRANCH   8   7
ATOM      7  C   UNL     1      -1.894   3.711  24.976  0.00  0.00    +0.141 C 
BRANCH   7   6
ATOM      3  C   UNL     1       0.102   2.855  26.165  0.00  0.00    +0.139 A 
ATOM      4  C   UNL     1      -0.648   2.756  26.493  0.00  0.00    +0.037 A 
ATOM      5  C   UNL     1      -1.313   3.041  26.097  0.00  0.00    +0.001 A 
ATOM      6  C   UNL     1      -1.228   3.426  25.372  0.00  0.00    -0.000 A 
ATOM     30  C   UNL     1      -0.478   3.526  25.043  0.00  0.00    +0.001 A 
ATOM     31  C   UNL     1       0.187   3.240  25.440  0.00  0.00    +0.037 A 
BRANCH   3   2
ATOM      1  C   UNL     1       0.795   2.586  27.385  0.00  0.00    +0.252 C 
ATOM      2  O   UNL     1       0.767   2.571  26.561  0.00  0.00    -0.471 OA
ENDBRANCH   3   2
ENDBRANCH   7   6
ENDBRANCH   8   7
ENDBRANCH  11   9
ENDBRANCH  12  11
BRANCH  18  19
ATOM     19  C   UNL     1      -4.493  -0.060  24.338  0.00  0.00    +0.119 C 
BRANCH  19  20
ATOM     20  N   UNL     1      -3.965  -0.691  24.381  0.00  0.00    -0.205 NA
ATOM     21  C   UNL     1      -4.242  -1.466  24.312  0.00  0.00    +0.240 C 
ATOM     22  O   UNL     1      -5.047  -1.608  24.199  0.00  0.00    -0.273 OA
BRANCH  21  23
ATOM     23  C   UNL     1      -3.713  -2.098  24.355  0.00  0.00    +0.071 C 
ATOM     24  C   UNL     1      -3.185  -2.730  24.397  0.00  0.00    +0.009 C 
ATOM     25  C   UNL     1      -3.915  -2.319  23.586  0.00  0.00    +0.009 C 
ATOM     26  C   UNL     1      -3.511  -1.877  25.123  0.00  0.00    +0.009 C 
ENDBRANCH  21  23
ENDBRANCH  19  20
ENDBRANCH  18  19
TORSDOF 9
ENDMDL
MODEL 4
REMARK VINA RESULT:     -10.0      2.907      4.991
REMARK  Name = 
REMARK  9 active torsions:
REMARK  status: ('A' for Active; 'I' for Inactive)
REMARK    1  A    between atoms: O_2  and  C_3
REMARK    2  A    between atoms: C_6  and  C_7
REMARK    3  A    between atoms: C_7  and  N_8
REMARK    4  A    between atoms: C_9  and  C_11
REMARK    5  A    between atoms: C_11  and  C_12
REMARK    6  A    between atoms: C_14  and  C_15
REMARK    7  A    between atoms: C_18  and  C_19
REMARK    8  A    between atoms: C_19  and  N_20
REMARK    9  A    between atoms: C_21  and  C_23
REMARK                            x       y       z     vdW  Elec       q    Type
REMARK                         _______ _______ _______ _____ _____    ______ ____
ROOT
ATOM     12  C   UNL     1      -1.641   0.185  24.958  0.00  0.00    +0.027 C 
ATOM     13  C   UNL     1      -2.218  -0.350  24.709  0.00  0.00    +0.005 C 
ATOM     14  C   UNL     1      -3.005  -0.110  24.651  0.00  0.00    +0.006 C 
ATOM     18  C   UNL     1      -3.215   0.664  24.842  0.00  0.00    +0.043 C 
ATOM     27  C   UNL     1      -2.639   1.199  25.091  0.00  0.00    -0.033 C 
ATOM     28  C   UNL     1      -1.851   0.958  25.149  0.00  0.00    -0.048 C 
ATOM     29  C   UNL     1      -1.275   1.493  25.398  0.00  0.00    +0.026 C 
ENDROOT
BRANCH  14  15
ATOM     15  C   UNL     1      -3.583  -0.645  24.402  0.00  0.00    +0.000 C 
ATOM     16  C   UNL     1      -3.808  -0.668  23.609  0.00  0.00    +0.000 C 
ATOM     17  C   UNL     1      -3.934  -1.156  24.946  0.00  0.00    +0.000 C 
ENDBRANCH  14  15
BRANCH  12  11
ATOM     11  C   UNL     1      -0.854  -0.056  25.015  0.00  0.00    +0.091 C 
BRANCH  11   9
ATOM      8  N   UNL     1       0.109   0.031  23.963  0.00  0.00    -0.201 NA
ATOM      9  C   UNL     1      -0.477  -0.391  24.362  0.00  0.00    +0.242 C 
ATOM     10  O   UNL     1      -0.685  -1.147  24.109  0.00  0.00    -0.273 OA
BRANCH   8   7
ATOM      7  C   UNL     1       0.485  -0.305  23.310  0.00  0.00    +0.141 C 
BRANCH   7   6
ATOM      3  C   UNL     1       2.702   0.534  22.596  0.00  0.00    +0.139 A 
ATOM      4  C   UNL     1       2.290   0.919  23.197  0.00  0.00    +0.037 A 
ATOM      5  C   UNL     1       1.551   0.640  23.435  0.00  0.00    +0.001 A 
ATOM      6  C   UNL     1       1.225  -0.025  23.072  0.00  0.00    -0.000 A 
ATOM     30  C   UNL     1       1.638  -0.411  22.471  0.00  0.00    +0.001 A 
ATOM     31  C   UNL     1       2.377  -0.132  22.233  0.00  0.00    +0.037 A 
BRANCH   3   2
ATOM      1  C   UNL     1       4.117   0.607  22.784  0.00  0.00    +0.252 C 
ATOM      2  O   UNL     1       3.441   0.813  22.358  0.00  0.00    -0.471 OA
ENDBRANCH   3   2
ENDBRANCH   7   6
ENDBRANCH   8   7
ENDBRANCH  11   9
ENDBRANCH  12  11
BRANCH  18  19
ATOM     19  C   UNL     1      -4.003   0.904  24.784  0.00  0.00    +0.119 C 
BRANCH  19  20
ATOM     20  N   UNL     1      -4.223   1.659  25.034  0.00  0.00    -0.205 NA
ATOM     21  C   UNL     1      -5.011   1.899  24.978  0.00  0.00    +0.240 C 
ATOM     22  O   UNL     1      -5.578   1.384  24.671  0.00  0.00    -0.273 OA
BRANCH  21  23
ATOM     23  C   UNL     1      -5.230   2.653  25.228  0.00  0.00    +0.071 C 
ATOM     24  C   UNL     1      -5.449   3.409  25.477  0.00  0.00    +0.009 C 
ATOM     25  C   UNL     1      -4.837   2.982  24.581  0.00  0.00    +0.009 C 
ATOM     26  C   UNL     1      -5.623   2.326  25.874  0.00  0.00    +0.009 C 
ENDBRANCH  21  23
ENDBRANCH  19  20
ENDBRANCH  18  19
TORSDOF 9
ENDMDL
MODEL 5
REMARK VINA RESULT:      -9.9      1.826      5.030
REMARK  Name = 
REMARK  9 active torsions:
REMARK  status: ('A' for Active; 'I' for Inactive)
REMARK    1  A    between atoms: O_2  and  C_3
REMARK    2  A    between atoms: C_6  and  C_7
REMARK    3  A    between atoms: C_7  and  N_8
REMARK    4  A    between atoms: C_9  and  C_11
REMARK    5  A    between atoms: C_11  and  C_12
REMARK    6  A    between atoms: C_14  and  C_15
REMARK    7  A    between atoms: C_18  and  C_19
REMARK    8  A    between atoms: C_19  and  N_20
REMARK    9  A    between atoms: C_21  and  C_23
REMARK                            x       y       z     vdW  Elec       q    Type
REMARK                         _______ _______ _______ _____ _____    ______ ____
ROOT
ATOM     12  C   UNL     1      -1.807   2.715  23.942  0.00  0.00    +0.027 C 
ATOM     13  C   UNL     1      -1.783   3.156  24.639  0.00  0.00    +0.005 C 
ATOM     14  C   UNL     1      -2.486   3.378  25.011  0.00  0.00    +0.006 C 
ATOM     18  C   UNL     1      -3.211   3.158  24.686  0.00  0.00    +0.043 C 
ATOM     27  C   UNL     1      -3.235   2.717  23.989  0.00  0.00    -0.033 C 
ATOM     28  C   UNL     1      -2.532   2.496  23.617  0.00  0.00    -0.048 C 
ATOM     29  C   UNL     1      -2.556   2.055  22.920  0.00  0.00    +0.026 C 
ENDROOT
BRANCH  14  15
ATOM     15  C   UNL     1      -2.463   3.819  25.708  0.00  0.00    +0.000 C 
ATOM     16  C   UNL     1      -2.519   4.641  25.677  0.00  0.00    +0.000 C 
ATOM     17  C   UNL     1      -2.383   3.438  26.435  0.00  0.00    +0.000 C 
ENDBRANCH  14  15
BRANCH  12  11
ATOM     11  C   UNL     1      -1.104   2.494  23.571  0.00  0.00    +0.091 C 
BRANCH  11   9
ATOM      8  N   UNL     1      -0.738   1.188  24.021  0.00  0.00    -0.201 NA
ATOM      9  C   UNL     1      -0.573   1.994  23.958  0.00  0.00    +0.242 C 
ATOM     10  O   UNL     1       0.120   2.300  24.281  0.00  0.00    -0.273 OA
BRANCH   8   7
ATOM      7  C   UNL     1      -0.208   0.689  24.408  0.00  0.00    +0.141 C 
BRANCH   7   6
ATOM      3  C   UNL     1      -0.866  -1.637  24.944  0.00  0.00    +0.139 A 
ATOM      4  C   UNL     1      -0.488  -1.469  24.231  0.00  0.00    +0.037 A 
ATOM      5  C   UNL     1      -0.269  -0.694  24.051  0.00  0.00    +0.001 A 
ATOM      6  C   UNL     1      -0.427  -0.087  24.586  0.00  0.00    -0.000 A 
ATOM     30  C   UNL     1      -0.805  -0.254  25.301  0.00  0.00    +0.001 A 
ATOM     31  C   UNL     1      -1.025  -1.029  25.479  0.00  0.00    +0.037 A 
BRANCH   3   2
ATOM      1  C   UNL     1      -1.780  -2.727  24.810  0.00  0.00    +0.252 C 
ATOM      2  O   UNL     1      -1.085  -2.411  25.123  0.00  0.00    -0.471 OA
ENDBRANCH   3   2
ENDBRANCH   7   6
ENDBRANCH   8   7
ENDBRANCH  11   9
ENDBRANCH  12  11
BRANCH  18  19
ATOM     19  C   UNL     1      -3.914   3.380  25.058  0.00  0.00    +0.119 C 
BRANCH  19  20
ATOM     20  N   UNL     1      -4.500   2.817  25.199  0.00  0.00    -0.205 NA
ATOM     21  C   UNL     1      -5.269   3.059  25.378  0.00  0.00    +0.240 C 
ATOM     22  O   UNL     1      -5.450   3.863  25.417  0.00  0.00    -0.273 OA
BRANCH  21  23
ATOM     23  C   UNL     1      -5.855   2.496  25.519  0.00  0.00    +0.071 C 
ATOM     24  C   UNL     1      -6.442   1.933  25.662  0.00  0.00    +0.009 C 
ATOM     25  C   UNL     1      -5.802   2.644  26.330  0.00  0.00    +0.009 C 
ATOM     26  C   UNL     1      -5.909   2.349  24.710  0.00  0.00    +0.009 C 
ENDBRANCH  21  23
ENDBRANCH  19  20
ENDBRANCH  18  19
TORSDOF 9
ENDMDL
MODEL 6
REMARK VINA RESULT:      -9.9      1.872      3.100
REMARK  Name = 
REMARK  9 active torsions:
REMARK  status: ('A' for Active; 'I' for Inactive)
REMARK    1  A    between atoms: O_2  and  C_3
REMARK    2  A    between atoms: C_6  and  C_7
REMARK    3  A    between atoms: C_7  and  N_8
REMARK    4  A    between atoms: C_9  and  C_11
REMARK    5  A    between atoms: C_11  and  C_12
REMARK    6  A    between atoms: C_14  and  C_15
REMARK    7  A    between atoms: C_18  and  C_19
REMARK    8  A    between atoms: C_19  and  N_20
REMARK    9  A    between atoms: C_21  and  C_23
REMARK                            x       y       z     vdW  Elec       q    Type
REMARK                         _______ _______ _______ _____ _____    ______ ____
ROOT
ATOM     12  C   UNL     1      -0.684   0.590  24.104  0.00  0.00    +0.027 C 
ATOM     13  C   UNL     1      -0.493   0.126  24.759  0.00  0.00    +0.005 C 
ATOM     14  C   UNL     1      -1.014  -0.461  25.013  0.00  0.00    +0.006 C 
ATOM     18  C   UNL     1      -1.725  -0.583  24.614  0.00  0.00    +0.043 C 
ATOM     27  C   UNL     1      -1.915  -0.119  23.959  0.00  0.00    -0.033 C 
ATOM     28  C   UNL     1      -1.394   0.468  23.704  0.00  0.00    -0.048 C 
ATOM     29  C   UNL     1      -1.585   0.932  23.049  0.00  0.00    +0.026 C 
ENDROOT
BRANCH  14  15
ATOM     15  C   UNL     1      -0.824  -0.925  25.669  0.00  0.00    +0.000 C 
ATOM     16  C   UNL     1      -1.061  -0.690  26.423  0.00  0.00    +0.000 C 
ATOM     17  C   UNL     1      -0.396  -1.624  25.569  0.00  0.00    +0.000 C 
ENDBRANCH  14  15
BRANCH  12  11
ATOM     11  C   UNL     1      -0.162   1.177  23.849  0.00  0.00    +0.091 C 
BRANCH  11   9
ATOM      8  N   UNL     1      -0.497   2.426  24.457  0.00  0.00    -0.201 NA
ATOM      9  C   UNL     1       0.032   1.802  24.352  0.00  0.00    +0.242 C 
ATOM     10  O   UNL     1       0.754   1.802  24.750  0.00  0.00    -0.273 OA
BRANCH   8   7
ATOM      7  C   UNL     1      -0.303   3.051  24.959  0.00  0.00    +0.141 C 
BRANCH   7   6
ATOM      3  C   UNL     1      -2.065   4.605  25.737  0.00  0.00    +0.139 A 
ATOM      4  C   UNL     1      -1.543   4.838  25.143  0.00  0.00    +0.037 A 
ATOM      5  C   UNL     1      -0.955   4.320  24.883  0.00  0.00    +0.001 A 
ATOM      6  C   UNL     1      -0.890   3.569  25.219  0.00  0.00    -0.000 A 
ATOM     30  C   UNL     1      -1.413   3.336  25.814  0.00  0.00    +0.001 A 
ATOM     31  C   UNL     1      -2.000   3.854  26.072  0.00  0.00    +0.037 A 
BRANCH   3   2
ATOM      1  C   UNL     1      -3.428   4.857  26.087  0.00  0.00    +0.252 C 
ATOM      2  O   UNL     1      -2.652   5.123  25.996  0.00  0.00    -0.471 OA
ENDBRANCH   3   2
ENDBRANCH   7   6
ENDBRANCH   8   7
ENDBRANCH  11   9
ENDBRANCH  12  11
BRANCH  18  19
ATOM     19  C   UNL     1      -2.246  -1.170  24.869  0.00  0.00    +0.119 C 
BRANCH  19  20
ATOM     20  N   UNL     1      -2.805  -1.480  24.347  0.00  0.00    -0.205 NA
ATOM     21  C   UNL     1      -3.438  -1.923  24.637  0.00  0.00    +0.240 C 
ATOM     22  O   UNL     1      -3.512  -2.057  25.448  0.00  0.00    -0.273 OA
BRANCH  21  23
ATOM     23  C   UNL     1      -3.997  -2.233  24.115  0.00  0.00    +0.071 C 
ATOM     24  C   UNL     1      -4.555  -2.543  23.593  0.00  0.00    +0.009 C 
ATOM     25  C   UNL     1      -3.617  -2.965  24.144  0.00  0.00    +0.009 C 
ATOM     26  C   UNL     1      -4.376  -1.501  24.086  0.00  0.00    +0.009 C 
ENDBRANCH  21  23
ENDBRANCH  19  20
ENDBRANCH  18  19
TORSDOF 9
ENDMDL
MODEL 7
REMARK VINA RESULT:      -9.9      1.809      5.419
REMARK  Name = 
REMARK  9 active torsions:
REMARK  status: ('A' for Active; 'I' for Inactive)
REMARK    1  A    between atoms: O_2  and  C_3
REMARK    2  A    between atoms: C_6  and  C_7
REMARK    3  A    between atoms: C_7  and  N_8
REMARK    4  A    between atoms: C_9  and  C_11
REMARK    5  A    between atoms: C_11  and  C_12
REMARK    6  A    between atoms: C_14  and  C_15
REMARK    7  A    between atoms: C_18  and  C_19
REMARK    8  A    between atoms: C_19  and  N_20
REMARK    9  A    between atoms: C_21  and  C_23
REMARK                            x       y       z     vdW  Elec       q    Type
REMARK                         _______ _______ _______ _____ _____    ______ ____
ROOT
ATOM     12  C   UNL     1      -0.989   1.595  24.486  0.00  0.00    +0.027 C 
ATOM     13  C   UNL     1      -1.423   1.495  23.790  0.00  0.00    +0.005 C 
ATOM     14  C   UNL     1      -2.130   1.907  23.683  0.00  0.00    +0.006 C 
ATOM     18  C   UNL     1      -2.403   2.417  24.270  0.00  0.00    +0.043 C 
ATOM     27  C   UNL     1      -1.970   2.517  24.965  0.00  0.00    -0.033 C 
ATOM     28  C   UNL     1      -1.263   2.105  25.072  0.00  0.00    -0.048 C 
ATOM     29  C   UNL     1      -0.830   2.205  25.767  0.00  0.00    +0.026 C 
ENDROOT
BRANCH  14  15
ATOM     15  C   UNL     1      -2.564   1.807  22.988  0.00  0.00    +0.000 C 
ATOM     16  C   UNL     1      -2.441   2.315  22.350  0.00  0.00    +0.000 C 
ATOM     17  C   UNL     1      -3.119   1.199  22.931  0.00  0.00    +0.000 C 
ENDBRANCH  14  15
BRANCH  12  11
ATOM     11  C   UNL     1      -0.283   1.183  24.593  0.00  0.00    +0.091 C 
BRANCH  11   9
ATOM      8  N   UNL     1      -0.620  -0.183  24.842  0.00  0.00    -0.201 NA
ATOM      9  C   UNL     1      -0.235   0.386  24.385  0.00  0.00    +0.242 C 
ATOM     10  O   UNL     1       0.198   0.158  23.722  0.00  0.00    -0.273 OA
BRANCH   8   7
ATOM      7  C   UNL     1      -0.572  -0.980  24.634  0.00  0.00    +0.141 C 
BRANCH   7   6
ATOM      3  C   UNL     1      -2.549  -2.446  24.895  0.00  0.00    +0.139 A 
ATOM      4  C   UNL     1      -2.382  -1.875  25.465  0.00  0.00    +0.037 A 
ATOM      5  C   UNL     1      -1.723  -1.385  25.378  0.00  0.00    +0.001 A 
ATOM      6  C   UNL     1      -1.231  -1.469  24.721  0.00  0.00    -0.000 A 
ATOM     30  C   UNL     1      -1.398  -2.041  24.150  0.00  0.00    +0.001 A 
ATOM     31  C   UNL     1      -2.057  -2.530  24.238  0.00  0.00    +0.037 A 
BRANCH   3   2
ATOM      1  C   UNL     1      -3.824  -2.899  24.434  0.00  0.00    +0.252 C 
ATOM      2  O   UNL     1      -3.208  -2.935  24.981  0.00  0.00    -0.471 OA
ENDBRANCH   3   2
ENDBRANCH   7   6
ENDBRANCH   8   7
ENDBRANCH  11   9
ENDBRANCH  12  11
BRANCH  18  19
ATOM     19  C   UNL     1      -3.111   2.829  24.162  0.00  0.00    +0.119 C 
BRANCH  19  20
ATOM     20  N   UNL     1      -3.670   2.852  24.768  0.00  0.00    -0.205 NA
ATOM     21  C   UNL     1      -4.275   3.413  24.749  0.00  0.00    +0.240 C 
ATOM     22  O   UNL     1      -4.320   3.950  24.125  0.00  0.00    -0.273 OA
BRANCH  21  23
ATOM     23  C   UNL     1      -4.834   3.436  25.356  0.00  0.00    +0.071 C 
ATOM     24  C   UNL     1      -5.394   3.459  25.961  0.00  0.00    +0.009 C 
ATOM     25  C   UNL     1      -5.268   2.845  24.977  0.00  0.00    +0.009 C 
ATOM     26  C   UNL     1      -4.401   4.027  25.734  0.00  0.00    +0.009 C 
ENDBRANCH  21  23
ENDBRANCH  19  20
ENDBRANCH  18  19
TORSDOF 9
ENDMDL
MODEL 8
REMARK VINA RESULT:      -9.9      3.751      5.626
REMARK  Name = 
REMARK  9 active torsions:
REMARK  status: ('A' for Active; 'I' for Inactive)
REMARK    1  A    between atoms: O_2  and  C_3
REMARK    2  A    between atoms: C_6  and  C_7
REMARK    3  A    between atoms: C_7  and  N_8
REMARK    4  A    between atoms: C_9  and  C_11
REMARK    5  A    between atoms: C_11  and  C_12
REMARK    6  A    between atoms: C_14  and  C_15
REMARK    7  A    between atoms: C_18  and  C_19
REMARK    8  A    between atoms: C_19  and  N_20
REMARK    9  A    between atoms: C_21  and  C_23
REMARK                            x       y       z     vdW  Elec       q    Type
REMARK                         _______ _______ _______ _____ _____    ______ ____
ROOT
ATOM     12  C   UNL     1      -0.445   0.409  24.236  0.00  0.00    +0.027 C 
ATOM     13  C   UNL     1      -0.226   1.192  24.381  0.00  0.00    +0.005 C 
ATOM     14  C   UNL     1      -0.797   1.745  24.602  0.00  0.00    +0.006 C 
ATOM     18  C   UNL     1      -1.585   1.517  24.678  0.00  0.00    +0.043 C 
ATOM     27  C   UNL     1      -1.804   0.735  24.533  0.00  0.00    -0.033 C 
ATOM     28  C   UNL     1      -1.233   0.181  24.312  0.00  0.00    -0.048 C 
ATOM     29  C   UNL     1      -1.453  -0.601  24.167  0.00  0.00    +0.026 C 
ENDROOT
BRANCH  14  15
ATOM     15  C   UNL     1      -0.578   2.528  24.747  0.00  0.00    +0.000 C 
ATOM     16  C   UNL     1      -0.569   3.074  24.129  0.00  0.00    +0.000 C 
ATOM     17  C   UNL     1      -0.368   2.763  25.510  0.00  0.00    +0.000 C 
ENDBRANCH  14  15
BRANCH  12  11
ATOM     11  C   UNL     1       0.125  -0.144  24.015  0.00  0.00    +0.091 C 
BRANCH  11   9
ATOM      8  N   UNL     1       1.415   0.014  23.419  0.00  0.00    -0.201 NA
ATOM      9  C   UNL     1       0.593  -0.010  23.348  0.00  0.00    +0.242 C 
ATOM     10  O   UNL     1       0.239   0.100  22.612  0.00  0.00    -0.273 OA
BRANCH   8   7
ATOM      7  C   UNL     1       1.881   0.148  22.752  0.00  0.00    +0.141 C 
BRANCH   7   6
ATOM      3  C   UNL     1       4.339   0.337  22.982  0.00  0.00    +0.139 A 
ATOM      4  C   UNL     1       3.970  -0.392  23.088  0.00  0.00    +0.037 A 
ATOM      5  C   UNL     1       3.151  -0.456  23.011  0.00  0.00    +0.001 A 
ATOM      6  C   UNL     1       2.701   0.211  22.829  0.00  0.00    -0.000 A 
ATOM     30  C   UNL     1       3.070   0.942  22.723  0.00  0.00    +0.001 A 
ATOM     31  C   UNL     1       3.889   1.004  22.800  0.00  0.00    +0.037 A 
BRANCH   3   2
ATOM      1  C   UNL     1       5.536   0.091  23.723  0.00  0.00    +0.252 C 
ATOM      2  O   UNL     1       5.157   0.401  23.058  0.00  0.00    -0.471 OA
ENDBRANCH   3   2
ENDBRANCH   7   6
ENDBRANCH   8   7
ENDBRANCH  11   9
ENDBRANCH  12  11
BRANCH  18  19
ATOM     19  C   UNL     1      -2.156   2.071  24.899  0.00  0.00    +0.119 C 
BRANCH  19  20
ATOM     20  N   UNL     1      -2.943   1.961  24.679  0.00  0.00    -0.205 NA
ATOM     21  C   UNL     1      -3.528   2.462  24.976  0.00  0.00    +0.240 C 
ATOM     22  O   UNL     1      -3.325   3.073  25.493  0.00  0.00    -0.273 OA
BRANCH  21  23
ATOM     23  C   UNL     1      -4.315   2.352  24.756  0.00  0.00    +0.071 C 
ATOM     24  C   UNL     1      -5.103   2.243  24.535  0.00  0.00    +0.009 C 
ATOM     25  C   UNL     1      -4.227   2.917  24.160  0.00  0.00    +0.009 C 
ATOM     26  C   UNL     1      -4.404   1.789  25.351  0.00  0.00    +0.009 C 
ENDBRANCH  21  23
ENDBRANCH  19  20
ENDBRANCH  18  19
TORSDOF 9
ENDMDL
MODEL 9
REMARK VINA RESULT:      -7.3     14.350     16.304
REMARK  Name = 
REMARK  9 active torsions:
REMARK  status: ('A' for Active; 'I' for Inactive)
REMARK    1  A    between atoms: O_2  and  C_3
REMARK    2  A    between atoms: C_6  and  C_7
REMARK    3  A    between atoms: C_7  and  N_8
REMARK    4  A    between atoms: C_9  and  C_11
REMARK    5  A    between atoms: C_11  and  C_12
REMARK    6  A    between atoms: C_14  and  C_15
REMARK    7  A    between atoms: C_18  and  C_19
REMARK    8  A    between atoms: C_19  and  N_20
REMARK    9  A    between atoms: C_21  and  C_23
REMARK                            x       y       z     vdW  Elec       q    Type
REMARK                         _______ _______ _______ _____ _____    ______ ____
ROOT
ATOM     12  C   UNL     1      -5.227 -10.483  14.685  0.00  0.00    +0.027 C 
ATOM     13  C   UNL     1      -5.877 -10.293  14.212  0.00  0.00    +0.005 C 
ATOM     14  C   UNL     1      -5.782 -10.206  13.397  0.00  0.00    +0.006 C 
ATOM     18  C   UNL     1      -5.040 -10.308  13.055  0.00  0.00    +0.043 C 
ATOM     27  C   UNL     1      -4.390 -10.497  13.527  0.00  0.00    -0.033 C 
ATOM     28  C   UNL     1      -4.485 -10.585  14.343  0.00  0.00    -0.048 C 
ATOM     29  C   UNL     1      -3.835 -10.774  14.815  0.00  0.00    +0.026 C 
ENDROOT
BRANCH  14  15
ATOM     15  C   UNL     1      -6.432 -10.016  12.925  0.00  0.00    +0.000 C 
ATOM     16  C   UNL     1      -6.614  -9.226  12.772  0.00  0.00    +0.000 C 
ATOM     17  C   UNL     1      -6.899 -10.617  12.606  0.00  0.00    +0.000 C 
ENDBRANCH  14  15
BRANCH  12  11
ATOM     11  C   UNL     1      -5.322 -10.570  15.500  0.00  0.00    +0.091 C 
BRANCH  11   9
ATOM      8  N   UNL     1      -6.395 -10.078  16.305  0.00  0.00    -0.201 NA
ATOM      9  C   UNL     1      -5.664  -9.962  15.942  0.00  0.00    +0.242 C 
ATOM     10  O   UNL     1      -5.274  -9.240  16.020  0.00  0.00    -0.273 OA
BRANCH   8   7
ATOM      7  C   UNL     1      -6.736  -9.471  16.747  0.00  0.00    +0.141 C 
BRANCH   7   6
ATOM      3  C   UNL     1      -9.002  -9.760  17.702  0.00  0.00    +0.139 A 
ATOM      4  C   UNL     1      -8.357 -10.141  18.047  0.00  0.00    +0.037 A 
ATOM      5  C   UNL     1      -7.602 -10.046  17.729  0.00  0.00    +0.001 A 
ATOM      6  C   UNL     1      -7.492  -9.567  17.066  0.00  0.00    -0.000 A 
ATOM     30  C   UNL     1      -8.137  -9.185  16.720  0.00  0.00    +0.001 A 
ATOM     31  C   UNL     1      -8.892  -9.282  17.039  0.00  0.00    +0.037 A 
BRANCH   3   2
ATOM      1  C   UNL     1     -10.300  -9.236  17.988  0.00  0.00    +0.252 C 
ATOM      2  O   UNL     1      -9.756  -9.856  18.020  0.00  0.00    -0.471 OA
ENDBRANCH   3   2
ENDBRANCH   7   6
ENDBRANCH   8   7
ENDBRANCH  11   9
ENDBRANCH  12  11
BRANCH  18  19
ATOM     19  C   UNL     1      -4.945 -10.221  12.240  0.00  0.00    +0.119 C 
BRANCH  19  20
ATOM     20  N   UNL     1      -4.221  -9.971  11.934  0.00  0.00    -0.205 NA
ATOM     21  C   UNL     1      -4.068 -10.044  11.125  0.00  0.00    +0.240 C 
ATOM     22  O   UNL     1      -4.639 -10.367  10.625  0.00  0.00    -0.273 OA
BRANCH  21  23
ATOM     23  C   UNL     1      -3.344  -9.795  10.819  0.00  0.00    +0.071 C 
ATOM     24  C   UNL     1      -2.620  -9.544  10.513  0.00  0.00    +0.009 C 
ATOM     25  C   UNL     1      -3.667  -9.051  10.663  0.00  0.00    +0.009 C 
ATOM     26  C   UNL     1      -3.021 -10.537  10.975  0.00  0.00    +0.009 C 
ENDBRANCH  21  23
ENDBRANCH  19  20
ENDBRANCH  18  19
TORSDOF 9
ENDMDL
