MODEL 1
REMARK VINA RESULT:      -9.5      0.000      0.000
REMARK  Name = 
REMARK  9 active torsions:
REMARK  status: ('A' for Active; 'I' for Inactive)
REMARK    1  A    between atoms: O_2  and  C_3
REMARK    2  A    between atoms: C_3  and  C_4
REMARK    3  A    between atoms: C_11  and  C_12
REMARK    4  A    between atoms: N_14  and  C_15
REMARK    5  A    between atoms: C_15  and  C_16
REMARK    6  A    between atoms: C_15  and  C_23
REMARK    7  A    between atoms: C_16  and  C_17
REMARK    8  A    between atoms: C_23  and  O_25
REMARK    9  A    between atoms: N_29  and  C_30
REMARK                            x       y       z     vdW  Elec       q    Type
REMARK                         _______ _______ _______ _____ _____    ______ ____
ROOT
ATOM      4  C   UNL     1      -0.796   2.422  25.350  0.00  0.00    +0.256 C 
ATOM      5  O   UNL     1       0.006   2.422  25.541  0.00  0.00    -0.272 OA
ATOM      6  N   UNL     1      -1.192   1.707  25.234  0.00  0.00    -0.268 N 
ATOM      7  C   UNL     1      -0.786   0.993  25.310  0.00  0.00    +0.115 C 
ATOM      8  C   UNL     1      -1.181   0.279  25.195  0.00  0.00    +0.117 C 
ATOM      9  N   UNL     1      -1.983   0.278  25.003  0.00  0.00    -0.259 N 
ATOM     10  C   UNL     1      -2.390   0.992  24.928  0.00  0.00    +0.124 C 
ATOM     11  C   UNL     1      -1.994   1.705  25.043  0.00  0.00    +0.174 C 
ATOM     27  C   UNL     1      -2.379  -0.437  24.888  0.00  0.00    +0.328 C 
ATOM     28  O   UNL     1      -3.181  -0.438  24.697  0.00  0.00    -0.250 OA
ATOM     29  N   UNL     1      -1.972  -1.150  24.964  0.00  0.00    -0.162 NA
ENDROOT
BRANCH  29  30
ATOM     30  C   UNL     1      -2.369  -1.865  24.848  0.00  0.00    +0.075 A 
ATOM     31  C   UNL     1      -3.019  -2.057  25.319  0.00  0.00    +0.017 A 
ATOM     32  C   UNL     1      -3.415  -2.772  25.203  0.00  0.00    +0.001 A 
ATOM     33  C   UNL     1      -3.160  -3.295  24.617  0.00  0.00    +0.000 A 
ATOM     34  C   UNL     1      -2.510  -3.102  24.147  0.00  0.00    +0.001 A 
ATOM     35  C   UNL     1      -2.114  -2.387  24.263  0.00  0.00    +0.017 A 
ENDBRANCH  29  30
BRANCH  11  12
ATOM     12  C   UNL     1      -2.401   2.420  24.967  0.00  0.00    +0.262 C 
ATOM     13  O   UNL     1      -2.031   3.128  25.169  0.00  0.00    -0.271 OA
ATOM     14  N   UNL     1      -3.178   2.425  24.689  0.00  0.00    -0.194 NA
BRANCH  14  15
ATOM     15  C   UNL     1      -3.584   3.138  24.613  0.00  0.00    +0.198 C 
BRANCH  15  23
ATOM     23  C   UNL     1      -3.646   3.502  23.875  0.00  0.00    +0.337 C 
ATOM     24  O   UNL     1      -3.577   4.321  23.811  0.00  0.00    -0.248 OA
BRANCH  23  25
ATOM     25  O   UNL     1      -3.778   3.045  23.201  0.00  0.00    -0.443 OA
ATOM     26  C   UNL     1      -3.833   3.407  22.461  0.00  0.00    +0.256 C 
ENDBRANCH  23  25
ENDBRANCH  15  23
BRANCH  15  16
ATOM     16  C   UNL     1      -3.929   3.489  25.276  0.00  0.00    +0.061 C 
BRANCH  16  17
ATOM     17  C   UNL     1      -4.705   3.302  25.485  0.00  0.00    -0.001 A 
ATOM     18  C   UNL     1      -4.922   2.517  25.607  0.00  0.00    -0.001 A 
ATOM     19  C   UNL     1      -5.699   2.330  25.815  0.00  0.00    +0.020 A 
ATOM     20  C   UNL     1      -6.258   2.930  25.901  0.00  0.00    +0.099 A 
ATOM     21  N   UNL     1      -6.041   3.717  25.779  0.00  0.00    -0.243 NA
ATOM     22  C   UNL     1      -5.264   3.903  25.571  0.00  0.00    +0.095 A 
ENDBRANCH  16  17
ENDBRANCH  15  16
ENDBRANCH  14  15
ENDBRANCH  11  12
BRANCH   4   3
ATOM      3  C   UNL     1      -1.203   3.135  25.274  0.00  0.00    +0.227 C 
BRANCH   3   2
ATOM      1  C   UNL     1      -0.533   4.378  25.050  0.00  0.00    +0.175 C 
ATOM      2  O   UNL     1      -0.872   3.832  25.568  0.00  0.00    -0.342 OA
ENDBRANCH   3   2
ENDBRANCH   4   3
TORSDOF 9
ENDMDL
MODEL 2
REMARK VINA RESULT:      -8.6      2.429      4.137
REMARK  Name = 
REMARK  9 active torsions:
REMARK  status: ('A' for Active; 'I' for Inactive)
REMARK    1  A    between atoms: O_2  and  C_3
REMARK    2  A    between atoms: C_3  and  C_4
REMARK    3  A    between atoms: C_11  and  C_12
REMARK    4  A    between atoms: N_14  and  C_15
REMARK    5  A    between atoms: C_15  and  C_16
REMARK    6  A    between atoms: C_15  and  C_23
REMARK    7  A    between atoms: C_16  and  C_17
REMARK    8  A    between atoms: C_23  and  O_25
REMARK    9  A    between atoms: N_29  and  C_30
REMARK                            x       y       z     vdW  Elec       q    Type
REMARK                         _______ _______ _______ _____ _____    ______ ____
ROOT
ATOM      4  C   UNL     1      -1.921  -0.709  24.926  0.00  0.00    +0.256 C 
ATOM      5  O   UNL     1      -2.029  -1.511  25.083  0.00  0.00    -0.272 OA
ATOM      6  N   UNL     1      -1.232  -0.451  24.552  0.00  0.00    -0.268 N 
ATOM      7  C   UNL     1      -0.652  -0.996  24.335  0.00  0.00    +0.115 C 
ATOM      8  C   UNL     1       0.036  -0.738  23.962  0.00  0.00    +0.117 C 
ATOM      9  N   UNL     1       0.146   0.064  23.804  0.00  0.00    -0.259 N 
ATOM     10  C   UNL     1      -0.435   0.608  24.021  0.00  0.00    +0.124 C 
ATOM     11  C   UNL     1      -1.123   0.351  24.395  0.00  0.00    +0.174 C 
ATOM     27  C   UNL     1       0.834   0.321  23.430  0.00  0.00    +0.328 C 
ATOM     28  O   UNL     1       0.943   1.123  23.273  0.00  0.00    -0.250 OA
ATOM     29  N   UNL     1       1.414  -0.223  23.214  0.00  0.00    -0.162 NA
ENDROOT
BRANCH  29  30
ATOM     30  C   UNL     1       2.104   0.035  22.839  0.00  0.00    +0.075 A 
ATOM     31  C   UNL     1       2.228  -0.137  22.042  0.00  0.00    +0.017 A 
ATOM     32  C   UNL     1       2.917   0.121  21.668  0.00  0.00    +0.001 A 
ATOM     33  C   UNL     1       3.481   0.550  22.091  0.00  0.00    +0.000 A 
ATOM     34  C   UNL     1       3.355   0.721  22.889  0.00  0.00    +0.001 A 
ATOM     35  C   UNL     1       2.667   0.463  23.263  0.00  0.00    +0.017 A 
ENDBRANCH  29  30
BRANCH  11  12
ATOM     12  C   UNL     1      -1.704   0.896  24.612  0.00  0.00    +0.262 C 
ATOM     13  O   UNL     1      -2.272   0.691  25.174  0.00  0.00    -0.271 OA
ATOM     14  N   UNL     1      -1.716   1.646  24.267  0.00  0.00    -0.194 NA
BRANCH  14  15
ATOM     15  C   UNL     1      -2.296   2.190  24.484  0.00  0.00    +0.198 C 
BRANCH  15  23
ATOM     23  C   UNL     1      -2.948   2.316  23.994  0.00  0.00    +0.337 C 
ATOM     24  O   UNL     1      -3.700   2.399  24.322  0.00  0.00    -0.248 OA
BRANCH  23  25
ATOM     25  O   UNL     1      -2.847   2.359  23.177  0.00  0.00    -0.443 OA
ATOM     26  C   UNL     1      -3.498   2.486  22.686  0.00  0.00    +0.256 C 
ENDBRANCH  23  25
ENDBRANCH  15  23
BRANCH  15  16
ATOM     16  C   UNL     1      -2.224   2.609  25.192  0.00  0.00    +0.061 C 
BRANCH  16  17
ATOM     17  C   UNL     1      -1.882   3.360  25.193  0.00  0.00    -0.001 A 
ATOM     18  C   UNL     1      -2.316   4.012  25.450  0.00  0.00    -0.001 A 
ATOM     19  C   UNL     1      -1.973   4.762  25.451  0.00  0.00    +0.020 A 
ATOM     20  C   UNL     1      -1.196   4.861  25.195  0.00  0.00    +0.099 A 
ATOM     21  N   UNL     1      -0.760   4.208  24.937  0.00  0.00    -0.243 NA
ATOM     22  C   UNL     1      -1.104   3.458  24.936  0.00  0.00    +0.095 A 
ENDBRANCH  16  17
ENDBRANCH  15  16
ENDBRANCH  14  15
ENDBRANCH  11  12
BRANCH   4   3
ATOM      3  C   UNL     1      -2.500  -0.164  25.143  0.00  0.00    +0.227 C 
BRANCH   3   2
ATOM      1  C   UNL     1      -3.782  -0.717  25.450  0.00  0.00    +0.175 C 
ATOM      2  O   UNL     1      -3.075  -0.372  25.699  0.00  0.00    -0.342 OA
ENDBRANCH   3   2
ENDBRANCH   4   3
TORSDOF 9
ENDMDL
MODEL 3
REMARK VINA RESULT:      -8.5      1.568      3.229
REMARK  Name = 
REMARK  9 active torsions:
REMARK  status: ('A' for Active; 'I' for Inactive)
REMARK    1  A    between atoms: O_2  and  C_3
REMARK    2  A    between atoms: C_3  and  C_4
REMARK    3  A    between atoms: C_11  and  C_12
REMARK    4  A    between atoms: N_14  and  C_15
REMARK    5  A    between atoms: C_15  and  C_16
REMARK    6  A    between atoms: C_15  and  C_23
REMARK    7  A    between atoms: C_16  and  C_17
REMARK    8  A    between atoms: C_23  and  O_25
REMARK    9  A    between atoms: N_29  and  C_30
REMARK                            x       y       z     vdW  Elec       q    Type
REMARK                         _______ _______ _______ _____ _____    ______ ____
ROOT
ATOM      4  C   UNL     1      -5.679   2.352  25.775  0.00  0.00    +0.256 C 
ATOM      5  O   UNL     1      -6.369   2.259  26.216  0.00  0.00    -0.272 OA
ATOM      6  N   UNL     1      -5.248   1.689  25.537  0.00  0.00    -0.268 N 
ATOM      7  C   UNL     1      -5.507   0.934  25.742  0.00  0.00    +0.115 C 
ATOM      8  C   UNL     1      -5.077   0.272  25.505  0.00  0.00    +0.117 C 
ATOM      9  N   UNL     1      -4.387   0.364  25.063  0.00  0.00    -0.259 N 
ATOM     10  C   UNL     1      -4.128   1.120  24.859  0.00  0.00    +0.124 C 
ATOM     11  C   UNL     1      -4.558   1.782  25.096  0.00  0.00    +0.174 C 
ATOM     27  C   UNL     1      -3.956  -0.298  24.826  0.00  0.00    +0.328 C 
ATOM     28  O   UNL     1      -3.267  -0.205  24.384  0.00  0.00    -0.250 OA
ATOM     29  N   UNL     1      -4.216  -1.053  25.030  0.00  0.00    -0.162 NA
ENDROOT
BRANCH  29  30
ATOM     30  C   UNL     1      -3.785  -1.717  24.793  0.00  0.00    +0.075 A 
ATOM     31  C   UNL     1      -4.034  -2.158  24.141  0.00  0.00    +0.017 A 
ATOM     32  C   UNL     1      -3.603  -2.820  23.904  0.00  0.00    +0.001 A 
ATOM     33  C   UNL     1      -2.924  -3.042  24.318  0.00  0.00    +0.000 A 
ATOM     34  C   UNL     1      -2.677  -2.600  24.970  0.00  0.00    +0.001 A 
ATOM     35  C   UNL     1      -3.107  -1.937  25.207  0.00  0.00    +0.017 A 
ENDBRANCH  29  30
BRANCH  11  12
ATOM     12  C   UNL     1      -4.298   2.539  24.891  0.00  0.00    +0.262 C 
ATOM     13  O   UNL     1      -4.795   3.188  24.999  0.00  0.00    -0.271 OA
ATOM     14  N   UNL     1      -3.541   2.645  24.579  0.00  0.00    -0.194 NA
BRANCH  14  15
ATOM     15  C   UNL     1      -3.282   3.400  24.374  0.00  0.00    +0.198 C 
BRANCH  15  23
ATOM     23  C   UNL     1      -3.372   3.673  23.601  0.00  0.00    +0.337 C 
ATOM     24  O   UNL     1      -3.644   4.438  23.462  0.00  0.00    -0.248 OA
BRANCH  23  25
ATOM     25  O   UNL     1      -3.189   3.178  22.966  0.00  0.00    -0.443 OA
ATOM     26  C   UNL     1      -3.447   3.370  22.206  0.00  0.00    +0.256 C 
ENDBRANCH  23  25
ENDBRANCH  15  23
BRANCH  15  16
ATOM     16  C   UNL     1      -2.932   3.884  24.945  0.00  0.00    +0.061 C 
BRANCH  16  17
ATOM     17  C   UNL     1      -2.115   3.863  25.059  0.00  0.00    -0.001 A 
ATOM     18  C   UNL     1      -1.668   4.549  24.970  0.00  0.00    -0.001 A 
ATOM     19  C   UNL     1      -0.851   4.527  25.084  0.00  0.00    +0.020 A 
ATOM     20  C   UNL     1      -0.482   3.818  25.287  0.00  0.00    +0.099 A 
ATOM     21  N   UNL     1      -0.930   3.130  25.375  0.00  0.00    -0.243 NA
ATOM     22  C   UNL     1      -1.747   3.153  25.261  0.00  0.00    +0.095 A 
ENDBRANCH  16  17
ENDBRANCH  15  16
ENDBRANCH  14  15
ENDBRANCH  11  12
BRANCH   4   3
ATOM      3  C   UNL     1      -5.419   3.107  25.570  0.00  0.00    +0.227 C 
BRANCH   3   2
ATOM      1  C   UNL     1      -6.200   4.303  25.627  0.00  0.00    +0.175 C 
ATOM      2  O   UNL     1      -5.690   3.765  25.990  0.00  0.00    -0.342 OA
ENDBRANCH   3   2
ENDBRANCH   4   3
TORSDOF 9
ENDMDL
MODEL 4
REMARK VINA RESULT:      -8.4      1.510      3.825
REMARK  Name = 
REMARK  9 active torsions:
REMARK  status: ('A' for Active; 'I' for Inactive)
REMARK    1  A    between atoms: O_2  and  C_3
REMARK    2  A    between atoms: C_3  and  C_4
REMARK    3  A    between atoms: C_11  and  C_12
REMARK    4  A    between atoms: N_14  and  C_15
REMARK    5  A    between atoms: C_15  and  C_16
REMARK    6  A    between atoms: C_15  and  C_23
REMARK    7  A    between atoms: C_16  and  C_17
REMARK    8  A    between atoms: C_23  and  O_25
REMARK    9  A    between atoms: N_29  and  C_30
REMARK                            x       y       z     vdW  Elec       q    Type
REMARK                         _______ _______ _______ _____ _____    ______ ____
ROOT
ATOM      4  C   UNL     1      -3.345   2.966  24.995  0.00  0.00    +0.256 C 
ATOM      5  O   UNL     1      -4.064   3.355  25.101  0.00  0.00    -0.272 OA
ATOM      6  N   UNL     1      -3.330   2.148  24.893  0.00  0.00    -0.268 N 
ATOM      7  C   UNL     1      -4.034   1.718  24.897  0.00  0.00    +0.115 C 
ATOM      8  C   UNL     1      -4.019   0.901  24.796  0.00  0.00    +0.117 C 
ATOM      9  N   UNL     1      -3.299   0.511  24.690  0.00  0.00    -0.259 N 
ATOM     10  C   UNL     1      -2.595   0.941  24.686  0.00  0.00    +0.124 C 
ATOM     11  C   UNL     1      -2.611   1.758  24.787  0.00  0.00    +0.174 C 
ATOM     27  C   UNL     1      -3.284  -0.308  24.588  0.00  0.00    +0.328 C 
ATOM     28  O   UNL     1      -2.565  -0.697  24.482  0.00  0.00    -0.250 OA
ATOM     29  N   UNL     1      -3.988  -0.737  24.592  0.00  0.00    -0.162 NA
ENDROOT
BRANCH  29  30
ATOM     30  C   UNL     1      -3.973  -1.556  24.491  0.00  0.00    +0.075 A 
ATOM     31  C   UNL     1      -3.629  -2.037  25.067  0.00  0.00    +0.017 A 
ATOM     32  C   UNL     1      -3.614  -2.855  24.965  0.00  0.00    +0.001 A 
ATOM     33  C   UNL     1      -3.943  -3.193  24.287  0.00  0.00    +0.000 A 
ATOM     34  C   UNL     1      -4.286  -2.712  23.712  0.00  0.00    +0.001 A 
ATOM     35  C   UNL     1      -4.302  -1.893  23.814  0.00  0.00    +0.017 A 
ENDBRANCH  29  30
BRANCH  11  12
ATOM     12  C   UNL     1      -1.906   2.188  24.783  0.00  0.00    +0.262 C 
ATOM     13  O   UNL     1      -1.915   2.993  24.603  0.00  0.00    -0.271 OA
ATOM     14  N   UNL     1      -1.192   1.812  24.960  0.00  0.00    -0.194 NA
BRANCH  14  15
ATOM     15  C   UNL     1      -0.489   2.242  24.955  0.00  0.00    +0.198 C 
BRANCH  15  23
ATOM     23  C   UNL     1      -0.180   2.537  25.662  0.00  0.00    +0.337 C 
ATOM     24  O   UNL     1       0.131   3.300  25.689  0.00  0.00    -0.248 OA
BRANCH  23  25
ATOM     25  O   UNL     1      -0.184   2.069  26.341  0.00  0.00    -0.443 OA
ATOM     26  C   UNL     1       0.170   2.343  27.033  0.00  0.00    +0.256 C 
ENDBRANCH  23  25
ENDBRANCH  15  23
BRANCH  15  16
ATOM     16  C   UNL     1      -0.092   2.377  24.244  0.00  0.00    +0.061 C 
BRANCH  16  17
ATOM     17  C   UNL     1       0.419   1.803  23.941  0.00  0.00    -0.001 A 
ATOM     18  C   UNL     1       0.114   1.105  23.625  0.00  0.00    -0.001 A 
ATOM     19  C   UNL     1       0.625   0.531  23.323  0.00  0.00    +0.020 A 
ATOM     20  C   UNL     1       1.440   0.656  23.337  0.00  0.00    +0.099 A 
ATOM     21  N   UNL     1       1.745   1.355  23.654  0.00  0.00    -0.243 NA
ATOM     22  C   UNL     1       1.234   1.928  23.956  0.00  0.00    +0.095 A 
ENDBRANCH  16  17
ENDBRANCH  15  16
ENDBRANCH  14  15
ENDBRANCH  11  12
BRANCH   4   3
ATOM      3  C   UNL     1      -2.641   3.395  24.991  0.00  0.00    +0.227 C 
BRANCH   3   2
ATOM      1  C   UNL     1      -2.637   4.727  25.512  0.00  0.00    +0.175 C 
ATOM      2  O   UNL     1      -2.655   4.212  24.867  0.00  0.00    -0.342 OA
ENDBRANCH   3   2
ENDBRANCH   4   3
TORSDOF 9
ENDMDL
MODEL 5
REMARK VINA RESULT:      -8.2      1.684      4.974
REMARK  Name = 
REMARK  9 active torsions:
REMARK  status: ('A' for Active; 'I' for Inactive)
REMARK    1  A    between atoms: O_2  and  C_3
REMARK    2  A    between atoms: C_3  and  C_4
REMARK    3  A    between atoms: C_11  and  C_12
REMARK    4  A    between atoms: N_14  and  C_15
REMARK    5  A    between atoms: C_15  and  C_16
REMARK    6  A    between atoms: C_15  and  C_23
REMARK    7  A    between atoms: C_16  and  C_17
REMARK    8  A    between atoms: C_23  and  O_25
REMARK    9  A    between atoms: N_29  and  C_30
REMARK                            x       y       z     vdW  Elec       q    Type
REMARK                         _______ _______ _______ _____ _____    ______ ____
ROOT
ATOM      4  C   UNL     1      -0.073   1.151  23.725  0.00  0.00    +0.256 C 
ATOM      5  O   UNL     1       0.474   1.691  23.427  0.00  0.00    -0.272 OA
ATOM      6  N   UNL     1      -0.801   1.416  24.009  0.00  0.00    -0.268 N 
ATOM      7  C   UNL     1      -0.982   2.221  23.995  0.00  0.00    +0.115 C 
ATOM      8  C   UNL     1      -1.709   2.485  24.279  0.00  0.00    +0.117 C 
ATOM      9  N   UNL     1      -2.256   1.946  24.578  0.00  0.00    -0.259 N 
ATOM     10  C   UNL     1      -2.075   1.141  24.592  0.00  0.00    +0.124 C 
ATOM     11  C   UNL     1      -1.349   0.877  24.308  0.00  0.00    +0.174 C 
ATOM     27  C   UNL     1      -2.984   2.211  24.862  0.00  0.00    +0.328 C 
ATOM     28  O   UNL     1      -3.531   1.671  25.161  0.00  0.00    -0.250 OA
ATOM     29  N   UNL     1      -3.164   3.015  24.847  0.00  0.00    -0.162 NA
ENDROOT
BRANCH  29  30
ATOM     30  C   UNL     1      -3.893   3.280  25.132  0.00  0.00    +0.075 A 
ATOM     31  C   UNL     1      -3.928   3.716  25.832  0.00  0.00    +0.017 A 
ATOM     32  C   UNL     1      -4.656   3.981  26.116  0.00  0.00    +0.001 A 
ATOM     33  C   UNL     1      -5.349   3.810  25.701  0.00  0.00    +0.000 A 
ATOM     34  C   UNL     1      -5.312   3.374  25.001  0.00  0.00    +0.001 A 
ATOM     35  C   UNL     1      -4.584   3.109  24.717  0.00  0.00    +0.017 A 
ENDBRANCH  29  30
BRANCH  11  12
ATOM     12  C   UNL     1      -1.168   0.071  24.323  0.00  0.00    +0.262 C 
ATOM     13  O   UNL     1      -0.542  -0.219  23.871  0.00  0.00    -0.271 OA
ATOM     14  N   UNL     1      -1.613  -0.443  24.789  0.00  0.00    -0.194 NA
BRANCH  14  15
ATOM     15  C   UNL     1      -1.433  -1.248  24.803  0.00  0.00    +0.198 C 
BRANCH  15  23
ATOM     23  C   UNL     1      -0.931  -1.548  25.385  0.00  0.00    +0.337 C 
ATOM     24  O   UNL     1      -0.981  -1.267  26.158  0.00  0.00    -0.248 OA
BRANCH  23  25
ATOM     25  O   UNL     1      -0.380  -2.131  25.193  0.00  0.00    -0.443 OA
ATOM     26  C   UNL     1       0.137  -2.416  25.769  0.00  0.00    +0.256 C 
ENDBRANCH  23  25
ENDBRANCH  15  23
BRANCH  15  16
ATOM     16  C   UNL     1      -1.754  -1.753  24.234  0.00  0.00    +0.061 C 
BRANCH  16  17
ATOM     17  C   UNL     1      -2.530  -2.023  24.314  0.00  0.00    -0.001 A 
ATOM     18  C   UNL     1      -3.141  -1.651  23.904  0.00  0.00    -0.001 A 
ATOM     19  C   UNL     1      -3.916  -1.921  23.983  0.00  0.00    +0.020 A 
ATOM     20  C   UNL     1      -4.080  -2.564  24.474  0.00  0.00    +0.099 A 
ATOM     21  N   UNL     1      -3.469  -2.937  24.885  0.00  0.00    -0.243 NA
ATOM     22  C   UNL     1      -2.694  -2.666  24.804  0.00  0.00    +0.095 A 
ENDBRANCH  16  17
ENDBRANCH  15  16
ENDBRANCH  14  15
ENDBRANCH  11  12
BRANCH   4   3
ATOM      3  C   UNL     1       0.107   0.347  23.740  0.00  0.00    +0.227 C 
BRANCH   3   2
ATOM      1  C   UNL     1       1.398  -0.018  23.245  0.00  0.00    +0.175 C 
ATOM      2  O   UNL     1       0.579   0.019  23.147  0.00  0.00    -0.342 OA
ENDBRANCH   3   2
ENDBRANCH   4   3
TORSDOF 9
ENDMDL
MODEL 6
REMARK VINA RESULT:      -7.7      1.952      4.575
REMARK  Name = 
REMARK  9 active torsions:
REMARK  status: ('A' for Active; 'I' for Inactive)
REMARK    1  A    between atoms: O_2  and  C_3
REMARK    2  A    between atoms: C_3  and  C_4
REMARK    3  A    between atoms: C_11  and  C_12
REMARK    4  A    between atoms: N_14  and  C_15
REMARK    5  A    between atoms: C_15  and  C_16
REMARK    6  A    between atoms: C_15  and  C_23
REMARK    7  A    between atoms: C_16  and  C_17
REMARK    8  A    between atoms: C_23  and  O_25
REMARK    9  A    between atoms: N_29  and  C_30
REMARK                            x       y       z     vdW  Elec       q    Type
REMARK                         _______ _______ _______ _____ _____    ______ ____
ROOT
ATOM      4  C   UNL     1      -1.739  -1.537  25.242  0.00  0.00    +0.256 C 
ATOM      5  O   UNL     1      -1.955  -2.307  25.442  0.00  0.00    -0.272 OA
ATOM      6  N   UNL     1      -2.310  -0.942  25.219  0.00  0.00    -0.268 N 
ATOM      7  C   UNL     1      -3.097  -1.117  25.395  0.00  0.00    +0.115 C 
ATOM      8  C   UNL     1      -3.667  -0.523  25.372  0.00  0.00    +0.117 C 
ATOM      9  N   UNL     1      -3.452   0.248  25.172  0.00  0.00    -0.259 N 
ATOM     10  C   UNL     1      -2.666   0.423  24.995  0.00  0.00    +0.124 C 
ATOM     11  C   UNL     1      -2.095  -0.171  25.019  0.00  0.00    +0.174 C 
ATOM     27  C   UNL     1      -4.023   0.843  25.149  0.00  0.00    +0.328 C 
ATOM     28  O   UNL     1      -3.808   1.613  24.949  0.00  0.00    -0.250 OA
ATOM     29  N   UNL     1      -4.809   0.667  25.325  0.00  0.00    -0.162 NA
ENDROOT
BRANCH  29  30
ATOM     30  C   UNL     1      -5.381   1.263  25.302  0.00  0.00    +0.075 A 
ATOM     31  C   UNL     1      -5.471   1.772  25.945  0.00  0.00    +0.017 A 
ATOM     32  C   UNL     1      -6.042   2.367  25.922  0.00  0.00    +0.001 A 
ATOM     33  C   UNL     1      -6.523   2.453  25.255  0.00  0.00    +0.000 A 
ATOM     34  C   UNL     1      -6.431   1.943  24.614  0.00  0.00    +0.001 A 
ATOM     35  C   UNL     1      -5.860   1.348  24.637  0.00  0.00    +0.017 A 
ENDBRANCH  29  30
BRANCH  11  12
ATOM     12  C   UNL     1      -1.308   0.005  24.842  0.00  0.00    +0.262 C 
ATOM     13  O   UNL     1      -0.707  -0.499  25.095  0.00  0.00    -0.271 OA
ATOM     14  N   UNL     1      -1.124   0.685  24.412  0.00  0.00    -0.194 NA
BRANCH  14  15
ATOM     15  C   UNL     1      -0.338   0.860  24.236  0.00  0.00    +0.198 C 
BRANCH  15  23
ATOM     23  C   UNL     1      -0.014   0.626  23.514  0.00  0.00    +0.337 C 
ATOM     24  O   UNL     1      -0.472   0.650  22.829  0.00  0.00    -0.248 OA
BRANCH  23  25
ATOM     25  O   UNL     1       0.769   0.368  23.478  0.00  0.00    -0.443 OA
ATOM     26  C   UNL     1       1.091   0.127  22.758  0.00  0.00    +0.256 C 
ENDBRANCH  23  25
ENDBRANCH  15  23
BRANCH  15  16
ATOM     16  C   UNL     1       0.126   1.270  24.782  0.00  0.00    +0.061 C 
BRANCH  16  17
ATOM     17  C   UNL     1      -0.042   2.059  24.955  0.00  0.00    -0.001 A 
ATOM     18  C   UNL     1      -0.056   2.317  25.738  0.00  0.00    -0.001 A 
ATOM     19  C   UNL     1      -0.224   3.106  25.911  0.00  0.00    +0.020 A 
ATOM     20  C   UNL     1      -0.377   3.638  25.299  0.00  0.00    +0.099 A 
ATOM     21  N   UNL     1      -0.363   3.380  24.515  0.00  0.00    -0.243 NA
ATOM     22  C   UNL     1      -0.195   2.591  24.344  0.00  0.00    +0.095 A 
ENDBRANCH  16  17
ENDBRANCH  15  16
ENDBRANCH  14  15
ENDBRANCH  11  12
BRANCH   4   3
ATOM      3  C   UNL     1      -0.953  -1.361  25.065  0.00  0.00    +0.227 C 
BRANCH   3   2
ATOM      1  C   UNL     1      -0.021  -2.444  25.116  0.00  0.00    +0.175 C 
ATOM      2  O   UNL     1      -0.344  -1.762  25.452  0.00  0.00    -0.342 OA
ENDBRANCH   3   2
ENDBRANCH   4   3
TORSDOF 9
ENDMDL
