MODEL 1
REMARK VINA RESULT:     -10.5      0.000      0.000
REMARK  Name = 
REMARK  4 active torsions:
REMARK  status: ('A' for Active; 'I' for Inactive)
REMARK    1  A    between atoms: O_2  and  C_3
REMARK    2  A    between atoms: C_3  and  C_4
REMARK    3  A    between atoms: C_18  and  C_23
REMARK    4  A    between atoms: C_26  and  O_27
REMARK                            x       y       z     vdW  Elec       q    Type
REMARK                         _______ _______ _______ _____ _____    ______ ____
ROOT
ATOM      4  C   UNL     1      -1.109   4.388  25.026  0.00  0.00    +0.256 C 
ATOM      5  O   UNL     1      -0.290   4.461  24.964  0.00  0.00    -0.272 OA
ATOM      6  N   UNL     1      -1.463   3.645  24.965  0.00  0.00    -0.274 N 
ATOM      7  C   UNL     1      -0.998   2.976  24.841  0.00  0.00    +0.115 C 
ATOM      8  C   UNL     1      -1.351   2.232  24.780  0.00  0.00    +0.116 C 
ATOM      9  N   UNL     1      -2.171   2.160  24.842  0.00  0.00    -0.266 N 
ATOM     10  C   UNL     1      -2.636   2.829  24.966  0.00  0.00    +0.174 C 
ATOM     11  C   UNL     1      -2.282   3.572  25.027  0.00  0.00    +0.123 C 
ATOM     12  C   UNL     1      -3.456   2.878  25.043  0.00  0.00    +0.265 C 
ATOM     13  O   UNL     1      -3.759   3.636  25.163  0.00  0.00    -0.271 OA
ATOM     14  N   UNL     1      -4.013   2.270  25.016  0.00  0.00    -0.178 NA
ATOM     15  C   UNL     1      -3.887   1.463  24.905  0.00  0.00    +0.078 A 
ATOM     16  C   UNL     1      -4.597   1.042  24.914  0.00  0.00    +0.017 A 
ATOM     17  C   UNL     1      -4.594   0.224  24.813  0.00  0.00    +0.001 A 
ATOM     18  C   UNL     1      -3.881  -0.175  24.701  0.00  0.00    +0.000 A 
ATOM     19  C   UNL     1      -3.170   0.245  24.691  0.00  0.00    +0.006 A 
ATOM     20  C   UNL     1      -3.174   1.063  24.793  0.00  0.00    +0.069 A 
ATOM     21  C   UNL     1      -2.410   1.374  24.765  0.00  0.00    +0.251 C 
ATOM     22  O   UNL     1      -1.805   0.826  24.645  0.00  0.00    -0.270 OA
ENDROOT
BRANCH  18  23
ATOM     23  C   UNL     1      -3.878  -0.994  24.599  0.00  0.00    +0.000 A 
ATOM     24  C   UNL     1      -4.183  -1.325  23.908  0.00  0.00    +0.003 A 
ATOM     25  C   UNL     1      -4.180  -2.143  23.806  0.00  0.00    +0.037 A 
ATOM     26  C   UNL     1      -3.871  -2.631  24.397  0.00  0.00    +0.139 A 
ATOM     29  C   UNL     1      -3.566  -2.300  25.088  0.00  0.00    +0.037 A 
ATOM     30  C   UNL     1      -3.569  -1.482  25.190  0.00  0.00    +0.003 A 
BRANCH  26  27
ATOM     27  O   UNL     1      -3.868  -3.450  24.295  0.00  0.00    -0.471 OA
ATOM     28  C   UNL     1      -3.197  -3.827  24.000  0.00  0.00    +0.252 C 
ENDBRANCH  26  27
ENDBRANCH  18  23
BRANCH   4   3
ATOM      3  C   UNL     1      -1.575   5.058  25.150  0.00  0.00    +0.227 C 
BRANCH   3   2
ATOM      1  C   UNL     1      -1.751   6.468  25.000  0.00  0.00    +0.175 C 
ATOM      2  O   UNL     1      -1.256   5.810  25.034  0.00  0.00    -0.342 OA
ENDBRANCH   3   2
ENDBRANCH   4   3
TORSDOF 4
ENDMDL
MODEL 2
REMARK VINA RESULT:      -9.2      2.651      4.436
REMARK  Name = 
REMARK  4 active torsions:
REMARK  status: ('A' for Active; 'I' for Inactive)
REMARK    1  A    between atoms: O_2  and  C_3
REMARK    2  A    between atoms: C_3  and  C_4
REMARK    3  A    between atoms: C_18  and  C_23
REMARK    4  A    between atoms: C_26  and  O_27
REMARK                            x       y       z     vdW  Elec       q    Type
REMARK                         _______ _______ _______ _____ _____    ______ ____
ROOT
ATOM      4  C   UNL     1       1.783   0.077  22.897  0.00  0.00    +0.256 C 
ATOM      5  O   UNL     1       1.860  -0.619  22.461  0.00  0.00    -0.272 OA
ATOM      6  N   UNL     1       1.038   0.328  23.146  0.00  0.00    -0.274 N 
ATOM      7  C   UNL     1       0.369  -0.118  22.960  0.00  0.00    +0.115 C 
ATOM      8  C   UNL     1      -0.377   0.132  23.208  0.00  0.00    +0.116 C 
ATOM      9  N   UNL     1      -0.453   0.829  23.645  0.00  0.00    -0.266 N 
ATOM     10  C   UNL     1       0.216   1.274  23.831  0.00  0.00    +0.174 C 
ATOM     11  C   UNL     1       0.961   1.024  23.582  0.00  0.00    +0.123 C 
ATOM     12  C   UNL     1       0.261   1.980  24.257  0.00  0.00    +0.265 C 
ATOM     13  O   UNL     1       1.019   2.292  24.351  0.00  0.00    -0.271 OA
ATOM     14  N   UNL     1      -0.350   2.413  24.601  0.00  0.00    -0.178 NA
ATOM     15  C   UNL     1      -1.158   2.249  24.605  0.00  0.00    +0.078 A 
ATOM     16  C   UNL     1      -1.582   2.827  25.014  0.00  0.00    +0.017 A 
ATOM     17  C   UNL     1      -2.402   2.767  25.082  0.00  0.00    +0.001 A 
ATOM     18  C   UNL     1      -2.798   2.129  24.742  0.00  0.00    +0.000 A 
ATOM     19  C   UNL     1      -2.375   1.550  24.333  0.00  0.00    +0.006 A 
ATOM     20  C   UNL     1      -1.555   1.611  24.265  0.00  0.00    +0.069 A 
ATOM     21  C   UNL     1      -1.241   0.978  23.838  0.00  0.00    +0.251 C 
ATOM     22  O   UNL     1      -1.787   0.422  23.568  0.00  0.00    -0.270 OA
ENDROOT
BRANCH  18  23
ATOM     23  C   UNL     1      -3.618   2.069  24.811  0.00  0.00    +0.000 A 
ATOM     24  C   UNL     1      -4.104   2.650  24.485  0.00  0.00    +0.003 A 
ATOM     25  C   UNL     1      -4.924   2.590  24.553  0.00  0.00    +0.037 A 
ATOM     26  C   UNL     1      -5.258   1.947  24.950  0.00  0.00    +0.139 A 
ATOM     29  C   UNL     1      -4.773   1.366  25.276  0.00  0.00    +0.037 A 
ATOM     30  C   UNL     1      -3.953   1.426  25.207  0.00  0.00    +0.003 A 
BRANCH  26  27
ATOM     27  O   UNL     1      -6.078   1.887  25.018  0.00  0.00    -0.471 OA
ATOM     28  C   UNL     1      -6.434   1.922  25.762  0.00  0.00    +0.252 C 
ENDBRANCH  26  27
ENDBRANCH  18  23
BRANCH   4   3
ATOM      3  C   UNL     1       2.452   0.523  23.083  0.00  0.00    +0.227 C 
BRANCH   3   2
ATOM      1  C   UNL     1       3.827   0.832  22.847  0.00  0.00    +0.175 C 
ATOM      2  O   UNL     1       3.185   0.321  22.763  0.00  0.00    -0.342 OA
ENDBRANCH   3   2
ENDBRANCH   4   3
TORSDOF 4
ENDMDL
MODEL 3
REMARK VINA RESULT:      -9.1      1.238      5.976
REMARK  Name = 
REMARK  4 active torsions:
REMARK  status: ('A' for Active; 'I' for Inactive)
REMARK    1  A    between atoms: O_2  and  C_3
REMARK    2  A    between atoms: C_3  and  C_4
REMARK    3  A    between atoms: C_18  and  C_23
REMARK    4  A    between atoms: C_26  and  O_27
REMARK                            x       y       z     vdW  Elec       q    Type
REMARK                         _______ _______ _______ _____ _____    ______ ____
ROOT
ATOM      4  C   UNL     1      -3.923  -1.812  24.190  0.00  0.00    +0.256 C 
ATOM      5  O   UNL     1      -4.644  -1.873  23.793  0.00  0.00    -0.272 OA
ATOM      6  N   UNL     1      -3.584  -1.071  24.315  0.00  0.00    -0.274 N 
ATOM      7  C   UNL     1      -3.964  -0.391  24.045  0.00  0.00    +0.115 C 
ATOM      8  C   UNL     1      -3.625   0.351  24.170  0.00  0.00    +0.116 C 
ATOM      9  N   UNL     1      -2.904   0.412  24.567  0.00  0.00    -0.266 N 
ATOM     10  C   UNL     1      -2.523  -0.268  24.838  0.00  0.00    +0.174 C 
ATOM     11  C   UNL     1      -2.863  -1.009  24.712  0.00  0.00    +0.123 C 
ATOM     12  C   UNL     1      -1.806  -0.329  25.242  0.00  0.00    +0.265 C 
ATOM     13  O   UNL     1      -1.571  -1.094  25.439  0.00  0.00    -0.271 OA
ATOM     14  N   UNL     1      -1.294   0.274  25.476  0.00  0.00    -0.178 NA
ATOM     15  C   UNL     1      -1.372   1.088  25.363  0.00  0.00    +0.078 A 
ATOM     16  C   UNL     1      -0.733   1.500  25.684  0.00  0.00    +0.017 A 
ATOM     17  C   UNL     1      -0.703   2.322  25.630  0.00  0.00    +0.001 A 
ATOM     18  C   UNL     1      -1.312   2.733  25.255  0.00  0.00    +0.000 A 
ATOM     19  C   UNL     1      -1.952   2.322  24.933  0.00  0.00    +0.006 A 
ATOM     20  C   UNL     1      -1.981   1.499  24.988  0.00  0.00    +0.069 A 
ATOM     21  C   UNL     1      -2.663   1.198  24.634  0.00  0.00    +0.251 C 
ATOM     22  O   UNL     1      -3.171   1.757  24.302  0.00  0.00    -0.270 OA
ENDROOT
BRANCH  18  23
ATOM     23  C   UNL     1      -1.282   3.556  25.201  0.00  0.00    +0.000 A 
ATOM     24  C   UNL     1      -0.680   3.919  24.770  0.00  0.00    +0.003 A 
ATOM     25  C   UNL     1      -0.650   4.742  24.716  0.00  0.00    +0.037 A 
ATOM     26  C   UNL     1      -1.222   5.201  25.094  0.00  0.00    +0.139 A 
ATOM     29  C   UNL     1      -1.824   4.838  25.525  0.00  0.00    +0.037 A 
ATOM     30  C   UNL     1      -1.854   4.015  25.579  0.00  0.00    +0.003 A 
BRANCH  26  27
ATOM     27  O   UNL     1      -1.192   6.024  25.040  0.00  0.00    -0.471 OA
ATOM     28  C   UNL     1      -1.827   6.440  24.719  0.00  0.00    +0.252 C 
ENDBRANCH  26  27
ENDBRANCH  18  23
BRANCH   4   3
ATOM      3  C   UNL     1      -3.542  -2.492  24.461  0.00  0.00    +0.227 C 
BRANCH   3   2
ATOM      1  C   UNL     1      -3.432  -3.916  24.501  0.00  0.00    +0.175 C 
ATOM      2  O   UNL     1      -3.820  -3.236  24.240  0.00  0.00    -0.342 OA
ENDBRANCH   3   2
ENDBRANCH   4   3
TORSDOF 4
ENDMDL
MODEL 4
REMARK VINA RESULT:      -9.0      2.738      4.587
REMARK  Name = 
REMARK  4 active torsions:
REMARK  status: ('A' for Active; 'I' for Inactive)
REMARK    1  A    between atoms: O_2  and  C_3
REMARK    2  A    between atoms: C_3  and  C_4
REMARK    3  A    between atoms: C_18  and  C_23
REMARK    4  A    between atoms: C_26  and  O_27
REMARK                            x       y       z     vdW  Elec       q    Type
REMARK                         _______ _______ _______ _____ _____    ______ ____
ROOT
ATOM      4  C   UNL     1      -4.591   2.490  24.794  0.00  0.00    +0.256 C 
ATOM      5  O   UNL     1      -4.822   3.246  24.560  0.00  0.00    -0.272 OA
ATOM      6  N   UNL     1      -3.848   2.201  24.584  0.00  0.00    -0.274 N 
ATOM      7  C   UNL     1      -3.335   2.668  24.139  0.00  0.00    +0.115 C 
ATOM      8  C   UNL     1      -2.591   2.380  23.928  0.00  0.00    +0.116 C 
ATOM      9  N   UNL     1      -2.361   1.623  24.163  0.00  0.00    -0.266 N 
ATOM     10  C   UNL     1      -2.875   1.155  24.608  0.00  0.00    +0.174 C 
ATOM     11  C   UNL     1      -3.618   1.444  24.819  0.00  0.00    +0.123 C 
ATOM     12  C   UNL     1      -2.755   0.391  24.897  0.00  0.00    +0.265 C 
ATOM     13  O   UNL     1      -3.380   0.070  25.327  0.00  0.00    -0.271 OA
ATOM     14  N   UNL     1      -2.092  -0.093  24.811  0.00  0.00    -0.178 NA
ATOM     15  C   UNL     1      -1.386   0.067  24.416  0.00  0.00    +0.078 A 
ATOM     16  C   UNL     1      -0.863  -0.570  24.463  0.00  0.00    +0.017 A 
ATOM     17  C   UNL     1      -0.123  -0.524  24.103  0.00  0.00    +0.001 A 
ATOM     18  C   UNL     1       0.096   0.159  23.696  0.00  0.00    +0.000 A 
ATOM     19  C   UNL     1      -0.427   0.797  23.648  0.00  0.00    +0.006 A 
ATOM     20  C   UNL     1      -1.167   0.750  24.009  0.00  0.00    +0.069 A 
ATOM     21  C   UNL     1      -1.602   1.443  23.896  0.00  0.00    +0.251 C 
ATOM     22  O   UNL     1      -1.226   2.033  23.459  0.00  0.00    -0.270 OA
ENDROOT
BRANCH  18  23
ATOM     23  C   UNL     1       0.837   0.205  23.336  0.00  0.00    +0.000 A 
ATOM     24  C   UNL     1       1.015  -0.282  22.695  0.00  0.00    +0.003 A 
ATOM     25  C   UNL     1       1.756  -0.235  22.335  0.00  0.00    +0.037 A 
ATOM     26  C   UNL     1       2.319   0.299  22.617  0.00  0.00    +0.139 A 
ATOM     29  C   UNL     1       2.140   0.786  23.258  0.00  0.00    +0.037 A 
ATOM     30  C   UNL     1       1.400   0.740  23.618  0.00  0.00    +0.003 A 
BRANCH  26  27
ATOM     27  O   UNL     1       3.060   0.345  22.257  0.00  0.00    -0.471 OA
ATOM     28  C   UNL     1       3.698   0.669  22.667  0.00  0.00    +0.252 C 
ENDBRANCH  26  27
ENDBRANCH  18  23
BRANCH   4   3
ATOM      3  C   UNL     1      -5.105   2.022  25.240  0.00  0.00    +0.227 C 
BRANCH   3   2
ATOM      1  C   UNL     1      -6.273   1.909  26.055  0.00  0.00    +0.175 C 
ATOM      2  O   UNL     1      -5.809   2.341  25.528  0.00  0.00    -0.342 OA
ENDBRANCH   3   2
ENDBRANCH   4   3
TORSDOF 4
ENDMDL
MODEL 5
REMARK VINA RESULT:      -7.4      2.471      4.234
REMARK  Name = 
REMARK  4 active torsions:
REMARK  status: ('A' for Active; 'I' for Inactive)
REMARK    1  A    between atoms: O_2  and  C_3
REMARK    2  A    between atoms: C_3  and  C_4
REMARK    3  A    between atoms: C_18  and  C_23
REMARK    4  A    between atoms: C_26  and  O_27
REMARK                            x       y       z     vdW  Elec       q    Type
REMARK                         _______ _______ _______ _____ _____    ______ ____
ROOT
ATOM      4  C   UNL     1      -5.289   2.776  25.137  0.00  0.00    +0.256 C 
ATOM      5  O   UNL     1      -5.940   2.396  24.801  0.00  0.00    -0.272 OA
ATOM      6  N   UNL     1      -4.525   2.531  24.947  0.00  0.00    -0.274 N 
ATOM      7  C   UNL     1      -4.411   1.906  24.421  0.00  0.00    +0.115 C 
ATOM      8  C   UNL     1      -3.647   1.660  24.230  0.00  0.00    +0.116 C 
ATOM      9  N   UNL     1      -2.996   2.041  24.566  0.00  0.00    -0.266 N 
ATOM     10  C   UNL     1      -3.110   2.666  25.092  0.00  0.00    +0.174 C 
ATOM     11  C   UNL     1      -3.874   2.911  25.283  0.00  0.00    +0.123 C 
ATOM     12  C   UNL     1      -2.541   3.116  25.486  0.00  0.00    +0.265 C 
ATOM     13  O   UNL     1      -2.834   3.708  25.980  0.00  0.00    -0.271 OA
ATOM     14  N   UNL     1      -1.719   3.053  25.451  0.00  0.00    -0.178 NA
ATOM     15  C   UNL     1      -1.263   2.523  25.013  0.00  0.00    +0.078 A 
ATOM     16  C   UNL     1      -0.456   2.647  25.136  0.00  0.00    +0.017 A 
ATOM     17  C   UNL     1       0.097   2.174  24.749  0.00  0.00    +0.001 A 
ATOM     18  C   UNL     1      -0.154   1.578  24.239  0.00  0.00    +0.000 A 
ATOM     19  C   UNL     1      -0.961   1.453  24.115  0.00  0.00    +0.006 A 
ATOM     20  C   UNL     1      -1.514   1.926  24.503  0.00  0.00    +0.069 A 
ATOM     21  C   UNL     1      -2.286   1.711  24.304  0.00  0.00    +0.251 C 
ATOM     22  O   UNL     1      -2.357   1.085  23.772  0.00  0.00    -0.270 OA
ENDROOT
BRANCH  18  23
ATOM     23  C   UNL     1       0.400   1.105  23.851  0.00  0.00    +0.000 A 
ATOM     24  C   UNL     1       0.219   0.321  23.671  0.00  0.00    +0.003 A 
ATOM     25  C   UNL     1       0.774  -0.152  23.283  0.00  0.00    +0.037 A 
ATOM     26  C   UNL     1       1.510   0.161  23.077  0.00  0.00    +0.139 A 
ATOM     29  C   UNL     1       1.690   0.945  23.257  0.00  0.00    +0.037 A 
ATOM     30  C   UNL     1       1.136   1.417  23.645  0.00  0.00    +0.003 A 
BRANCH  26  27
ATOM     27  O   UNL     1       2.064  -0.312  22.689  0.00  0.00    -0.471 OA
ATOM     28  C   UNL     1       2.786   0.008  22.452  0.00  0.00    +0.252 C 
ENDBRANCH  26  27
ENDBRANCH  18  23
BRANCH   4   3
ATOM      3  C   UNL     1      -5.403   3.402  25.664  0.00  0.00    +0.227 C 
BRANCH   3   2
ATOM      1  C   UNL     1      -6.136   4.622  25.782  0.00  0.00    +0.175 C 
ATOM      2  O   UNL     1      -6.122   3.804  25.677  0.00  0.00    -0.342 OA
ENDBRANCH   3   2
ENDBRANCH   4   3
TORSDOF 4
ENDMDL
