MODEL 1
REMARK VINA RESULT:     -11.2      0.000      0.000
REMARK  Name = 
REMARK  9 active torsions:
REMARK  status: ('A' for Active; 'I' for Inactive)
REMARK    1  A    between atoms: O_2  and  C_3
REMARK    2  A    between atoms: C_6  and  C_7
REMARK    3  A    between atoms: C_7  and  N_8
REMARK    4  A    between atoms: C_9  and  C_11
REMARK    5  A    between atoms: C_11  and  C_13
REMARK    6  A    between atoms: C_20  and  N_21
REMARK    7  A    between atoms: C_22  and  C_24
REMARK    8  A    between atoms: C_24  and  O_25
REMARK    9  A    between atoms: O_25  and  C_26
REMARK                            x       y       z     vdW  Elec       q    Type
REMARK                         _______ _______ _______ _____ _____    ______ ____
ROOT
ATOM     13  C   UNL     1      -3.399   2.714  24.736  0.00  0.00    +0.039 C 
ATOM     14  C   UNL     1      -3.295   3.182  25.408  0.00  0.00    +0.003 C 
ATOM     15  C   UNL     1      -2.539   3.427  25.627  0.00  0.00    +0.000 C 
ATOM     16  C   UNL     1      -1.886   3.206  25.174  0.00  0.00    +0.002 C 
ATOM     17  C   UNL     1      -1.783   3.672  25.846  0.00  0.00    +0.000 C 
ATOM     18  C   UNL     1      -1.129   3.451  25.393  0.00  0.00    +0.002 C 
ATOM     19  C   UNL     1      -0.477   3.230  24.940  0.00  0.00    +0.022 C 
ATOM     20  C   UNL     1      -0.581   2.762  24.268  0.00  0.00    +0.095 C 
ATOM     32  C   UNL     1      -1.337   2.516  24.049  0.00  0.00    +0.022 C 
ATOM     33  C   UNL     1      -1.440   2.049  23.377  0.00  0.00    +0.002 C 
ATOM     34  C   UNL     1      -1.990   2.738  24.502  0.00  0.00    +0.032 C 
ATOM     35  C   UNL     1      -2.746   2.492  24.283  0.00  0.00    +0.152 C 
ATOM     36  O   UNL     1      -2.850   2.025  23.611  0.00  0.00    -0.223 OA
ENDROOT
BRANCH  20  21
ATOM     21  N   UNL     1       0.073   2.540  23.815  0.00  0.00    -0.204 NA
ATOM     22  C   UNL     1       0.675   2.089  24.152  0.00  0.00    +0.286 C 
ATOM     23  O   UNL     1       0.624   1.857  24.943  0.00  0.00    -0.269 OA
BRANCH  22  24
ATOM     24  C   UNL     1       1.328   1.867  23.699  0.00  0.00    +0.291 C 
BRANCH  24  25
ATOM     25  O   UNL     1       1.674   1.127  23.807  0.00  0.00    -0.466 OA
BRANCH  25  26
ATOM     26  C   UNL     1       2.199   0.830  23.245  0.00  0.00    +0.139 A 
ATOM     27  C   UNL     1       1.972   0.205  22.757  0.00  0.00    +0.037 A 
ATOM     28  C   UNL     1       2.498  -0.092  22.194  0.00  0.00    +0.003 A 
ATOM     29  C   UNL     1       3.251   0.236  22.120  0.00  0.00    +0.000 A 
ATOM     30  C   UNL     1       3.479   0.862  22.609  0.00  0.00    +0.003 A 
ATOM     31  C   UNL     1       2.952   1.158  23.171  0.00  0.00    +0.037 A 
ENDBRANCH  25  26
ENDBRANCH  24  25
ENDBRANCH  22  24
ENDBRANCH  20  21
BRANCH  13  11
ATOM     11  C   UNL     1      -4.156   2.468  24.517  0.00  0.00    +0.081 C 
ATOM     12  C   UNL     1      -4.561   2.866  23.919  0.00  0.00    +0.010 C 
BRANCH  11   9
ATOM      8  N   UNL     1      -4.292   1.056  24.691  0.00  0.00    -0.201 NA
ATOM      9  C   UNL     1      -4.507   1.825  24.896  0.00  0.00    +0.241 C 
ATOM     10  O   UNL     1      -5.076   1.952  25.481  0.00  0.00    -0.273 OA
BRANCH   8   7
ATOM      7  C   UNL     1      -4.643   0.414  25.069  0.00  0.00    +0.141 C 
BRANCH   7   6
ATOM      3  C   UNL     1      -3.661  -1.847  24.846  0.00  0.00    +0.139 A 
ATOM      4  C   UNL     1      -3.534  -1.408  25.533  0.00  0.00    +0.037 A 
ATOM      5  C   UNL     1      -3.861  -0.654  25.607  0.00  0.00    +0.001 A 
ATOM      6  C   UNL     1      -4.316  -0.340  24.995  0.00  0.00    -0.000 A 
ATOM     37  C   UNL     1      -4.443  -0.779  24.308  0.00  0.00    +0.001 A 
ATOM     38  C   UNL     1      -4.116  -1.532  24.233  0.00  0.00    +0.037 A 
BRANCH   3   2
ATOM      1  C   UNL     1      -2.590  -2.695  24.430  0.00  0.00    +0.252 C 
ATOM      2  O   UNL     1      -3.334  -2.600  24.771  0.00  0.00    -0.471 OA
ENDBRANCH   3   2
ENDBRANCH   7   6
ENDBRANCH   8   7
ENDBRANCH  11   9
ENDBRANCH  13  11
TORSDOF 9
ENDMDL
MODEL 2
REMARK VINA RESULT:     -10.6      1.922      3.810
REMARK  Name = 
REMARK  9 active torsions:
REMARK  status: ('A' for Active; 'I' for Inactive)
REMARK    1  A    between atoms: O_2  and  C_3
REMARK    2  A    between atoms: C_6  and  C_7
REMARK    3  A    between atoms: C_7  and  N_8
REMARK    4  A    between atoms: C_9  and  C_11
REMARK    5  A    between atoms: C_11  and  C_13
REMARK    6  A    between atoms: C_20  and  N_21
REMARK    7  A    between atoms: C_22  and  C_24
REMARK    8  A    between atoms: C_24  and  O_25
REMARK    9  A    between atoms: O_25  and  C_26
REMARK                            x       y       z     vdW  Elec       q    Type
REMARK                         _______ _______ _______ _____ _____    ______ ____
ROOT
ATOM     13  C   UNL     1      -2.870  -1.161  25.193  0.00  0.00    +0.039 C 
ATOM     14  C   UNL     1      -2.904  -1.923  24.876  0.00  0.00    +0.003 C 
ATOM     15  C   UNL     1      -2.254  -2.230  24.472  0.00  0.00    +0.000 C 
ATOM     16  C   UNL     1      -1.571  -1.778  24.386  0.00  0.00    +0.002 C 
ATOM     17  C   UNL     1      -1.605  -2.538  24.069  0.00  0.00    +0.000 C 
ATOM     18  C   UNL     1      -0.920  -2.085  23.982  0.00  0.00    +0.002 C 
ATOM     19  C   UNL     1      -0.236  -1.633  23.895  0.00  0.00    +0.022 C 
ATOM     20  C   UNL     1      -0.202  -0.871  24.212  0.00  0.00    +0.095 C 
ATOM     32  C   UNL     1      -0.852  -0.564  24.616  0.00  0.00    +0.022 C 
ATOM     33  C   UNL     1      -0.818   0.197  24.933  0.00  0.00    +0.002 C 
ATOM     34  C   UNL     1      -1.537  -1.016  24.703  0.00  0.00    +0.032 C 
ATOM     35  C   UNL     1      -2.187  -0.708  25.106  0.00  0.00    +0.152 C 
ATOM     36  O   UNL     1      -2.153   0.053  25.423  0.00  0.00    -0.223 OA
ENDROOT
BRANCH  20  21
ATOM     21  N   UNL     1       0.482  -0.419  24.125  0.00  0.00    -0.204 NA
ATOM     22  C   UNL     1       0.809  -0.304  23.377  0.00  0.00    +0.286 C 
ATOM     23  O   UNL     1       0.451  -0.642  22.714  0.00  0.00    -0.269 OA
BRANCH  22  24
ATOM     24  C   UNL     1       1.494   0.148  23.290  0.00  0.00    +0.291 C 
BRANCH  24  25
ATOM     25  O   UNL     1       2.053  -0.055  22.720  0.00  0.00    -0.466 OA
BRANCH  25  26
ATOM     26  C   UNL     1       2.835   0.199  22.799  0.00  0.00    +0.139 A 
ATOM     27  C   UNL     1       3.423  -0.337  23.014  0.00  0.00    +0.037 A 
ATOM     28  C   UNL     1       4.204  -0.083  23.093  0.00  0.00    +0.003 A 
ATOM     29  C   UNL     1       4.396   0.708  22.957  0.00  0.00    +0.000 A 
ATOM     30  C   UNL     1       3.807   1.244  22.741  0.00  0.00    +0.003 A 
ATOM     31  C   UNL     1       3.027   0.989  22.663  0.00  0.00    +0.037 A 
ENDBRANCH  25  26
ENDBRANCH  24  25
ENDBRANCH  22  24
ENDBRANCH  20  21
BRANCH  13  11
ATOM     11  C   UNL     1      -3.521  -0.853  25.597  0.00  0.00    +0.081 C 
ATOM     12  C   UNL     1      -3.563  -0.916  26.418  0.00  0.00    +0.010 C 
BRANCH  11   9
ATOM      8  N   UNL     1      -4.334   0.297  25.354  0.00  0.00    -0.201 NA
ATOM      9  C   UNL     1      -4.129  -0.483  25.180  0.00  0.00    +0.241 C 
ATOM     10  O   UNL     1      -4.533  -0.893  24.588  0.00  0.00    -0.273 OA
BRANCH   8   7
ATOM      7  C   UNL     1      -4.942   0.666  24.937  0.00  0.00    +0.141 C 
BRANCH   7   6
ATOM      3  C   UNL     1      -5.435   3.060  25.328  0.00  0.00    +0.139 A 
ATOM      4  C   UNL     1      -4.860   2.842  24.778  0.00  0.00    +0.037 A 
ATOM      5  C   UNL     1      -4.696   2.044  24.648  0.00  0.00    +0.001 A 
ATOM      6  C   UNL     1      -5.106   1.465  25.067  0.00  0.00    -0.000 A 
ATOM     37  C   UNL     1      -5.681   1.683  25.617  0.00  0.00    +0.001 A 
ATOM     38  C   UNL     1      -5.846   2.480  25.748  0.00  0.00    +0.037 A 
BRANCH   3   2
ATOM      1  C   UNL     1      -4.984   4.401  25.526  0.00  0.00    +0.252 C 
ATOM      2  O   UNL     1      -5.600   3.858  25.459  0.00  0.00    -0.471 OA
ENDBRANCH   3   2
ENDBRANCH   7   6
ENDBRANCH   8   7
ENDBRANCH  11   9
ENDBRANCH  13  11
TORSDOF 9
ENDMDL
MODEL 3
REMARK VINA RESULT:     -10.0      1.603      3.715
REMARK  Name = 
REMARK  9 active torsions:
REMARK  status: ('A' for Active; 'I' for Inactive)
REMARK    1  A    between atoms: O_2  and  C_3
REMARK    2  A    between atoms: C_6  and  C_7
REMARK    3  A    between atoms: C_7  and  N_8
REMARK    4  A    between atoms: C_9  and  C_11
REMARK    5  A    between atoms: C_11  and  C_13
REMARK    6  A    between atoms: C_20  and  N_21
REMARK    7  A    between atoms: C_22  and  C_24
REMARK    8  A    between atoms: C_24  and  O_25
REMARK    9  A    between atoms: O_25  and  C_26
REMARK                            x       y       z     vdW  Elec       q    Type
REMARK                         _______ _______ _______ _____ _____    ______ ____
ROOT
ATOM     13  C   UNL     1      -4.341   0.527  24.969  0.00  0.00    +0.039 C 
ATOM     14  C   UNL     1      -4.425  -0.004  25.597  0.00  0.00    +0.003 C 
ATOM     15  C   UNL     1      -3.838  -0.563  25.745  0.00  0.00    +0.000 C 
ATOM     16  C   UNL     1      -3.166  -0.593  25.268  0.00  0.00    +0.002 C 
ATOM     17  C   UNL     1      -3.251  -1.122  25.894  0.00  0.00    +0.000 C 
ATOM     18  C   UNL     1      -2.578  -1.152  25.417  0.00  0.00    +0.002 C 
ATOM     19  C   UNL     1      -1.906  -1.181  24.940  0.00  0.00    +0.022 C 
ATOM     20  C   UNL     1      -1.822  -0.650  24.313  0.00  0.00    +0.095 C 
ATOM     32  C   UNL     1      -2.409  -0.092  24.164  0.00  0.00    +0.022 C 
ATOM     33  C   UNL     1      -2.324   0.439  23.538  0.00  0.00    +0.002 C 
ATOM     34  C   UNL     1      -3.082  -0.062  24.641  0.00  0.00    +0.032 C 
ATOM     35  C   UNL     1      -3.669   0.497  24.493  0.00  0.00    +0.152 C 
ATOM     36  O   UNL     1      -3.584   1.027  23.866  0.00  0.00    -0.223 OA
ENDROOT
BRANCH  20  21
ATOM     21  N   UNL     1      -1.149  -0.680  23.836  0.00  0.00    -0.204 NA
ATOM     22  C   UNL     1      -0.403  -0.563  24.166  0.00  0.00    +0.286 C 
ATOM     23  O   UNL     1      -0.328  -0.415  24.976  0.00  0.00    -0.269 OA
BRANCH  22  24
ATOM     24  C   UNL     1       0.270  -0.592  23.689  0.00  0.00    +0.291 C 
BRANCH  24  25
ATOM     25  O   UNL     1       0.736   0.080  23.591  0.00  0.00    -0.466 OA
BRANCH  25  26
ATOM     26  C   UNL     1       1.377   0.066  23.071  0.00  0.00    +0.139 A 
ATOM     27  C   UNL     1       1.300  -0.287  22.330  0.00  0.00    +0.037 A 
ATOM     28  C   UNL     1       1.941  -0.301  21.810  0.00  0.00    +0.003 A 
ATOM     29  C   UNL     1       2.659   0.039  22.032  0.00  0.00    +0.000 A 
ATOM     30  C   UNL     1       2.736   0.393  22.774  0.00  0.00    +0.003 A 
ATOM     31  C   UNL     1       2.095   0.406  23.293  0.00  0.00    +0.037 A 
ENDBRANCH  25  26
ENDBRANCH  24  25
ENDBRANCH  22  24
ENDBRANCH  20  21
BRANCH  13  11
ATOM     11  C   UNL     1      -4.929   1.086  24.821  0.00  0.00    +0.081 C 
ATOM     12  C   UNL     1      -5.496   0.943  24.239  0.00  0.00    +0.010 C 
BRANCH  11   9
ATOM      8  N   UNL     1      -4.433   2.403  25.069  0.00  0.00    -0.201 NA
ATOM      9  C   UNL     1      -4.951   1.788  25.253  0.00  0.00    +0.241 C 
ATOM     10  O   UNL     1      -5.492   1.875  25.871  0.00  0.00    -0.273 OA
BRANCH   8   7
ATOM      7  C   UNL     1      -4.455   3.104  25.501  0.00  0.00    +0.141 C 
BRANCH   7   6
ATOM      3  C   UNL     1      -2.512   4.638  25.478  0.00  0.00    +0.139 A 
ATOM      4  C   UNL     1      -2.980   4.555  24.804  0.00  0.00    +0.037 A 
ATOM      5  C   UNL     1      -3.628   4.044  24.812  0.00  0.00    +0.001 A 
ATOM      6  C   UNL     1      -3.808   3.616  25.493  0.00  0.00    -0.000 A 
ATOM     37  C   UNL     1      -3.340   3.698  26.168  0.00  0.00    +0.001 A 
ATOM     38  C   UNL     1      -2.692   4.209  26.161  0.00  0.00    +0.037 A 
BRANCH   3   2
ATOM      1  C   UNL     1      -1.168   4.926  25.091  0.00  0.00    +0.252 C 
ATOM      2  O   UNL     1      -1.865   5.148  25.471  0.00  0.00    -0.471 OA
ENDBRANCH   3   2
ENDBRANCH   7   6
ENDBRANCH   8   7
ENDBRANCH  11   9
ENDBRANCH  13  11
TORSDOF 9
ENDMDL
MODEL 4
REMARK VINA RESULT:      -9.6      2.374      4.668
REMARK  Name = 
REMARK  9 active torsions:
REMARK  status: ('A' for Active; 'I' for Inactive)
REMARK    1  A    between atoms: O_2  and  C_3
REMARK    2  A    between atoms: C_6  and  C_7
REMARK    3  A    between atoms: C_7  and  N_8
REMARK    4  A    between atoms: C_9  and  C_11
REMARK    5  A    between atoms: C_11  and  C_13
REMARK    6  A    between atoms: C_20  and  N_21
REMARK    7  A    between atoms: C_22  and  C_24
REMARK    8  A    between atoms: C_24  and  O_25
REMARK    9  A    between atoms: O_25  and  C_26
REMARK                            x       y       z     vdW  Elec       q    Type
REMARK                         _______ _______ _______ _____ _____    ______ ____
ROOT
ATOM     13  C   UNL     1      -0.787   3.423  25.070  0.00  0.00    +0.039 C 
ATOM     14  C   UNL     1      -0.325   3.405  25.754  0.00  0.00    +0.003 C 
ATOM     15  C   UNL     1      -0.141   2.683  26.108  0.00  0.00    +0.000 C 
ATOM     16  C   UNL     1      -0.418   1.980  25.779  0.00  0.00    +0.002 C 
ATOM     17  C   UNL     1       0.043   1.962  26.462  0.00  0.00    +0.000 C 
ATOM     18  C   UNL     1      -0.234   1.258  26.133  0.00  0.00    +0.002 C 
ATOM     19  C   UNL     1      -0.510   0.554  25.804  0.00  0.00    +0.022 C 
ATOM     20  C   UNL     1      -0.972   0.572  25.120  0.00  0.00    +0.095 C 
ATOM     32  C   UNL     1      -1.156   1.294  24.766  0.00  0.00    +0.022 C 
ATOM     33  C   UNL     1      -1.618   1.312  24.082  0.00  0.00    +0.002 C 
ATOM     34  C   UNL     1      -0.880   1.998  25.095  0.00  0.00    +0.032 C 
ATOM     35  C   UNL     1      -1.064   2.720  24.741  0.00  0.00    +0.152 C 
ATOM     36  O   UNL     1      -1.525   2.738  24.057  0.00  0.00    -0.223 OA
ENDROOT
BRANCH  20  21
ATOM     21  N   UNL     1      -1.249  -0.132  24.791  0.00  0.00    -0.204 NA
ATOM     22  C   UNL     1      -1.642  -0.682  25.263  0.00  0.00    +0.286 C 
ATOM     23  O   UNL     1      -1.759  -0.528  26.066  0.00  0.00    -0.269 OA
BRANCH  22  24
ATOM     24  C   UNL     1      -1.919  -1.386  24.934  0.00  0.00    +0.291 C 
BRANCH  24  25
ATOM     25  O   UNL     1      -2.602  -1.740  25.231  0.00  0.00    -0.466 OA
BRANCH  25  26
ATOM     26  C   UNL     1      -3.147  -2.084  24.716  0.00  0.00    +0.139 A 
ATOM     27  C   UNL     1      -3.068  -2.876  24.500  0.00  0.00    +0.037 A 
ATOM     28  C   UNL     1      -3.613  -3.220  23.985  0.00  0.00    +0.003 A 
ATOM     29  C   UNL     1      -4.237  -2.771  23.686  0.00  0.00    +0.000 A 
ATOM     30  C   UNL     1      -4.316  -1.978  23.901  0.00  0.00    +0.003 A 
ATOM     31  C   UNL     1      -3.771  -1.635  24.417  0.00  0.00    +0.037 A 
ENDBRANCH  25  26
ENDBRANCH  24  25
ENDBRANCH  22  24
ENDBRANCH  20  21
BRANCH  13  11
ATOM     11  C   UNL     1      -0.971   4.145  24.716  0.00  0.00    +0.081 C 
ATOM     12  C   UNL     1      -0.509   4.428  24.094  0.00  0.00    +0.010 C 
BRANCH  11   9
ATOM      8  N   UNL     1      -2.371   4.254  24.979  0.00  0.00    -0.201 NA
ATOM      9  C   UNL     1      -1.616   4.585  24.984  0.00  0.00    +0.241 C 
ATOM     10  O   UNL     1      -1.504   5.356  25.256  0.00  0.00    -0.273 OA
BRANCH   8   7
ATOM      7  C   UNL     1      -3.015   4.694  25.246  0.00  0.00    +0.141 C 
BRANCH   7   6
ATOM      3  C   UNL     1      -5.172   3.573  25.715  0.00  0.00    +0.139 A 
ATOM      4  C   UNL     1      -5.012   3.859  24.958  0.00  0.00    +0.037 A 
ATOM      5  C   UNL     1      -4.293   4.232  24.802  0.00  0.00    +0.001 A 
ATOM      6  C   UNL     1      -3.734   4.320  25.402  0.00  0.00    -0.000 A 
ATOM     37  C   UNL     1      -3.895   4.035  26.160  0.00  0.00    +0.001 A 
ATOM     38  C   UNL     1      -4.613   3.661  26.317  0.00  0.00    +0.037 A 
BRANCH   3   2
ATOM      1  C   UNL     1      -5.964   2.386  25.768  0.00  0.00    +0.252 C 
ATOM      2  O   UNL     1      -5.890   3.200  25.872  0.00  0.00    -0.471 OA
ENDBRANCH   3   2
ENDBRANCH   7   6
ENDBRANCH   8   7
ENDBRANCH  11   9
ENDBRANCH  13  11
TORSDOF 9
ENDMDL
MODEL 5
REMARK VINA RESULT:      -9.5      1.556      4.893
REMARK  Name = 
REMARK  9 active torsions:
REMARK  status: ('A' for Active; 'I' for Inactive)
REMARK    1  A    between atoms: O_2  and  C_3
REMARK    2  A    between atoms: C_6  and  C_7
REMARK    3  A    between atoms: C_7  and  N_8
REMARK    4  A    between atoms: C_9  and  C_11
REMARK    5  A    between atoms: C_11  and  C_13
REMARK    6  A    between atoms: C_20  and  N_21
REMARK    7  A    between atoms: C_22  and  C_24
REMARK    8  A    between atoms: C_24  and  O_25
REMARK    9  A    between atoms: O_25  and  C_26
REMARK                            x       y       z     vdW  Elec       q    Type
REMARK                         _______ _______ _______ _____ _____    ______ ____
ROOT
ATOM     13  C   UNL     1      -4.193   3.637  24.950  0.00  0.00    +0.039 C 
ATOM     14  C   UNL     1      -4.813   3.755  25.483  0.00  0.00    +0.003 C 
ATOM     15  C   UNL     1      -5.291   3.121  25.705  0.00  0.00    +0.000 C 
ATOM     16  C   UNL     1      -5.150   2.370  25.396  0.00  0.00    +0.002 C 
ATOM     17  C   UNL     1      -5.769   2.487  25.927  0.00  0.00    +0.000 C 
ATOM     18  C   UNL     1      -5.628   1.735  25.618  0.00  0.00    +0.002 C 
ATOM     19  C   UNL     1      -5.487   0.984  25.309  0.00  0.00    +0.022 C 
ATOM     20  C   UNL     1      -4.867   0.866  24.776  0.00  0.00    +0.095 C 
ATOM     32  C   UNL     1      -4.390   1.500  24.553  0.00  0.00    +0.022 C 
ATOM     33  C   UNL     1      -3.770   1.383  24.021  0.00  0.00    +0.002 C 
ATOM     34  C   UNL     1      -4.530   2.252  24.863  0.00  0.00    +0.032 C 
ATOM     35  C   UNL     1      -4.053   2.886  24.640  0.00  0.00    +0.152 C 
ATOM     36  O   UNL     1      -3.433   2.769  24.108  0.00  0.00    -0.223 OA
ENDROOT
BRANCH  20  21
ATOM     21  N   UNL     1      -4.727   0.114  24.466  0.00  0.00    -0.204 NA
ATOM     22  C   UNL     1      -4.443  -0.487  24.954  0.00  0.00    +0.286 C 
ATOM     23  O   UNL     1      -4.300  -0.336  25.753  0.00  0.00    -0.269 OA
BRANCH  22  24
ATOM     24  C   UNL     1      -4.303  -1.238  24.645  0.00  0.00    +0.291 C 
BRANCH  24  25
ATOM     25  O   UNL     1      -3.876  -1.792  25.082  0.00  0.00    -0.466 OA
BRANCH  25  26
ATOM     26  C   UNL     1      -3.324  -2.277  24.708  0.00  0.00    +0.139 A 
ATOM     27  C   UNL     1      -3.576  -2.911  24.245  0.00  0.00    +0.037 A 
ATOM     28  C   UNL     1      -3.024  -3.396  23.871  0.00  0.00    +0.003 A 
ATOM     29  C   UNL     1      -2.217  -3.247  23.961  0.00  0.00    +0.000 A 
ATOM     30  C   UNL     1      -1.964  -2.613  24.425  0.00  0.00    +0.003 A 
ATOM     31  C   UNL     1      -2.517  -2.128  24.798  0.00  0.00    +0.037 A 
ENDBRANCH  25  26
ENDBRANCH  24  25
ENDBRANCH  22  24
ENDBRANCH  20  21
BRANCH  13  11
ATOM     11  C   UNL     1      -3.716   4.272  24.727  0.00  0.00    +0.081 C 
ATOM     12  C   UNL     1      -3.948   4.766  24.108  0.00  0.00    +0.010 C 
BRANCH  11   9
ATOM      8  N   UNL     1      -2.299   4.113  24.825  0.00  0.00    -0.201 NA
ATOM      9  C   UNL     1      -3.006   4.414  25.123  0.00  0.00    +0.241 C 
ATOM     10  O   UNL     1      -3.003   4.859  25.819  0.00  0.00    -0.273 OA
BRANCH   8   7
ATOM      7  C   UNL     1      -1.590   4.255  25.221  0.00  0.00    +0.141 C 
BRANCH   7   6
ATOM      3  C   UNL     1       0.280   2.644  25.032  0.00  0.00    +0.139 A 
ATOM      4  C   UNL     1      -0.153   2.693  25.733  0.00  0.00    +0.037 A 
ATOM      5  C   UNL     1      -0.777   3.230  25.795  0.00  0.00    +0.001 A 
ATOM      6  C   UNL     1      -0.967   3.717  25.158  0.00  0.00    -0.000 A 
ATOM     37  C   UNL     1      -0.534   3.668  24.458  0.00  0.00    +0.001 A 
ATOM     38  C   UNL     1       0.090   3.132  24.394  0.00  0.00    +0.037 A 
BRANCH   3   2
ATOM      1  C   UNL     1       0.888   1.525  24.386  0.00  0.00    +0.252 C 
ATOM      2  O   UNL     1       0.903   2.107  24.969  0.00  0.00    -0.471 OA
ENDBRANCH   3   2
ENDBRANCH   7   6
ENDBRANCH   8   7
ENDBRANCH  11   9
ENDBRANCH  13  11
TORSDOF 9
ENDMDL
MODEL 6
REMARK VINA RESULT:      -9.4      2.113      3.147
REMARK  Name = 
REMARK  9 active torsions:
REMARK  status: ('A' for Active; 'I' for Inactive)
REMARK    1  A    between atoms: O_2  and  C_3
REMARK    2  A    between atoms: C_6  and  C_7
REMARK    3  A    between atoms: C_7  and  N_8
REMARK    4  A    between atoms: C_9  and  C_11
REMARK    5  A    between atoms: C_11  and  C_13
REMARK    6  A    between atoms: C_20  and  N_21
REMARK    7  A    between atoms: C_22  and  C_24
REMARK    8  A    between atoms: C_24  and  O_25
REMARK    9  A    between atoms: O_25  and  C_26
REMARK                            x       y       z     vdW  Elec       q    Type
REMARK                         _______ _______ _______ _____ _____    ______ ____
ROOT
ATOM     13  C   UNL     1      -3.248   2.413  24.234  0.00  0.00    +0.039 C 
ATOM     14  C   UNL     1      -2.847   2.201  23.544  0.00  0.00    +0.003 C 
ATOM     15  C   UNL     1      -2.023   2.218  23.525  0.00  0.00    +0.000 C 
ATOM     16  C   UNL     1      -1.599   2.447  24.195  0.00  0.00    +0.002 C 
ATOM     17  C   UNL     1      -1.199   2.236  23.507  0.00  0.00    +0.000 C 
ATOM     18  C   UNL     1      -0.775   2.464  24.177  0.00  0.00    +0.002 C 
ATOM     19  C   UNL     1      -0.352   2.693  24.846  0.00  0.00    +0.022 C 
ATOM     20  C   UNL     1      -0.753   2.904  25.536  0.00  0.00    +0.095 C 
ATOM     32  C   UNL     1      -1.577   2.887  25.555  0.00  0.00    +0.022 C 
ATOM     33  C   UNL     1      -1.979   3.099  26.244  0.00  0.00    +0.002 C 
ATOM     34  C   UNL     1      -2.001   2.659  24.885  0.00  0.00    +0.032 C 
ATOM     35  C   UNL     1      -2.825   2.641  24.904  0.00  0.00    +0.152 C 
ATOM     36  O   UNL     1      -3.227   2.853  25.593  0.00  0.00    -0.223 OA
ENDROOT
BRANCH  20  21
ATOM     21  N   UNL     1      -0.329   3.133  26.206  0.00  0.00    -0.204 NA
ATOM     22  C   UNL     1       0.291   2.665  26.482  0.00  0.00    +0.286 C 
ATOM     23  O   UNL     1       0.489   1.968  26.087  0.00  0.00    -0.269 OA
BRANCH  22  24
ATOM     24  C   UNL     1       0.715   2.894  27.152  0.00  0.00    +0.291 C 
BRANCH  24  25
ATOM     25  O   UNL     1       1.230   2.363  27.516  0.00  0.00    -0.466 OA
BRANCH  25  26
ATOM     26  C   UNL     1       1.507   2.512  28.279  0.00  0.00    +0.139 A 
ATOM     27  C   UNL     1       1.052   2.297  28.932  0.00  0.00    +0.037 A 
ATOM     28  C   UNL     1       1.329   2.446  29.695  0.00  0.00    +0.003 A 
ATOM     29  C   UNL     1       2.060   2.811  29.804  0.00  0.00    +0.000 A 
ATOM     30  C   UNL     1       2.516   3.027  29.150  0.00  0.00    +0.003 A 
ATOM     31  C   UNL     1       2.238   2.877  28.388  0.00  0.00    +0.037 A 
ENDBRANCH  25  26
ENDBRANCH  24  25
ENDBRANCH  22  24
ENDBRANCH  20  21
BRANCH  13  11
ATOM     11  C   UNL     1      -4.073   2.396  24.252  0.00  0.00    +0.081 C 
ATOM     12  C   UNL     1      -4.505   3.021  23.932  0.00  0.00    +0.010 C 
BRANCH  11   9
ATOM      8  N   UNL     1      -4.251   0.984  24.386  0.00  0.00    -0.201 NA
ATOM      9  C   UNL     1      -4.466   1.753  24.590  0.00  0.00    +0.241 C 
ATOM     10  O   UNL     1      -5.076   1.882  25.132  0.00  0.00    -0.273 OA
BRANCH   8   7
ATOM      7  C   UNL     1      -4.644   0.343  24.724  0.00  0.00    +0.141 C 
BRANCH   7   6
ATOM      3  C   UNL     1      -3.656  -1.923  24.598  0.00  0.00    +0.139 A 
ATOM      4  C   UNL     1      -4.092  -1.628  23.963  0.00  0.00    +0.037 A 
ATOM      5  C   UNL     1      -4.421  -0.872  24.006  0.00  0.00    +0.001 A 
ATOM      6  C   UNL     1      -4.314  -0.413  24.681  0.00  0.00    -0.000 A 
ATOM     37  C   UNL     1      -3.878  -0.708  25.316  0.00  0.00    +0.001 A 
ATOM     38  C   UNL     1      -3.548  -1.463  25.275  0.00  0.00    +0.037 A 
BRANCH   3   2
ATOM      1  C   UNL     1      -2.508  -2.769  24.509  0.00  0.00    +0.252 C 
ATOM      2  O   UNL     1      -3.326  -2.678  24.557  0.00  0.00    -0.471 OA
ENDBRANCH   3   2
ENDBRANCH   7   6
ENDBRANCH   8   7
ENDBRANCH  11   9
ENDBRANCH  13  11
TORSDOF 9
ENDMDL
MODEL 7
REMARK VINA RESULT:      -9.2      1.831      6.406
REMARK  Name = 
REMARK  9 active torsions:
REMARK  status: ('A' for Active; 'I' for Inactive)
REMARK    1  A    between atoms: O_2  and  C_3
REMARK    2  A    between atoms: C_6  and  C_7
REMARK    3  A    between atoms: C_7  and  N_8
REMARK    4  A    between atoms: C_9  and  C_11
REMARK    5  A    between atoms: C_11  and  C_13
REMARK    6  A    between atoms: C_20  and  N_21
REMARK    7  A    between atoms: C_22  and  C_24
REMARK    8  A    between atoms: C_24  and  O_25
REMARK    9  A    between atoms: O_25  and  C_26
REMARK                            x       y       z     vdW  Elec       q    Type
REMARK                         _______ _______ _______ _____ _____    ______ ____
ROOT
ATOM     13  C   UNL     1       0.180   0.805  23.921  0.00  0.00    +0.039 C 
ATOM     14  C   UNL     1       0.685   1.458  23.953  0.00  0.00    +0.003 C 
ATOM     15  C   UNL     1       0.415   2.174  24.259  0.00  0.00    +0.000 C 
ATOM     16  C   UNL     1      -0.360   2.239  24.533  0.00  0.00    +0.002 C 
ATOM     17  C   UNL     1       0.144   2.890  24.565  0.00  0.00    +0.000 C 
ATOM     18  C   UNL     1      -0.631   2.955  24.840  0.00  0.00    +0.002 C 
ATOM     19  C   UNL     1      -1.406   3.020  25.114  0.00  0.00    +0.022 C 
ATOM     20  C   UNL     1      -1.911   2.367  25.083  0.00  0.00    +0.095 C 
ATOM     32  C   UNL     1      -1.641   1.651  24.776  0.00  0.00    +0.022 C 
ATOM     33  C   UNL     1      -2.145   0.999  24.745  0.00  0.00    +0.002 C 
ATOM     34  C   UNL     1      -0.865   1.586  24.501  0.00  0.00    +0.032 C 
ATOM     35  C   UNL     1      -0.595   0.870  24.195  0.00  0.00    +0.152 C 
ATOM     36  O   UNL     1      -1.099   0.218  24.164  0.00  0.00    -0.223 OA
ENDROOT
BRANCH  20  21
ATOM     21  N   UNL     1      -2.686   2.433  25.357  0.00  0.00    -0.204 NA
ATOM     22  C   UNL     1      -3.144   3.087  25.152  0.00  0.00    +0.286 C 
ATOM     23  O   UNL     1      -2.825   3.679  24.671  0.00  0.00    -0.269 OA
BRANCH  22  24
ATOM     24  C   UNL     1      -3.919   3.153  25.427  0.00  0.00    +0.291 C 
BRANCH  24  25
ATOM     25  O   UNL     1      -4.551   3.041  24.910  0.00  0.00    -0.466 OA
BRANCH  25  26
ATOM     26  C   UNL     1      -5.231   2.650  25.167  0.00  0.00    +0.139 A 
ATOM     27  C   UNL     1      -5.552   2.822  25.907  0.00  0.00    +0.037 A 
ATOM     28  C   UNL     1      -6.232   2.431  26.164  0.00  0.00    +0.003 A 
ATOM     29  C   UNL     1      -6.591   1.868  25.679  0.00  0.00    +0.000 A 
ATOM     30  C   UNL     1      -6.270   1.696  24.938  0.00  0.00    +0.003 A 
ATOM     31  C   UNL     1      -5.590   2.087  24.683  0.00  0.00    +0.037 A 
ENDBRANCH  25  26
ENDBRANCH  24  25
ENDBRANCH  22  24
ENDBRANCH  20  21
BRANCH  13  11
ATOM     11  C   UNL     1       0.451   0.089  23.614  0.00  0.00    +0.081 C 
ATOM     12  C   UNL     1       0.160  -0.623  23.912  0.00  0.00    +0.010 C 
BRANCH  11   9
ATOM      8  N   UNL     1       1.816   0.049  23.194  0.00  0.00    -0.201 NA
ATOM      9  C   UNL     1       1.014   0.083  23.010  0.00  0.00    +0.241 C 
ATOM     10  O   UNL     1       0.771   0.113  22.221  0.00  0.00    -0.273 OA
BRANCH   8   7
ATOM      7  C   UNL     1       2.378   0.044  22.590  0.00  0.00    +0.141 C 
BRANCH   7   6
ATOM      3  C   UNL     1       4.786   0.228  23.134  0.00  0.00    +0.139 A 
ATOM      4  C   UNL     1       4.379  -0.471  23.296  0.00  0.00    +0.037 A 
ATOM      5  C   UNL     1       3.576  -0.532  23.115  0.00  0.00    +0.001 A 
ATOM      6  C   UNL     1       3.181   0.105  22.772  0.00  0.00    -0.000 A 
ATOM     37  C   UNL     1       3.588   0.804  22.610  0.00  0.00    +0.001 A 
ATOM     38  C   UNL     1       4.390   0.866  22.791  0.00  0.00    +0.037 A 
BRANCH   3   2
ATOM      1  C   UNL     1       5.854   0.117  24.075  0.00  0.00    +0.252 C 
ATOM      2  O   UNL     1       5.588   0.290  23.315  0.00  0.00    -0.471 OA
ENDBRANCH   3   2
ENDBRANCH   7   6
ENDBRANCH   8   7
ENDBRANCH  11   9
ENDBRANCH  13  11
TORSDOF 9
ENDMDL
MODEL 8
REMARK VINA RESULT:      -9.1      1.706      3.264
REMARK  Name = 
REMARK  9 active torsions:
REMARK  status: ('A' for Active; 'I' for Inactive)
REMARK    1  A    between atoms: O_2  and  C_3
REMARK    2  A    between atoms: C_6  and  C_7
REMARK    3  A    between atoms: C_7  and  N_8
REMARK    4  A    between atoms: C_9  and  C_11
REMARK    5  A    between atoms: C_11  and  C_13
REMARK    6  A    between atoms: C_20  and  N_21
REMARK    7  A    between atoms: C_22  and  C_24
REMARK    8  A    between atoms: C_24  and  O_25
REMARK    9  A    between atoms: O_25  and  C_26
REMARK                            x       y       z     vdW  Elec       q    Type
REMARK                         _______ _______ _______ _____ _____    ______ ____
ROOT
ATOM     13  C   UNL     1      -1.836   0.373  24.796  0.00  0.00    +0.039 C 
ATOM     14  C   UNL     1      -1.829   1.185  24.948  0.00  0.00    +0.003 C 
ATOM     15  C   UNL     1      -1.170   1.637  24.745  0.00  0.00    +0.000 C 
ATOM     16  C   UNL     1      -0.518   1.279  24.389  0.00  0.00    +0.002 C 
ATOM     17  C   UNL     1      -0.511   2.089  24.541  0.00  0.00    +0.000 C 
ATOM     18  C   UNL     1       0.142   1.731  24.186  0.00  0.00    +0.002 C 
ATOM     19  C   UNL     1       0.794   1.373  23.830  0.00  0.00    +0.022 C 
ATOM     20  C   UNL     1       0.787   0.561  23.678  0.00  0.00    +0.095 C 
ATOM     32  C   UNL     1       0.128   0.109  23.881  0.00  0.00    +0.022 C 
ATOM     33  C   UNL     1       0.121  -0.702  23.729  0.00  0.00    +0.002 C 
ATOM     34  C   UNL     1      -0.525   0.467  24.237  0.00  0.00    +0.032 C 
ATOM     35  C   UNL     1      -1.184   0.015  24.440  0.00  0.00    +0.152 C 
ATOM     36  O   UNL     1      -1.190  -0.796  24.288  0.00  0.00    -0.223 OA
ENDROOT
BRANCH  20  21
ATOM     21  N   UNL     1       1.440   0.203  23.322  0.00  0.00    -0.204 NA
ATOM     22  C   UNL     1       2.133   0.633  23.205  0.00  0.00    +0.286 C 
ATOM     23  O   UNL     1       2.175   1.423  23.444  0.00  0.00    -0.269 OA
BRANCH  22  24
ATOM     24  C   UNL     1       2.786   0.275  22.849  0.00  0.00    +0.291 C 
BRANCH  24  25
ATOM     25  O   UNL     1       3.511   0.667  22.827  0.00  0.00    -0.466 OA
BRANCH  25  26
ATOM     26  C   UNL     1       4.190   0.298  23.116  0.00  0.00    +0.139 A 
ATOM     27  C   UNL     1       4.880   0.734  23.233  0.00  0.00    +0.037 A 
ATOM     28  C   UNL     1       5.558   0.364  23.522  0.00  0.00    +0.003 A 
ATOM     29  C   UNL     1       5.547  -0.443  23.694  0.00  0.00    +0.000 A 
ATOM     30  C   UNL     1       4.856  -0.880  23.577  0.00  0.00    +0.003 A 
ATOM     31  C   UNL     1       4.178  -0.509  23.288  0.00  0.00    +0.037 A 
ENDBRANCH  25  26
ENDBRANCH  24  25
ENDBRANCH  22  24
ENDBRANCH  20  21
BRANCH  13  11
ATOM     11  C   UNL     1      -2.495  -0.079  24.999  0.00  0.00    +0.081 C 
ATOM     12  C   UNL     1      -2.418  -0.703  25.533  0.00  0.00    +0.010 C 
BRANCH  11   9
ATOM      8  N   UNL     1      -3.729   0.641  25.034  0.00  0.00    -0.201 NA
ATOM      9  C   UNL     1      -3.232   0.093  24.670  0.00  0.00    +0.241 C 
ATOM     10  O   UNL     1      -3.472  -0.285  23.976  0.00  0.00    -0.273 OA
BRANCH   8   7
ATOM      7  C   UNL     1      -4.465   0.812  24.705  0.00  0.00    +0.141 C 
BRANCH   7   6
ATOM      3  C   UNL     1      -5.718   2.816  25.443  0.00  0.00    +0.139 A 
ATOM      4  C   UNL     1      -5.181   2.872  24.819  0.00  0.00    +0.037 A 
ATOM      5  C   UNL     1      -4.763   2.204  24.573  0.00  0.00    +0.001 A 
ATOM      6  C   UNL     1      -4.883   1.480  24.951  0.00  0.00    -0.000 A 
ATOM     37  C   UNL     1      -5.420   1.424  25.575  0.00  0.00    +0.001 A 
ATOM     38  C   UNL     1      -5.837   2.092  25.821  0.00  0.00    +0.037 A 
BRANCH   3   2
ATOM      1  C   UNL     1      -5.776   4.224  25.671  0.00  0.00    +0.252 C 
ATOM      2  O   UNL     1      -6.135   3.483  25.689  0.00  0.00    -0.471 OA
ENDBRANCH   3   2
ENDBRANCH   7   6
ENDBRANCH   8   7
ENDBRANCH  11   9
ENDBRANCH  13  11
TORSDOF 9
ENDMDL
MODEL 9
REMARK VINA RESULT:      -9.0      1.863      6.733
REMARK  Name = 
REMARK  9 active torsions:
REMARK  status: ('A' for Active; 'I' for Inactive)
REMARK    1  A    between atoms: O_2  and  C_3
REMARK    2  A    between atoms: C_6  and  C_7
REMARK    3  A    between atoms: C_7  and  N_8
REMARK    4  A    between atoms: C_9  and  C_11
REMARK    5  A    between atoms: C_11  and  C_13
REMARK    6  A    between atoms: C_20  and  N_21
REMARK    7  A    between atoms: C_22  and  C_24
REMARK    8  A    between atoms: C_24  and  O_25
REMARK    9  A    between atoms: O_25  and  C_26
REMARK                            x       y       z     vdW  Elec       q    Type
REMARK                         _______ _______ _______ _____ _____    ______ ____
ROOT
ATOM     13  C   UNL     1       0.044   0.208  23.897  0.00  0.00    +0.039 C 
ATOM     14  C   UNL     1       0.131  -0.613  23.921  0.00  0.00    +0.003 C 
ATOM     15  C   UNL     1      -0.476  -1.083  24.220  0.00  0.00    +0.000 C 
ATOM     16  C   UNL     1      -1.170  -0.734  24.496  0.00  0.00    +0.002 C 
ATOM     17  C   UNL     1      -1.083  -1.554  24.520  0.00  0.00    +0.000 C 
ATOM     18  C   UNL     1      -1.778  -1.205  24.796  0.00  0.00    +0.002 C 
ATOM     19  C   UNL     1      -2.472  -0.856  25.072  0.00  0.00    +0.022 C 
ATOM     20  C   UNL     1      -2.559  -0.035  25.048  0.00  0.00    +0.095 C 
ATOM     32  C   UNL     1      -1.952   0.435  24.748  0.00  0.00    +0.022 C 
ATOM     33  C   UNL     1      -2.039   1.256  24.724  0.00  0.00    +0.002 C 
ATOM     34  C   UNL     1      -1.257   0.087  24.472  0.00  0.00    +0.032 C 
ATOM     35  C   UNL     1      -0.650   0.557  24.172  0.00  0.00    +0.152 C 
ATOM     36  O   UNL     1      -0.736   1.377  24.148  0.00  0.00    -0.223 OA
ENDROOT
BRANCH  20  21
ATOM     21  N   UNL     1      -3.254   0.314  25.324  0.00  0.00    -0.204 NA
ATOM     22  C   UNL     1      -3.976   0.132  24.971  0.00  0.00    +0.286 C 
ATOM     23  O   UNL     1      -4.005  -0.401  24.341  0.00  0.00    -0.269 OA
BRANCH  22  24
ATOM     24  C   UNL     1      -4.671   0.480  25.247  0.00  0.00    +0.291 C 
BRANCH  24  25
ATOM     25  O   UNL     1      -5.075   1.025  24.778  0.00  0.00    -0.466 OA
BRANCH  25  26
ATOM     26  C   UNL     1      -5.412   1.696  25.120  0.00  0.00    +0.139 A 
ATOM     27  C   UNL     1      -5.958   1.618  25.732  0.00  0.00    +0.037 A 
ATOM     28  C   UNL     1      -6.294   2.289  26.074  0.00  0.00    +0.003 A 
ATOM     29  C   UNL     1      -6.084   3.039  25.803  0.00  0.00    +0.000 A 
ATOM     30  C   UNL     1      -5.537   3.118  25.189  0.00  0.00    +0.003 A 
ATOM     31  C   UNL     1      -5.202   2.446  24.848  0.00  0.00    +0.037 A 
ENDBRANCH  25  26
ENDBRANCH  24  25
ENDBRANCH  22  24
ENDBRANCH  20  21
BRANCH  13  11
ATOM     11  C   UNL     1       0.653   0.678  23.597  0.00  0.00    +0.081 C 
ATOM     12  C   UNL     1       0.716   1.467  23.829  0.00  0.00    +0.010 C 
BRANCH  11   9
ATOM      8  N   UNL     1       2.006   0.418  23.217  0.00  0.00    -0.201 NA
ATOM      9  C   UNL     1       1.198   0.360  23.065  0.00  0.00    +0.241 C 
ATOM     10  O   UNL     1       0.933  -0.018  22.379  0.00  0.00    -0.273 OA
BRANCH   8   7
ATOM      7  C   UNL     1       2.550   0.100  22.686  0.00  0.00    +0.141 C 
BRANCH   7   6
ATOM      3  C   UNL     1       4.967   0.129  23.220  0.00  0.00    +0.139 A 
ATOM      4  C   UNL     1       4.617   0.781  22.856  0.00  0.00    +0.037 A 
ATOM      5  C   UNL     1       3.811   0.772  22.678  0.00  0.00    +0.001 A 
ATOM      6  C   UNL     1       3.356   0.110  22.864  0.00  0.00    -0.000 A 
ATOM     37  C   UNL     1       3.705  -0.542  23.228  0.00  0.00    +0.001 A 
ATOM     38  C   UNL     1       4.510  -0.534  23.406  0.00  0.00    +0.037 A 
BRANCH   3   2
ATOM      1  C   UNL     1       6.048  -0.236  24.079  0.00  0.00    +0.252 C 
ATOM      2  O   UNL     1       5.772   0.137  23.398  0.00  0.00    -0.471 OA
ENDBRANCH   3   2
ENDBRANCH   7   6
ENDBRANCH   8   7
ENDBRANCH  11   9
ENDBRANCH  13  11
TORSDOF 9
ENDMDL
