MODEL 1
REMARK VINA RESULT:      -7.2      0.000      0.000
REMARK  Name = 
REMARK  2 active torsions:
REMARK  status: ('A' for Active; 'I' for Inactive)
REMARK    1  A    between atoms: O_2  and  C_3
REMARK    2  A    between atoms: C_10  and  C_12
REMARK                            x       y       z     vdW  Elec       q    Type
REMARK                         _______ _______ _______ _____ _____    ______ ____
ROOT
ATOM      3  C   UNL     1      -3.257   2.758  23.994  0.00  0.00    +0.164 C 
ATOM      4  C   UNL     1      -4.026   2.460  23.961  0.00  0.00    +0.173 C 
ATOM      5  O   UNL     1      -4.642   2.570  24.499  0.00  0.00    -0.349 OA
ATOM      6  C   UNL     1      -4.642   3.003  25.200  0.00  0.00    +0.164 C 
ATOM      7  C   UNL     1      -4.026   3.434  25.539  0.00  0.00    +0.125 C 
ATOM      8  N   UNL     1      -3.257   3.539  25.258  0.00  0.00    -0.274 N 
ATOM      9  C   UNL     1      -2.915   3.238  24.571  0.00  0.00    +0.126 C 
ATOM     10  C   UNL     1      -2.766   4.006  25.728  0.00  0.00    +0.225 C 
ATOM     11  O   UNL     1      -3.054   4.334  26.428  0.00  0.00    -0.275 OA
ENDROOT
BRANCH  10  12
ATOM     12  C   UNL     1      -1.986   4.146  25.498  0.00  0.00    +0.077 C 
ATOM     13  C   UNL     1      -1.197   3.907  25.464  0.00  0.00    +0.010 C 
ATOM     14  C   UNL     1      -1.424   4.627  25.132  0.00  0.00    +0.010 C 
ENDBRANCH  10  12
BRANCH   3   2
ATOM      1  C   UNL     1      -2.889   1.838  22.965  0.00  0.00    +0.174 C 
ATOM      2  O   UNL     1      -2.765   2.548  23.365  0.00  0.00    -0.349 OA
ENDBRANCH   3   2
TORSDOF 2
ENDMDL
MODEL 2
REMARK VINA RESULT:      -7.1      2.022      3.656
REMARK  Name = 
REMARK  2 active torsions:
REMARK  status: ('A' for Active; 'I' for Inactive)
REMARK    1  A    between atoms: O_2  and  C_3
REMARK    2  A    between atoms: C_10  and  C_12
REMARK                            x       y       z     vdW  Elec       q    Type
REMARK                         _______ _______ _______ _____ _____    ______ ____
ROOT
ATOM      3  C   UNL     1      -4.853   1.791  24.727  0.00  0.00    +0.164 C 
ATOM      4  C   UNL     1      -4.719   2.585  24.545  0.00  0.00    +0.173 C 
ATOM      5  O   UNL     1      -4.062   2.924  24.181  0.00  0.00    -0.349 OA
ATOM      6  C   UNL     1      -3.377   2.556  23.909  0.00  0.00    +0.164 C 
ATOM      7  C   UNL     1      -3.179   1.755  23.933  0.00  0.00    +0.125 C 
ATOM      8  N   UNL     1      -3.618   1.126  24.237  0.00  0.00    -0.274 N 
ATOM      9  C   UNL     1      -4.363   1.142  24.589  0.00  0.00    +0.126 C 
ATOM     10  C   UNL     1      -3.265   0.382  24.179  0.00  0.00    +0.225 C 
ATOM     11  O   UNL     1      -2.520   0.305  23.835  0.00  0.00    -0.275 OA
ENDROOT
BRANCH  10  12
ATOM     12  C   UNL     1      -3.658  -0.284  24.465  0.00  0.00    +0.077 C 
ATOM     13  C   UNL     1      -3.832  -0.800  25.085  0.00  0.00    +0.010 C 
ATOM     14  C   UNL     1      -4.166  -0.923  24.341  0.00  0.00    +0.010 C 
ENDBRANCH  10  12
BRANCH   3   2
ATOM      1  C   UNL     1      -5.932   2.193  25.573  0.00  0.00    +0.174 C 
ATOM      2  O   UNL     1      -5.573   1.625  25.095  0.00  0.00    -0.349 OA
ENDBRANCH   3   2
TORSDOF 2
ENDMDL
MODEL 3
REMARK VINA RESULT:      -7.0      1.978      3.149
REMARK  Name = 
REMARK  2 active torsions:
REMARK  status: ('A' for Active; 'I' for Inactive)
REMARK    1  A    between atoms: O_2  and  C_3
REMARK    2  A    between atoms: C_10  and  C_12
REMARK                            x       y       z     vdW  Elec       q    Type
REMARK                         _______ _______ _______ _____ _____    ______ ____
ROOT
ATOM      3  C   UNL     1      -3.286   1.820  23.637  0.00  0.00    +0.164 C 
ATOM      4  C   UNL     1      -3.420   2.634  23.615  0.00  0.00    +0.173 C 
ATOM      5  O   UNL     1      -3.968   3.076  24.045  0.00  0.00    -0.349 OA
ATOM      6  C   UNL     1      -4.517   2.814  24.602  0.00  0.00    +0.164 C 
ATOM      7  C   UNL     1      -4.653   2.045  24.867  0.00  0.00    +0.125 C 
ATOM      8  N   UNL     1      -4.274   1.348  24.641  0.00  0.00    -0.274 N 
ATOM      9  C   UNL     1      -3.666   1.248  24.093  0.00  0.00    +0.126 C 
ATOM     10  C   UNL     1      -4.539   0.660  25.011  0.00  0.00    +0.225 C 
ATOM     11  O   UNL     1      -5.146   0.698  25.568  0.00  0.00    -0.275 OA
ENDROOT
BRANCH  10  12
ATOM     12  C   UNL     1      -4.197  -0.067  24.824  0.00  0.00    +0.077 C 
ATOM     13  C   UNL     1      -4.170  -0.745  24.354  0.00  0.00    +0.010 C 
ATOM     14  C   UNL     1      -3.630  -0.650  24.970  0.00  0.00    +0.010 C 
ENDBRANCH  10  12
BRANCH   3   2
ATOM      1  C   UNL     1      -2.480   1.977  22.467  0.00  0.00    +0.174 C 
ATOM      2  O   UNL     1      -2.692   1.543  23.135  0.00  0.00    -0.349 OA
ENDBRANCH   3   2
TORSDOF 2
ENDMDL
MODEL 4
REMARK VINA RESULT:      -7.0      2.308      3.476
REMARK  Name = 
REMARK  2 active torsions:
REMARK  status: ('A' for Active; 'I' for Inactive)
REMARK    1  A    between atoms: O_2  and  C_3
REMARK    2  A    between atoms: C_10  and  C_12
REMARK                            x       y       z     vdW  Elec       q    Type
REMARK                         _______ _______ _______ _____ _____    ______ ____
ROOT
ATOM      3  C   UNL     1      -3.741   0.165  24.930  0.00  0.00    +0.164 C 
ATOM      4  C   UNL     1      -3.025  -0.018  24.563  0.00  0.00    +0.173 C 
ATOM      5  O   UNL     1      -2.582   0.444  24.042  0.00  0.00    -0.349 OA
ATOM      6  C   UNL     1      -2.745   1.201  23.760  0.00  0.00    +0.164 C 
ATOM      7  C   UNL     1      -3.391   1.685  23.929  0.00  0.00    +0.125 C 
ATOM      8  N   UNL     1      -4.035   1.530  24.422  0.00  0.00    -0.274 N 
ATOM      9  C   UNL     1      -4.190   0.854  24.867  0.00  0.00    +0.126 C 
ATOM     10  C   UNL     1      -4.597   2.132  24.476  0.00  0.00    +0.225 C 
ATOM     11  O   UNL     1      -4.494   2.832  24.053  0.00  0.00    -0.275 OA
ENDROOT
BRANCH  10  12
ATOM     12  C   UNL     1      -5.262   2.033  24.954  0.00  0.00    +0.077 C 
ATOM     13  C   UNL     1      -6.041   1.780  25.052  0.00  0.00    +0.010 C 
ATOM     14  C   UNL     1      -5.634   2.115  25.687  0.00  0.00    +0.010 C 
ENDBRANCH  10  12
BRANCH   3   2
ATOM      1  C   UNL     1      -3.605  -1.095  25.590  0.00  0.00    +0.174 C 
ATOM      2  O   UNL     1      -4.048  -0.419  25.425  0.00  0.00    -0.349 OA
ENDBRANCH   3   2
TORSDOF 2
ENDMDL
MODEL 5
REMARK VINA RESULT:      -6.9      3.450      4.796
REMARK  Name = 
REMARK  2 active torsions:
REMARK  status: ('A' for Active; 'I' for Inactive)
REMARK    1  A    between atoms: O_2  and  C_3
REMARK    2  A    between atoms: C_10  and  C_12
REMARK                            x       y       z     vdW  Elec       q    Type
REMARK                         _______ _______ _______ _____ _____    ______ ____
ROOT
ATOM      3  C   UNL     1      -1.899  -0.288  24.583  0.00  0.00    +0.164 C 
ATOM      4  C   UNL     1      -1.830   0.519  24.424  0.00  0.00    +0.173 C 
ATOM      5  O   UNL     1      -2.416   1.046  24.179  0.00  0.00    -0.349 OA
ATOM      6  C   UNL     1      -3.213   0.897  24.032  0.00  0.00    +0.164 C 
ATOM      7  C   UNL     1      -3.624   0.184  24.095  0.00  0.00    +0.125 C 
ATOM      8  N   UNL     1      -3.336  -0.556  24.319  0.00  0.00    -0.274 N 
ATOM      9  C   UNL     1      -2.569  -0.766  24.536  0.00  0.00    +0.126 C 
ATOM     10  C   UNL     1      -3.891  -1.167  24.327  0.00  0.00    +0.225 C 
ATOM     11  O   UNL     1      -4.674  -1.016  24.119  0.00  0.00    -0.275 OA
ENDROOT
BRANCH  10  12
ATOM     12  C   UNL     1      -3.661  -1.929  24.543  0.00  0.00    +0.077 C 
ATOM     13  C   UNL     1      -3.491  -2.486  25.129  0.00  0.00    +0.010 C 
ATOM     14  C   UNL     1      -3.433  -2.694  24.332  0.00  0.00    +0.010 C 
ENDBRANCH  10  12
BRANCH   3   2
ATOM      1  C   UNL     1      -0.473  -0.377  24.573  0.00  0.00    +0.174 C 
ATOM      2  O   UNL     1      -1.205  -0.666  24.820  0.00  0.00    -0.349 OA
ENDBRANCH   3   2
TORSDOF 2
ENDMDL
MODEL 6
REMARK VINA RESULT:      -6.9      3.845      5.245
REMARK  Name = 
REMARK  2 active torsions:
REMARK  status: ('A' for Active; 'I' for Inactive)
REMARK    1  A    between atoms: O_2  and  C_3
REMARK    2  A    between atoms: C_10  and  C_12
REMARK                            x       y       z     vdW  Elec       q    Type
REMARK                         _______ _______ _______ _____ _____    ______ ____
ROOT
ATOM      3  C   UNL     1      -2.261   0.127  24.807  0.00  0.00    +0.164 C 
ATOM      4  C   UNL     1      -1.548   0.542  24.806  0.00  0.00    +0.173 C 
ATOM      5  O   UNL     1      -0.781   0.246  24.733  0.00  0.00    -0.349 OA
ATOM      6  C   UNL     1      -0.538  -0.536  24.644  0.00  0.00    +0.164 C 
ATOM      7  C   UNL     1      -1.001  -1.218  24.605  0.00  0.00    +0.125 C 
ATOM      8  N   UNL     1      -1.823  -1.284  24.647  0.00  0.00    -0.274 N 
ATOM      9  C   UNL     1      -2.383  -0.686  24.736  0.00  0.00    +0.126 C 
ATOM     10  C   UNL     1      -2.122  -2.051  24.590  0.00  0.00    +0.225 C 
ATOM     11  O   UNL     1      -1.609  -2.689  24.499  0.00  0.00    -0.275 OA
ENDROOT
BRANCH  10  12
ATOM     12  C   UNL     1      -2.937  -2.178  24.626  0.00  0.00    +0.077 C 
ATOM     13  C   UNL     1      -3.620  -2.323  25.066  0.00  0.00    +0.010 C 
ATOM     14  C   UNL     1      -3.666  -2.254  24.245  0.00  0.00    +0.010 C 
ENDBRANCH  10  12
BRANCH   3   2
ATOM      1  C   UNL     1      -2.904   1.403  24.784  0.00  0.00    +0.174 C 
ATOM      2  O   UNL     1      -2.942   0.586  24.891  0.00  0.00    -0.349 OA
ENDBRANCH   3   2
TORSDOF 2
ENDMDL
