MODEL 1
REMARK VINA RESULT:     -11.0      0.000      0.000
REMARK  Name = 
REMARK  7 active torsions:
REMARK  status: ('A' for Active; 'I' for Inactive)
REMARK    1  A    between atoms: C_2  and  N_4
REMARK    2  A    between atoms: C_11  and  C_13
REMARK    3  A    between atoms: N_15  and  C_16
REMARK    4  A    between atoms: C_16  and  C_17
REMARK    5  A    between atoms: C_16  and  C_24
REMARK    6  A    between atoms: C_17  and  C_18
REMARK    7  A    between atoms: C_27  and  C_29
REMARK                            x       y       z     vdW  Elec       q    Type
REMARK                         _______ _______ _______ _____ _____    ______ ____
ROOT
ATOM      4  N   UNL     1       0.578  -0.268  23.221  0.00  0.00    -0.190 NA
ATOM      5  C   UNL     1       0.144   0.360  23.536  0.00  0.00    +0.323 C 
ATOM      6  O   UNL     1       0.454   1.125  23.519  0.00  0.00    -0.251 OA
ATOM      7  N   UNL     1      -0.598   0.223  23.868  0.00  0.00    -0.259 N 
ATOM      8  C   UNL     1      -0.908  -0.542  23.885  0.00  0.00    +0.117 C 
ATOM      9  C   UNL     1      -1.651  -0.678  24.218  0.00  0.00    +0.116 C 
ATOM     10  N   UNL     1      -2.084  -0.050  24.532  0.00  0.00    -0.266 N 
ATOM     11  C   UNL     1      -1.775   0.715  24.515  0.00  0.00    +0.174 C 
ATOM     12  C   UNL     1      -1.032   0.852  24.183  0.00  0.00    +0.124 C 
ATOM     27  C   UNL     1      -2.826  -0.187  24.864  0.00  0.00    +0.255 C 
ATOM     28  O   UNL     1      -3.260   0.441  25.180  0.00  0.00    -0.269 OA
ENDROOT
BRANCH  27  29
ATOM     29  C   UNL     1      -3.137  -0.952  24.882  0.00  0.00    +0.083 A 
ATOM     30  C   UNL     1      -3.567  -1.313  24.279  0.00  0.00    +0.012 A 
ATOM     31  C   UNL     1      -3.767  -2.074  24.529  0.00  0.00    +0.008 A 
ATOM     32  C   UNL     1      -3.460  -2.181  25.286  0.00  0.00    +0.036 A 
ATOM     33  S   UNL     1      -3.070  -1.488  25.505  0.00  0.00    -0.082 S 
ENDBRANCH  27  29
BRANCH   4   2
ATOM      1  C   UNL     1       1.945   0.119  23.365  0.00  0.00    +0.023 C 
ATOM      2  C   UNL     1       1.321  -0.131  22.889  0.00  0.00    +0.097 C 
ATOM      3  C   UNL     1       1.437  -0.245  22.080  0.00  0.00    +0.023 C 
ENDBRANCH   4   2
BRANCH  11  13
ATOM     13  C   UNL     1      -2.207   1.342  24.830  0.00  0.00    +0.262 C 
ATOM     14  O   UNL     1      -2.629   1.242  25.531  0.00  0.00    -0.271 OA
ATOM     15  N   UNL     1      -2.217   2.071  24.443  0.00  0.00    -0.196 NA
BRANCH  15  16
ATOM     16  C   UNL     1      -2.650   2.699  24.757  0.00  0.00    +0.174 C 
BRANCH  16  24
ATOM     24  C   UNL     1      -3.381   2.901  24.430  0.00  0.00    +0.281 C 
ATOM     25  N   UNL     1      -4.030   3.030  24.921  0.00  0.00    -0.086 NA
ATOM     26  O   UNL     1      -3.460   2.973  23.612  0.00  0.00    -0.270 OA
ENDBRANCH  16  24
BRANCH  16  17
ATOM     17  C   UNL     1      -2.353   3.125  25.397  0.00  0.00    +0.031 C 
BRANCH  17  18
ATOM     18  C   UNL     1      -1.909   3.809  25.268  0.00  0.00    +0.002 C 
ATOM     19  C   UNL     1      -1.126   3.751  25.016  0.00  0.00    +0.000 C 
ATOM     20  C   UNL     1      -0.682   4.433  24.887  0.00  0.00    +0.000 C 
ATOM     21  C   UNL     1      -1.022   5.176  25.009  0.00  0.00    +0.000 C 
ATOM     22  C   UNL     1      -1.805   5.234  25.261  0.00  0.00    +0.000 C 
ATOM     23  C   UNL     1      -2.249   4.550  25.391  0.00  0.00    +0.000 C 
ENDBRANCH  17  18
ENDBRANCH  16  17
ENDBRANCH  15  16
ENDBRANCH  11  13
TORSDOF 7
ENDMDL
MODEL 2
REMARK VINA RESULT:     -11.0      2.014      5.526
REMARK  Name = 
REMARK  7 active torsions:
REMARK  status: ('A' for Active; 'I' for Inactive)
REMARK    1  A    between atoms: C_2  and  N_4
REMARK    2  A    between atoms: C_11  and  C_13
REMARK    3  A    between atoms: N_15  and  C_16
REMARK    4  A    between atoms: C_16  and  C_17
REMARK    5  A    between atoms: C_16  and  C_24
REMARK    6  A    between atoms: C_17  and  C_18
REMARK    7  A    between atoms: C_27  and  C_29
REMARK                            x       y       z     vdW  Elec       q    Type
REMARK                         _______ _______ _______ _____ _____    ______ ____
ROOT
ATOM      4  N   UNL     1      -5.144   2.361  25.335  0.00  0.00    -0.190 NA
ATOM      5  C   UNL     1      -4.676   1.696  25.192  0.00  0.00    +0.323 C 
ATOM      6  O   UNL     1      -5.023   0.948  25.152  0.00  0.00    -0.251 OA
ATOM      7  N   UNL     1      -3.861   1.779  25.090  0.00  0.00    -0.259 N 
ATOM      8  C   UNL     1      -3.514   2.527  25.131  0.00  0.00    +0.117 C 
ATOM      9  C   UNL     1      -2.700   2.611  25.029  0.00  0.00    +0.116 C 
ATOM     10  N   UNL     1      -2.232   1.946  24.887  0.00  0.00    -0.266 N 
ATOM     11  C   UNL     1      -2.578   1.198  24.846  0.00  0.00    +0.174 C 
ATOM     12  C   UNL     1      -3.393   1.114  24.948  0.00  0.00    +0.124 C 
ATOM     27  C   UNL     1      -1.418   2.029  24.785  0.00  0.00    +0.255 C 
ATOM     28  O   UNL     1      -0.949   1.364  24.643  0.00  0.00    -0.269 OA
ENDROOT
BRANCH  27  29
ATOM     29  C   UNL     1      -1.071   2.777  24.825  0.00  0.00    +0.083 A 
ATOM     30  C   UNL     1      -0.857   3.175  25.515  0.00  0.00    +0.012 A 
ATOM     31  C   UNL     1      -0.531   3.901  25.299  0.00  0.00    +0.008 A 
ATOM     32  C   UNL     1      -0.544   3.952  24.477  0.00  0.00    +0.036 A 
ATOM     33  S   UNL     1      -0.878   3.257  24.183  0.00  0.00    -0.082 S 
ENDBRANCH  27  29
BRANCH   4   2
ATOM      1  C   UNL     1      -6.443   2.137  24.785  0.00  0.00    +0.023 C 
ATOM      2  C   UNL     1      -5.959   2.278  25.436  0.00  0.00    +0.097 C 
ATOM      3  C   UNL     1      -6.287   2.335  26.191  0.00  0.00    +0.023 C 
ENDBRANCH   4   2
BRANCH  11  13
ATOM     13  C   UNL     1      -2.111   0.534  24.704  0.00  0.00    +0.262 C 
ATOM     14  O   UNL     1      -1.495   0.572  24.158  0.00  0.00    -0.271 OA
ATOM     15  N   UNL     1      -2.259  -0.170  25.109  0.00  0.00    -0.196 NA
BRANCH  15  16
ATOM     16  C   UNL     1      -1.792  -0.834  24.968  0.00  0.00    +0.174 C 
BRANCH  16  24
ATOM     24  C   UNL     1      -1.153  -1.002  25.463  0.00  0.00    +0.281 C 
ATOM     25  N   UNL     1      -0.437  -1.253  25.139  0.00  0.00    -0.086 NA
ATOM     26  O   UNL     1      -1.230  -0.918  26.280  0.00  0.00    -0.270 OA
ENDBRANCH  16  24
BRANCH  16  17
ATOM     17  C   UNL     1      -1.963  -1.331  24.333  0.00  0.00    +0.031 C 
BRANCH  17  18
ATOM     18  C   UNL     1      -2.600  -1.855  24.379  0.00  0.00    +0.002 C 
ATOM     19  C   UNL     1      -2.559  -2.513  24.875  0.00  0.00    +0.000 C 
ATOM     20  C   UNL     1      -3.195  -3.036  24.920  0.00  0.00    +0.000 C 
ATOM     21  C   UNL     1      -3.873  -2.901  24.469  0.00  0.00    +0.000 C 
ATOM     22  C   UNL     1      -3.914  -2.243  23.973  0.00  0.00    +0.000 C 
ATOM     23  C   UNL     1      -3.278  -1.720  23.928  0.00  0.00    +0.000 C 
ENDBRANCH  17  18
ENDBRANCH  16  17
ENDBRANCH  15  16
ENDBRANCH  11  13
TORSDOF 7
ENDMDL
MODEL 3
REMARK VINA RESULT:     -10.9      1.834      3.654
REMARK  Name = 
REMARK  7 active torsions:
REMARK  status: ('A' for Active; 'I' for Inactive)
REMARK    1  A    between atoms: C_2  and  N_4
REMARK    2  A    between atoms: C_11  and  C_13
REMARK    3  A    between atoms: N_15  and  C_16
REMARK    4  A    between atoms: C_16  and  C_17
REMARK    5  A    between atoms: C_16  and  C_24
REMARK    6  A    between atoms: C_17  and  C_18
REMARK    7  A    between atoms: C_27  and  C_29
REMARK                            x       y       z     vdW  Elec       q    Type
REMARK                         _______ _______ _______ _____ _____    ______ ____
ROOT
ATOM      4  N   UNL     1      -5.295   1.200  25.201  0.00  0.00    -0.190 NA
ATOM      5  C   UNL     1      -4.578   1.603  25.128  0.00  0.00    +0.323 C 
ATOM      6  O   UNL     1      -4.564   2.428  25.147  0.00  0.00    -0.251 OA
ATOM      7  N   UNL     1      -3.875   1.181  25.036  0.00  0.00    -0.259 N 
ATOM      8  C   UNL     1      -3.888   0.355  25.017  0.00  0.00    +0.117 C 
ATOM      9  C   UNL     1      -3.185  -0.067  24.925  0.00  0.00    +0.116 C 
ATOM     10  N   UNL     1      -2.469   0.336  24.852  0.00  0.00    -0.266 N 
ATOM     11  C   UNL     1      -2.455   1.161  24.871  0.00  0.00    +0.174 C 
ATOM     12  C   UNL     1      -3.158   1.583  24.963  0.00  0.00    +0.124 C 
ATOM     27  C   UNL     1      -1.766  -0.086  24.760  0.00  0.00    +0.255 C 
ATOM     28  O   UNL     1      -1.049   0.317  24.687  0.00  0.00    -0.269 OA
ENDROOT
BRANCH  27  29
ATOM     29  C   UNL     1      -1.780  -0.911  24.741  0.00  0.00    +0.083 A 
ATOM     30  C   UNL     1      -2.011  -1.377  24.101  0.00  0.00    +0.012 A 
ATOM     31  C   UNL     1      -1.938  -2.168  24.323  0.00  0.00    +0.008 A 
ATOM     32  C   UNL     1      -1.663  -2.191  25.099  0.00  0.00    +0.036 A 
ATOM     33  S   UNL     1      -1.565  -1.414  25.358  0.00  0.00    -0.082 S 
ENDBRANCH  27  29
BRANCH   4   2
ATOM      1  C   UNL     1      -6.482   1.763  24.641  0.00  0.00    +0.023 C 
ATOM      2  C   UNL     1      -5.998   1.622  25.293  0.00  0.00    +0.097 C 
ATOM      3  C   UNL     1      -6.215   1.903  26.038  0.00  0.00    +0.023 C 
ENDBRANCH   4   2
BRANCH  11  13
ATOM     13  C   UNL     1      -1.739   1.564  24.798  0.00  0.00    +0.262 C 
ATOM     14  O   UNL     1      -1.208   1.356  24.204  0.00  0.00    -0.271 OA
ATOM     15  N   UNL     1      -1.555   2.175  25.321  0.00  0.00    -0.196 NA
BRANCH  15  16
ATOM     16  C   UNL     1      -0.839   2.578  25.249  0.00  0.00    +0.174 C 
BRANCH  16  24
ATOM     24  C   UNL     1      -0.221   2.418  25.773  0.00  0.00    +0.281 C 
ATOM     25  N   UNL     1       0.537   2.273  25.483  0.00  0.00    -0.086 NA
ATOM     26  O   UNL     1      -0.363   2.404  26.586  0.00  0.00    -0.270 OA
ENDBRANCH  16  24
BRANCH  16  17
ATOM     17  C   UNL     1      -0.740   3.140  24.654  0.00  0.00    +0.031 C 
BRANCH  17  18
ATOM     18  C   UNL     1      -0.939   3.929  24.794  0.00  0.00    +0.002 C 
ATOM     19  C   UNL     1      -1.649   4.114  25.171  0.00  0.00    +0.000 C 
ATOM     20  C   UNL     1      -1.848   4.902  25.310  0.00  0.00    +0.000 C 
ATOM     21  C   UNL     1      -1.337   5.505  25.073  0.00  0.00    +0.000 C 
ATOM     22  C   UNL     1      -0.627   5.320  24.697  0.00  0.00    +0.000 C 
ATOM     23  C   UNL     1      -0.428   4.531  24.557  0.00  0.00    +0.000 C 
ENDBRANCH  17  18
ENDBRANCH  16  17
ENDBRANCH  15  16
ENDBRANCH  11  13
TORSDOF 7
ENDMDL
MODEL 4
REMARK VINA RESULT:     -10.8      1.376      4.100
REMARK  Name = 
REMARK  7 active torsions:
REMARK  status: ('A' for Active; 'I' for Inactive)
REMARK    1  A    between atoms: C_2  and  N_4
REMARK    2  A    between atoms: C_11  and  C_13
REMARK    3  A    between atoms: N_15  and  C_16
REMARK    4  A    between atoms: C_16  and  C_17
REMARK    5  A    between atoms: C_16  and  C_24
REMARK    6  A    between atoms: C_17  and  C_18
REMARK    7  A    between atoms: C_27  and  C_29
REMARK                            x       y       z     vdW  Elec       q    Type
REMARK                         _______ _______ _______ _____ _____    ______ ____
ROOT
ATOM      4  N   UNL     1       0.908   0.484  23.201  0.00  0.00    -0.190 NA
ATOM      5  C   UNL     1       0.189   0.236  23.522  0.00  0.00    +0.323 C 
ATOM      6  O   UNL     1      -0.040  -0.555  23.459  0.00  0.00    -0.251 OA
ATOM      7  N   UNL     1      -0.301   0.778  23.906  0.00  0.00    -0.259 N 
ATOM      8  C   UNL     1      -0.072   1.569  23.968  0.00  0.00    +0.117 C 
ATOM      9  C   UNL     1      -0.562   2.111  24.352  0.00  0.00    +0.116 C 
ATOM     10  N   UNL     1      -1.281   1.862  24.672  0.00  0.00    -0.266 N 
ATOM     11  C   UNL     1      -1.510   1.071  24.610  0.00  0.00    +0.174 C 
ATOM     12  C   UNL     1      -1.020   0.529  24.226  0.00  0.00    +0.124 C 
ATOM     27  C   UNL     1      -1.770   2.404  25.055  0.00  0.00    +0.255 C 
ATOM     28  O   UNL     1      -2.490   2.155  25.376  0.00  0.00    -0.269 OA
ENDROOT
BRANCH  27  29
ATOM     29  C   UNL     1      -1.542   3.195  25.118  0.00  0.00    +0.083 A 
ATOM     30  C   UNL     1      -0.935   3.487  25.595  0.00  0.00    +0.012 A 
ATOM     31  C   UNL     1      -0.898   4.304  25.487  0.00  0.00    +0.008 A 
ATOM     32  C   UNL     1      -1.481   4.516  24.944  0.00  0.00    +0.036 A 
ATOM     33  S   UNL     1      -1.879   3.830  24.716  0.00  0.00    -0.082 S 
ENDBRANCH  27  29
BRANCH   4   2
ATOM      1  C   UNL     1       2.084  -0.327  23.188  0.00  0.00    +0.023 C 
ATOM      2  C   UNL     1       1.398  -0.058  22.818  0.00  0.00    +0.097 C 
ATOM      3  C   UNL     1       1.200  -0.331  22.065  0.00  0.00    +0.023 C 
ENDBRANCH   4   2
BRANCH  11  13
ATOM     13  C   UNL     1      -2.228   0.823  24.930  0.00  0.00    +0.262 C 
ATOM     14  O   UNL     1      -2.405   0.985  25.719  0.00  0.00    -0.271 OA
ATOM     15  N   UNL     1      -2.769   0.413  24.461  0.00  0.00    -0.196 NA
BRANCH  15  16
ATOM     16  C   UNL     1      -3.487   0.165  24.781  0.00  0.00    +0.174 C 
BRANCH  16  24
ATOM     24  C   UNL     1      -4.177   0.593  24.627  0.00  0.00    +0.281 C 
ATOM     25  N   UNL     1      -4.714   0.739  25.236  0.00  0.00    -0.086 NA
ATOM     26  O   UNL     1      -4.328   0.873  23.866  0.00  0.00    -0.270 OA
ENDBRANCH  16  24
BRANCH  16  17
ATOM     17  C   UNL     1      -3.517  -0.510  25.252  0.00  0.00    +0.031 C 
BRANCH  17  18
ATOM     18  C   UNL     1      -3.595  -1.255  24.904  0.00  0.00    +0.002 C 
ATOM     19  C   UNL     1      -4.055  -1.347  24.225  0.00  0.00    +0.000 C 
ATOM     20  C   UNL     1      -4.132  -2.090  23.877  0.00  0.00    +0.000 C 
ATOM     21  C   UNL     1      -3.750  -2.743  24.208  0.00  0.00    +0.000 C 
ATOM     22  C   UNL     1      -3.291  -2.651  24.887  0.00  0.00    +0.000 C 
ATOM     23  C   UNL     1      -3.213  -1.906  25.235  0.00  0.00    +0.000 C 
ENDBRANCH  17  18
ENDBRANCH  16  17
ENDBRANCH  15  16
ENDBRANCH  11  13
TORSDOF 7
ENDMDL
MODEL 5
REMARK VINA RESULT:     -10.3      2.105      3.517
REMARK  Name = 
REMARK  7 active torsions:
REMARK  status: ('A' for Active; 'I' for Inactive)
REMARK    1  A    between atoms: C_2  and  N_4
REMARK    2  A    between atoms: C_11  and  C_13
REMARK    3  A    between atoms: N_15  and  C_16
REMARK    4  A    between atoms: C_16  and  C_17
REMARK    5  A    between atoms: C_16  and  C_24
REMARK    6  A    between atoms: C_17  and  C_18
REMARK    7  A    between atoms: C_27  and  C_29
REMARK                            x       y       z     vdW  Elec       q    Type
REMARK                         _______ _______ _______ _____ _____    ______ ____
ROOT
ATOM      4  N   UNL     1      -3.861  -1.821  24.853  0.00  0.00    -0.190 NA
ATOM      5  C   UNL     1      -3.390  -1.209  24.559  0.00  0.00    +0.323 C 
ATOM      6  O   UNL     1      -2.659  -1.380  24.215  0.00  0.00    -0.251 OA
ATOM      7  N   UNL     1      -3.651  -0.428  24.608  0.00  0.00    -0.259 N 
ATOM      8  C   UNL     1      -4.382  -0.257  24.952  0.00  0.00    +0.117 C 
ATOM      9  C   UNL     1      -4.642   0.524  25.001  0.00  0.00    +0.116 C 
ATOM     10  N   UNL     1      -4.171   1.134  24.707  0.00  0.00    -0.266 N 
ATOM     11  C   UNL     1      -3.440   0.965  24.364  0.00  0.00    +0.174 C 
ATOM     12  C   UNL     1      -3.180   0.183  24.314  0.00  0.00    +0.124 C 
ATOM     27  C   UNL     1      -4.431   1.916  24.757  0.00  0.00    +0.255 C 
ATOM     28  O   UNL     1      -3.961   2.527  24.463  0.00  0.00    -0.269 OA
ENDROOT
BRANCH  27  29
ATOM     29  C   UNL     1      -5.163   2.087  25.101  0.00  0.00    +0.083 A 
ATOM     30  C   UNL     1      -5.901   1.922  24.773  0.00  0.00    +0.012 A 
ATOM     31  C   UNL     1      -6.478   2.185  25.302  0.00  0.00    +0.008 A 
ATOM     32  C   UNL     1      -6.095   2.512  25.954  0.00  0.00    +0.036 A 
ATOM     33  S   UNL     1      -5.282   2.451  25.830  0.00  0.00    -0.082 S 
ENDBRANCH  27  29
BRANCH   4   2
ATOM      1  C   UNL     1      -3.761  -3.048  24.129  0.00  0.00    +0.023 C 
ATOM      2  C   UNL     1      -3.601  -2.602  24.803  0.00  0.00    +0.097 C 
ATOM      3  C   UNL     1      -3.179  -2.937  25.429  0.00  0.00    +0.023 C 
ENDBRANCH   4   2
BRANCH  11  13
ATOM     13  C   UNL     1      -2.970   1.575  24.070  0.00  0.00    +0.262 C 
ATOM     14  O   UNL     1      -3.295   2.139  23.564  0.00  0.00    -0.271 OA
ATOM     15  N   UNL     1      -2.175   1.621  24.282  0.00  0.00    -0.196 NA
BRANCH  15  16
ATOM     16  C   UNL     1      -1.704   2.231  23.989  0.00  0.00    +0.174 C 
BRANCH  16  24
ATOM     24  C   UNL     1      -1.434   2.205  23.209  0.00  0.00    +0.281 C 
ATOM     25  N   UNL     1      -1.506   2.870  22.725  0.00  0.00    -0.086 NA
ATOM     26  O   UNL     1      -1.092   1.515  22.914  0.00  0.00    -0.270 OA
ENDBRANCH  16  24
BRANCH  16  17
ATOM     17  C   UNL     1      -1.503   2.867  24.473  0.00  0.00    +0.031 C 
BRANCH  17  18
ATOM     18  C   UNL     1      -0.959   2.763  25.086  0.00  0.00    +0.002 C 
ATOM     19  C   UNL     1      -0.214   2.446  24.928  0.00  0.00    +0.000 C 
ATOM     20  C   UNL     1       0.328   2.342  25.541  0.00  0.00    +0.000 C 
ATOM     21  C   UNL     1       0.126   2.556  26.312  0.00  0.00    +0.000 C 
ATOM     22  C   UNL     1      -0.619   2.873  26.470  0.00  0.00    +0.000 C 
ATOM     23  C   UNL     1      -1.162   2.977  25.857  0.00  0.00    +0.000 C 
ENDBRANCH  17  18
ENDBRANCH  16  17
ENDBRANCH  15  16
ENDBRANCH  11  13
TORSDOF 7
ENDMDL
MODEL 6
REMARK VINA RESULT:     -10.1      1.600      3.704
REMARK  Name = 
REMARK  7 active torsions:
REMARK  status: ('A' for Active; 'I' for Inactive)
REMARK    1  A    between atoms: C_2  and  N_4
REMARK    2  A    between atoms: C_11  and  C_13
REMARK    3  A    between atoms: N_15  and  C_16
REMARK    4  A    between atoms: C_16  and  C_17
REMARK    5  A    between atoms: C_16  and  C_24
REMARK    6  A    between atoms: C_17  and  C_18
REMARK    7  A    between atoms: C_27  and  C_29
REMARK                            x       y       z     vdW  Elec       q    Type
REMARK                         _______ _______ _______ _____ _____    ______ ____
ROOT
ATOM      4  N   UNL     1      -2.717  -1.824  24.742  0.00  0.00    -0.190 NA
ATOM      5  C   UNL     1      -2.988  -1.044  24.712  0.00  0.00    +0.323 C 
ATOM      6  O   UNL     1      -3.784  -0.879  24.858  0.00  0.00    -0.251 OA
ATOM      7  N   UNL     1      -2.465  -0.432  24.535  0.00  0.00    -0.259 N 
ATOM      8  C   UNL     1      -1.669  -0.597  24.389  0.00  0.00    +0.117 C 
ATOM      9  C   UNL     1      -1.146   0.015  24.212  0.00  0.00    +0.116 C 
ATOM     10  N   UNL     1      -1.418   0.794  24.182  0.00  0.00    -0.266 N 
ATOM     11  C   UNL     1      -2.213   0.960  24.328  0.00  0.00    +0.174 C 
ATOM     12  C   UNL     1      -2.736   0.348  24.505  0.00  0.00    +0.124 C 
ATOM     27  C   UNL     1      -0.894   1.407  24.005  0.00  0.00    +0.255 C 
ATOM     28  O   UNL     1      -1.166   2.186  23.974  0.00  0.00    -0.269 OA
ENDROOT
BRANCH  27  29
ATOM     29  C   UNL     1      -0.099   1.241  23.859  0.00  0.00    +0.083 A 
ATOM     30  C   UNL     1       0.193   0.770  23.247  0.00  0.00    +0.012 A 
ATOM     31  C   UNL     1       1.015   0.755  23.309  0.00  0.00    +0.008 A 
ATOM     32  C   UNL     1       1.231   1.216  23.957  0.00  0.00    +0.036 A 
ATOM     33  S   UNL     1       0.542   1.517  24.297  0.00  0.00    -0.082 S 
ENDBRANCH  27  29
BRANCH   4   2
ATOM      1  C   UNL     1      -3.327  -2.692  25.698  0.00  0.00    +0.023 C 
ATOM      2  C   UNL     1      -3.240  -2.436  24.919  0.00  0.00    +0.097 C 
ATOM      3  C   UNL     1      -3.676  -2.792  24.316  0.00  0.00    +0.023 C 
ENDBRANCH   4   2
BRANCH  11  13
ATOM     13  C   UNL     1      -2.484   1.738  24.297  0.00  0.00    +0.262 C 
ATOM     14  O   UNL     1      -2.317   2.208  23.641  0.00  0.00    -0.271 OA
ATOM     15  N   UNL     1      -2.923   2.046  24.924  0.00  0.00    -0.196 NA
BRANCH  15  16
ATOM     16  C   UNL     1      -3.195   2.825  24.895  0.00  0.00    +0.174 C 
BRANCH  16  24
ATOM     24  C   UNL     1      -2.777   3.422  25.282  0.00  0.00    +0.281 C 
ATOM     25  N   UNL     1      -2.614   4.130  24.891  0.00  0.00    -0.086 NA
ATOM     26  O   UNL     1      -2.523   3.311  26.059  0.00  0.00    -0.270 OA
ENDBRANCH  16  24
BRANCH  16  17
ATOM     17  C   UNL     1      -3.883   3.006  24.479  0.00  0.00    +0.031 C 
BRANCH  17  18
ATOM     18  C   UNL     1      -4.621   2.884  24.830  0.00  0.00    +0.002 C 
ATOM     19  C   UNL     1      -5.089   2.246  24.596  0.00  0.00    +0.000 C 
ATOM     20  C   UNL     1      -5.825   2.125  24.946  0.00  0.00    +0.000 C 
ATOM     21  C   UNL     1      -6.095   2.642  25.530  0.00  0.00    +0.000 C 
ATOM     22  C   UNL     1      -5.628   3.280  25.763  0.00  0.00    +0.000 C 
ATOM     23  C   UNL     1      -4.890   3.402  25.413  0.00  0.00    +0.000 C 
ENDBRANCH  17  18
ENDBRANCH  16  17
ENDBRANCH  15  16
ENDBRANCH  11  13
TORSDOF 7
ENDMDL
