MODEL 1
REMARK VINA RESULT:     -11.5      0.000      0.000
REMARK  Name = 
REMARK  6 active torsions:
REMARK  status: ('A' for Active; 'I' for Inactive)
REMARK    1  A    between atoms: O_2  and  C_3
REMARK    2  A    between atoms: C_6  and  C_9
REMARK    3  A    between atoms: C_17  and  C_19
REMARK    4  A    between atoms: C_19  and  S_20
REMARK    5  A    between atoms: S_20  and  C_21
REMARK    6  A    between atoms: C_21  and  C_22
REMARK                            x       y       z     vdW  Elec       q    Type
REMARK                         _______ _______ _______ _____ _____    ______ ____
ROOT
ATOM      9  C   UNL     1      -3.933   0.175  24.687  0.00  0.00    +0.012 A 
ATOM     10  C   UNL     1      -3.287   0.627  24.444  0.00  0.00    +0.041 A 
ATOM     11  C   UNL     1      -2.427   0.534  24.134  0.00  0.00    +0.058 C 
ATOM     12  C   UNL     1      -1.951   0.045  23.971  0.00  0.00    +0.011 C 
ATOM     13  C   UNL     1      -2.002   0.858  23.974  0.00  0.00    +0.043 C 
ATOM     14  C   UNL     1      -1.871   1.835  23.908  0.00  0.00    +0.095 C 
ATOM     15  N   UNL     1      -2.619   2.095  24.174  0.00  0.00    -0.278 N 
ATOM     16  C   UNL     1      -2.285   1.476  24.064  0.00  0.00    +0.099 C 
ATOM     17  C   UNL     1      -3.223   2.618  24.383  0.00  0.00    +0.237 C 
ATOM     18  O   UNL     1      -3.947   2.326  24.651  0.00  0.00    -0.274 OA
ATOM     25  C   UNL     1      -2.900   0.965  24.297  0.00  0.00    +0.110 C 
ATOM     26  N   UNL     1      -3.336   1.451  24.446  0.00  0.00    -0.299 N 
ATOM     27  C   UNL     1      -4.030   1.823  24.691  0.00  0.00    +0.261 A 
ATOM     28  O   UNL     1      -4.315   2.591  24.779  0.00  0.00    -0.267 OA
ATOM     29  C   UNL     1      -4.676   1.371  24.933  0.00  0.00    +0.061 A 
ATOM     30  C   UNL     1      -4.628   0.547  24.931  0.00  0.00    +0.006 A 
ENDROOT
BRANCH   9   6
ATOM      3  C   UNL     1      -3.787  -2.296  24.681  0.00  0.00    +0.139 A 
ATOM      4  C   UNL     1      -3.550  -1.870  25.346  0.00  0.00    +0.037 A 
ATOM      5  C   UNL     1      -3.598  -1.047  25.348  0.00  0.00    +0.003 A 
ATOM      6  C   UNL     1      -3.885  -0.648  24.685  0.00  0.00    +0.001 A 
ATOM      7  C   UNL     1      -4.122  -1.074  24.019  0.00  0.00    +0.003 A 
ATOM      8  C   UNL     1      -4.073  -1.898  24.017  0.00  0.00    +0.037 A 
BRANCH   3   2
ATOM      1  C   UNL     1      -3.083  -3.493  24.345  0.00  0.00    +0.252 C 
ATOM      2  O   UNL     1      -3.739  -3.119  24.679  0.00  0.00    -0.471 OA
ENDBRANCH   3   2
ENDBRANCH   9   6
BRANCH  17  19
ATOM     19  C   UNL     1      -3.102   3.431  24.324  0.00  0.00    +0.143 C 
BRANCH  19  20
ATOM     20  S   UNL     1      -2.732   3.839  24.938  0.00  0.00    -0.119 S 
BRANCH  20  21
ATOM     21  C   UNL     1      -2.498   4.623  24.831  0.00  0.00    +0.172 C 
BRANCH  21  22
ATOM     22  C   UNL     1      -1.994   4.981  25.378  0.00  0.00    +0.376 C 
ATOM     23  O   UNL     1      -2.173   4.951  26.183  0.00  0.00    -0.245 OA
ATOM     24  O   UNL     1      -1.312   5.368  25.120  0.00  0.00    -0.245 OA
ENDBRANCH  21  22
ENDBRANCH  20  21
ENDBRANCH  19  20
ENDBRANCH  17  19
TORSDOF 6
ENDMDL
MODEL 2
REMARK VINA RESULT:     -10.9      1.723      5.126
REMARK  Name = 
REMARK  6 active torsions:
REMARK  status: ('A' for Active; 'I' for Inactive)
REMARK    1  A    between atoms: O_2  and  C_3
REMARK    2  A    between atoms: C_6  and  C_9
REMARK    3  A    between atoms: C_17  and  C_19
REMARK    4  A    between atoms: C_19  and  S_20
REMARK    5  A    between atoms: S_20  and  C_21
REMARK    6  A    between atoms: C_21  and  C_22
REMARK                            x       y       z     vdW  Elec       q    Type
REMARK                         _______ _______ _______ _____ _____    ______ ____
ROOT
ATOM      9  C   UNL     1      -1.548   1.805  25.197  0.00  0.00    +0.012 A 
ATOM     10  C   UNL     1      -2.323   1.576  25.029  0.00  0.00    +0.041 A 
ATOM     11  C   UNL     1      -3.119   1.920  24.726  0.00  0.00    +0.058 C 
ATOM     12  C   UNL     1      -3.412   2.519  24.508  0.00  0.00    +0.011 C 
ATOM     13  C   UNL     1      -3.637   1.744  24.619  0.00  0.00    +0.043 C 
ATOM     14  C   UNL     1      -4.094   0.871  24.688  0.00  0.00    +0.095 C 
ATOM     15  N   UNL     1      -3.462   0.404  24.972  0.00  0.00    -0.278 N 
ATOM     16  C   UNL     1      -3.574   1.083  24.787  0.00  0.00    +0.099 C 
ATOM     17  C   UNL     1      -3.057  -0.264  25.237  0.00  0.00    +0.237 C 
ATOM     18  O   UNL     1      -2.261  -0.208  25.450  0.00  0.00    -0.274 OA
ATOM     25  C   UNL     1      -2.810   1.376  24.937  0.00  0.00    +0.110 C 
ATOM     26  N   UNL     1      -2.554   0.792  25.141  0.00  0.00    -0.299 N 
ATOM     27  C   UNL     1      -2.011   0.237  25.420  0.00  0.00    +0.261 A 
ATOM     28  O   UNL     1      -1.996  -0.566  25.606  0.00  0.00    -0.267 OA
ATOM     29  C   UNL     1      -1.237   0.467  25.587  0.00  0.00    +0.061 A 
ATOM     30  C   UNL     1      -1.005   1.251  25.476  0.00  0.00    +0.006 A 
ENDROOT
BRANCH   9   6
ATOM      3  C   UNL     1      -0.854   4.158  24.861  0.00  0.00    +0.139 A 
ATOM      4  C   UNL     1      -0.741   3.605  24.260  0.00  0.00    +0.037 A 
ATOM      5  C   UNL     1      -0.973   2.821  24.371  0.00  0.00    +0.003 A 
ATOM      6  C   UNL     1      -1.317   2.590  25.085  0.00  0.00    +0.001 A 
ATOM      7  C   UNL     1      -1.429   3.143  25.686  0.00  0.00    +0.003 A 
ATOM      8  C   UNL     1      -1.198   3.927  25.574  0.00  0.00    +0.037 A 
BRANCH   3   2
ATOM      1  C   UNL     1      -1.155   5.554  24.898  0.00  0.00    +0.252 C 
ATOM      2  O   UNL     1      -0.623   4.941  24.749  0.00  0.00    -0.471 OA
ENDBRANCH   3   2
ENDBRANCH   9   6
BRANCH  17  19
ATOM     19  C   UNL     1      -3.448  -0.988  25.291  0.00  0.00    +0.143 C 
BRANCH  19  20
ATOM     20  S   UNL     1      -3.380  -1.540  24.680  0.00  0.00    -0.119 S 
BRANCH  20  21
ATOM     21  C   UNL     1      -3.747  -2.276  24.746  0.00  0.00    +0.172 C 
BRANCH  21  22
ATOM     22  C   UNL     1      -3.792  -2.774  24.090  0.00  0.00    +0.376 C 
ATOM     23  O   UNL     1      -4.408  -2.685  23.547  0.00  0.00    -0.245 OA
ATOM     24  O   UNL     1      -3.223  -3.361  23.976  0.00  0.00    -0.245 OA
ENDBRANCH  21  22
ENDBRANCH  20  21
ENDBRANCH  19  20
ENDBRANCH  17  19
TORSDOF 6
ENDMDL
MODEL 3
REMARK VINA RESULT:     -10.1      2.665      4.546
REMARK  Name = 
REMARK  6 active torsions:
REMARK  status: ('A' for Active; 'I' for Inactive)
REMARK    1  A    between atoms: O_2  and  C_3
REMARK    2  A    between atoms: C_6  and  C_9
REMARK    3  A    between atoms: C_17  and  C_19
REMARK    4  A    between atoms: C_19  and  S_20
REMARK    5  A    between atoms: S_20  and  C_21
REMARK    6  A    between atoms: C_21  and  C_22
REMARK                            x       y       z     vdW  Elec       q    Type
REMARK                         _______ _______ _______ _____ _____    ______ ____
ROOT
ATOM      9  C   UNL     1      -2.143   2.655  24.644  0.00  0.00    +0.012 A 
ATOM     10  C   UNL     1      -2.053   1.837  24.582  0.00  0.00    +0.041 A 
ATOM     11  C   UNL     1      -2.541   1.060  24.627  0.00  0.00    +0.058 C 
ATOM     12  C   UNL     1      -3.194   0.825  24.733  0.00  0.00    +0.011 C 
ATOM     13  C   UNL     1      -2.458   0.510  24.581  0.00  0.00    +0.043 C 
ATOM     14  C   UNL     1      -1.664  -0.052  24.405  0.00  0.00    +0.095 C 
ATOM     15  N   UNL     1      -1.083   0.544  24.333  0.00  0.00    -0.278 N 
ATOM     16  C   UNL     1      -1.783   0.503  24.458  0.00  0.00    +0.099 C 
ATOM     17  C   UNL     1      -0.341   0.885  24.217  0.00  0.00    +0.237 C 
ATOM     18  O   UNL     1      -0.254   1.706  24.247  0.00  0.00    -0.274 OA
ATOM     25  C   UNL     1      -1.940   1.317  24.532  0.00  0.00    +0.110 C 
ATOM     26  N   UNL     1      -1.309   1.515  24.429  0.00  0.00    -0.299 N 
ATOM     27  C   UNL     1      -0.655   2.010  24.337  0.00  0.00    +0.261 A 
ATOM     28  O   UNL     1       0.152   1.938  24.187  0.00  0.00    -0.267 OA
ATOM     29  C   UNL     1      -0.746   2.828  24.400  0.00  0.00    +0.061 A 
ATOM     30  C   UNL     1      -1.490   3.150  24.553  0.00  0.00    +0.006 A 
ENDROOT
BRANCH   9   6
ATOM      3  C   UNL     1      -4.375   3.621  25.104  0.00  0.00    +0.139 A 
ATOM      4  C   UNL     1      -3.865   3.447  25.728  0.00  0.00    +0.037 A 
ATOM      5  C   UNL     1      -3.121   3.124  25.575  0.00  0.00    +0.003 A 
ATOM      6  C   UNL     1      -2.887   2.977  24.798  0.00  0.00    +0.001 A 
ATOM      7  C   UNL     1      -3.398   3.151  24.174  0.00  0.00    +0.003 A 
ATOM      8  C   UNL     1      -4.142   3.474  24.327  0.00  0.00    +0.037 A 
BRANCH   3   2
ATOM      1  C   UNL     1      -5.675   3.511  25.689  0.00  0.00    +0.252 C 
ATOM      2  O   UNL     1      -5.119   3.943  25.258  0.00  0.00    -0.471 OA
ENDBRANCH   3   2
ENDBRANCH   9   6
BRANCH  17  19
ATOM     19  C   UNL     1       0.314   0.406  24.071  0.00  0.00    +0.143 C 
BRANCH  19  20
ATOM     20  S   UNL     1       0.625   0.353  23.308  0.00  0.00    -0.119 S 
BRANCH  20  21
ATOM     21  C   UNL     1       1.221  -0.193  23.142  0.00  0.00    +0.172 C 
BRANCH  21  22
ATOM     22  C   UNL     1       1.656  -0.128  22.444  0.00  0.00    +0.376 C 
ATOM     23  O   UNL     1       1.319  -0.358  21.726  0.00  0.00    -0.245 OA
ATOM     24  O   UNL     1       2.427   0.165  22.463  0.00  0.00    -0.245 OA
ENDBRANCH  21  22
ENDBRANCH  20  21
ENDBRANCH  19  20
ENDBRANCH  17  19
TORSDOF 6
ENDMDL
