MODEL 1
REMARK VINA RESULT:     -11.6      0.000      0.000
REMARK  Name = 
REMARK  6 active torsions:
REMARK  status: ('A' for Active; 'I' for Inactive)
REMARK    1  A    between atoms: C_2  and  C_3
REMARK    2  A    between atoms: C_2  and  C_21
REMARK    3  A    between atoms: C_10  and  N_11
REMARK    4  A    between atoms: N_11  and  S_12
REMARK    5  A    between atoms: N_23  and  C_24
REMARK    6  A    between atoms: C_24  and  C_25
REMARK                            x       y       z     vdW  Elec       q    Type
REMARK                         _______ _______ _______ _____ _____    ______ ____
ROOT
ATOM      3  C   UNL     1      -4.259   2.185  24.400  0.00  0.00    +0.039 C 
ATOM      4  C   UNL     1      -4.809   2.064  25.002  0.00  0.00    +0.003 C 
ATOM      5  C   UNL     1      -4.960   1.301  25.275  0.00  0.00    +0.000 C 
ATOM      6  C   UNL     1      -4.561   0.658  24.944  0.00  0.00    +0.002 C 
ATOM      7  C   UNL     1      -5.112   0.536  25.547  0.00  0.00    +0.000 C 
ATOM      8  C   UNL     1      -4.713  -0.106  25.217  0.00  0.00    +0.002 C 
ATOM      9  C   UNL     1      -4.314  -0.748  24.887  0.00  0.00    +0.019 C 
ATOM     10  C   UNL     1      -3.763  -0.627  24.284  0.00  0.00    +0.097 C 
ATOM     16  C   UNL     1      -3.612   0.137  24.012  0.00  0.00    +0.020 C 
ATOM     17  C   UNL     1      -3.062   0.258  23.410  0.00  0.00    +0.002 C 
ATOM     18  C   UNL     1      -4.011   0.779  24.342  0.00  0.00    +0.032 C 
ATOM     19  C   UNL     1      -3.859   1.542  24.070  0.00  0.00    +0.152 C 
ATOM     20  O   UNL     1      -3.309   1.664  23.467  0.00  0.00    -0.223 OA
ENDROOT
BRANCH   3   2
ATOM      1  C   UNL     1      -4.267   3.146  23.342  0.00  0.00    +0.010 C 
ATOM      2  C   UNL     1      -4.107   2.949  24.127  0.00  0.00    +0.081 C 
BRANCH   2  21
ATOM     21  C   UNL     1      -3.795   3.516  24.638  0.00  0.00    +0.241 C 
ATOM     22  O   UNL     1      -4.295   3.937  25.143  0.00  0.00    -0.273 OA
ATOM     23  N   UNL     1      -2.983   3.664  24.645  0.00  0.00    -0.201 NA
BRANCH  23  24
ATOM     24  C   UNL     1      -2.671   4.230  25.156  0.00  0.00    +0.143 C 
BRANCH  24  25
ATOM     25  C   UNL     1      -1.869   4.421  25.122  0.00  0.00    +0.019 A 
ATOM     26  C   UNL     1      -1.300   3.841  25.262  0.00  0.00    +0.001 A 
ATOM     27  C   UNL     1      -0.498   4.031  25.228  0.00  0.00    +0.020 A 
ATOM     28  C   UNL     1      -0.265   4.803  25.054  0.00  0.00    +0.099 A 
ATOM     29  N   UNL     1      -0.834   5.385  24.913  0.00  0.00    -0.243 NA
ATOM     30  C   UNL     1      -1.636   5.193  24.948  0.00  0.00    +0.096 A 
ENDBRANCH  24  25
ENDBRANCH  23  24
ENDBRANCH   2  21
ENDBRANCH   3   2
BRANCH  10  11
ATOM     11  N   UNL     1      -3.365  -1.269  23.955  0.00  0.00    -0.083 NA
BRANCH  11  12
ATOM     12  S   UNL     1      -3.475  -2.026  24.264  0.00  0.00    +0.059 S 
ATOM     13  C   UNL     1      -3.586  -2.784  24.572  0.00  0.00    +0.197 C 
ATOM     14  O   UNL     1      -4.116  -2.139  23.756  0.00  0.00    -0.156 OA
ATOM     15  O   UNL     1      -2.835  -1.914  24.771  0.00  0.00    -0.156 OA
ENDBRANCH  11  12
ENDBRANCH  10  11
TORSDOF 6
ENDMDL
MODEL 2
REMARK VINA RESULT:     -10.5      2.461      5.741
REMARK  Name = 
REMARK  6 active torsions:
REMARK  status: ('A' for Active; 'I' for Inactive)
REMARK    1  A    between atoms: C_2  and  C_3
REMARK    2  A    between atoms: C_2  and  C_21
REMARK    3  A    between atoms: C_10  and  N_11
REMARK    4  A    between atoms: N_11  and  S_12
REMARK    5  A    between atoms: N_23  and  C_24
REMARK    6  A    between atoms: C_24  and  C_25
REMARK                            x       y       z     vdW  Elec       q    Type
REMARK                         _______ _______ _______ _____ _____    ______ ____
ROOT
ATOM      3  C   UNL     1      -0.697   0.598  24.990  0.00  0.00    +0.039 C 
ATOM      4  C   UNL     1      -0.426   0.680  25.764  0.00  0.00    +0.003 C 
ATOM      5  C   UNL     1      -0.408   1.424  26.119  0.00  0.00    +0.000 C 
ATOM      6  C   UNL     1      -0.661   2.088  25.698  0.00  0.00    +0.002 C 
ATOM      7  C   UNL     1      -0.390   2.169  26.473  0.00  0.00    +0.000 C 
ATOM      8  C   UNL     1      -0.643   2.833  26.052  0.00  0.00    +0.002 C 
ATOM      9  C   UNL     1      -0.896   3.496  25.632  0.00  0.00    +0.019 C 
ATOM     10  C   UNL     1      -1.167   3.414  24.856  0.00  0.00    +0.097 C 
ATOM     16  C   UNL     1      -1.185   2.669  24.503  0.00  0.00    +0.020 C 
ATOM     17  C   UNL     1      -1.456   2.588  23.728  0.00  0.00    +0.002 C 
ATOM     18  C   UNL     1      -0.932   2.006  24.923  0.00  0.00    +0.032 C 
ATOM     19  C   UNL     1      -0.950   1.262  24.569  0.00  0.00    +0.152 C 
ATOM     20  O   UNL     1      -1.222   1.179  23.794  0.00  0.00    -0.223 OA
ENDROOT
BRANCH   3   2
ATOM      1  C   UNL     1      -0.284  -0.285  23.946  0.00  0.00    +0.010 C 
ATOM      2  C   UNL     1      -0.716  -0.147  24.635  0.00  0.00    +0.081 C 
BRANCH   2  21
ATOM     21  C   UNL     1      -1.165  -0.752  24.969  0.00  0.00    +0.241 C 
ATOM     22  O   UNL     1      -0.880  -1.164  25.626  0.00  0.00    -0.273 OA
ATOM     23  N   UNL     1      -1.899  -0.948  24.647  0.00  0.00    -0.201 NA
BRANCH  23  24
ATOM     24  C   UNL     1      -2.349  -1.553  24.980  0.00  0.00    +0.143 C 
BRANCH  24  25
ATOM     25  C   UNL     1      -3.039  -1.809  24.607  0.00  0.00    +0.019 A 
ATOM     26  C   UNL     1      -3.638  -1.270  24.433  0.00  0.00    +0.001 A 
ATOM     27  C   UNL     1      -4.329  -1.526  24.061  0.00  0.00    +0.020 A 
ATOM     28  C   UNL     1      -4.419  -2.321  23.862  0.00  0.00    +0.099 A 
ATOM     29  N   UNL     1      -3.819  -2.861  24.036  0.00  0.00    -0.243 NA
ATOM     30  C   UNL     1      -3.129  -2.604  24.409  0.00  0.00    +0.096 A 
ENDBRANCH  24  25
ENDBRANCH  23  24
ENDBRANCH   2  21
ENDBRANCH   3   2
BRANCH  10  11
ATOM     11  N   UNL     1      -1.420   4.076  24.436  0.00  0.00    -0.083 NA
BRANCH  11  12
ATOM     12  S   UNL     1      -1.512   4.800  24.823  0.00  0.00    +0.059 S 
ATOM     13  C   UNL     1      -1.604   5.524  25.209  0.00  0.00    +0.197 C 
ATOM     14  O   UNL     1      -0.729   4.993  24.646  0.00  0.00    -0.156 OA
ATOM     15  O   UNL     1      -2.293   4.607  24.999  0.00  0.00    -0.156 OA
ENDBRANCH  11  12
ENDBRANCH  10  11
TORSDOF 6
ENDMDL
MODEL 3
REMARK VINA RESULT:     -10.2      2.503      4.519
REMARK  Name = 
REMARK  6 active torsions:
REMARK  status: ('A' for Active; 'I' for Inactive)
REMARK    1  A    between atoms: C_2  and  C_3
REMARK    2  A    between atoms: C_2  and  C_21
REMARK    3  A    between atoms: C_10  and  N_11
REMARK    4  A    between atoms: N_11  and  S_12
REMARK    5  A    between atoms: N_23  and  C_24
REMARK    6  A    between atoms: C_24  and  C_25
REMARK                            x       y       z     vdW  Elec       q    Type
REMARK                         _______ _______ _______ _____ _____    ______ ____
ROOT
ATOM      3  C   UNL     1      -1.379   2.913  24.727  0.00  0.00    +0.039 C 
ATOM      4  C   UNL     1      -1.221   3.362  25.400  0.00  0.00    +0.003 C 
ATOM      5  C   UNL     1      -1.842   3.685  25.836  0.00  0.00    +0.000 C 
ATOM      6  C   UNL     1      -2.623   3.559  25.598  0.00  0.00    +0.002 C 
ATOM      7  C   UNL     1      -2.464   4.008  26.272  0.00  0.00    +0.000 C 
ATOM      8  C   UNL     1      -3.244   3.882  26.034  0.00  0.00    +0.002 C 
ATOM      9  C   UNL     1      -4.024   3.756  25.796  0.00  0.00    +0.019 C 
ATOM     10  C   UNL     1      -4.182   3.307  25.122  0.00  0.00    +0.097 C 
ATOM     16  C   UNL     1      -3.561   2.984  24.687  0.00  0.00    +0.020 C 
ATOM     17  C   UNL     1      -3.720   2.536  24.013  0.00  0.00    +0.002 C 
ATOM     18  C   UNL     1      -2.781   3.110  24.924  0.00  0.00    +0.032 C 
ATOM     19  C   UNL     1      -2.160   2.787  24.489  0.00  0.00    +0.152 C 
ATOM     20  O   UNL     1      -2.318   2.338  23.814  0.00  0.00    -0.223 OA
ENDROOT
BRANCH   3   2
ATOM      1  C   UNL     1      -0.572   2.898  23.548  0.00  0.00    +0.010 C 
ATOM      2  C   UNL     1      -0.758   2.590  24.290  0.00  0.00    +0.081 C 
BRANCH   2  21
ATOM     21  C   UNL     1      -0.323   1.959  24.595  0.00  0.00    +0.241 C 
ATOM     22  O   UNL     1       0.380   2.102  25.005  0.00  0.00    -0.273 OA
ATOM     23  N   UNL     1      -0.590   1.185  24.492  0.00  0.00    -0.201 NA
BRANCH  23  24
ATOM     24  C   UNL     1      -0.155   0.555  24.797  0.00  0.00    +0.143 C 
BRANCH  24  25
ATOM     25  C   UNL     1      -0.483  -0.202  24.818  0.00  0.00    +0.019 A 
ATOM     26  C   UNL     1      -0.939  -0.437  25.463  0.00  0.00    +0.001 A 
ATOM     27  C   UNL     1      -1.267  -1.194  25.484  0.00  0.00    +0.020 A 
ATOM     28  C   UNL     1      -1.139  -1.716  24.857  0.00  0.00    +0.099 A 
ATOM     29  N   UNL     1      -0.683  -1.480  24.211  0.00  0.00    -0.243 NA
ATOM     30  C   UNL     1      -0.355  -0.724  24.191  0.00  0.00    +0.096 A 
ENDBRANCH  24  25
ENDBRANCH  23  24
ENDBRANCH   2  21
ENDBRANCH   3   2
BRANCH  10  11
ATOM     11  N   UNL     1      -4.961   3.182  24.884  0.00  0.00    -0.083 NA
BRANCH  11  12
ATOM     12  S   UNL     1      -5.551   3.063  25.450  0.00  0.00    +0.059 S 
ATOM     13  C   UNL     1      -6.142   2.945  26.015  0.00  0.00    +0.197 C 
ATOM     14  O   UNL     1      -5.714   3.872  25.448  0.00  0.00    -0.156 OA
ATOM     15  O   UNL     1      -5.389   2.255  25.451  0.00  0.00    -0.156 OA
ENDBRANCH  11  12
ENDBRANCH  10  11
TORSDOF 6
ENDMDL
MODEL 4
REMARK VINA RESULT:     -10.2      1.816      2.457
REMARK  Name = 
REMARK  6 active torsions:
REMARK  status: ('A' for Active; 'I' for Inactive)
REMARK    1  A    between atoms: C_2  and  C_3
REMARK    2  A    between atoms: C_2  and  C_21
REMARK    3  A    between atoms: C_10  and  N_11
REMARK    4  A    between atoms: N_11  and  S_12
REMARK    5  A    between atoms: N_23  and  C_24
REMARK    6  A    between atoms: C_24  and  C_25
REMARK                            x       y       z     vdW  Elec       q    Type
REMARK                         _______ _______ _______ _____ _____    ______ ____
ROOT
ATOM      3  C   UNL     1      -1.306   0.930  24.412  0.00  0.00    +0.039 C 
ATOM      4  C   UNL     1      -2.007   1.288  24.168  0.00  0.00    +0.003 C 
ATOM      5  C   UNL     1      -2.698   0.842  24.106  0.00  0.00    +0.000 C 
ATOM      6  C   UNL     1      -2.686   0.036  24.287  0.00  0.00    +0.002 C 
ATOM      7  C   UNL     1      -3.389   0.394  24.043  0.00  0.00    +0.000 C 
ATOM      8  C   UNL     1      -3.377  -0.411  24.224  0.00  0.00    +0.002 C 
ATOM      9  C   UNL     1      -3.366  -1.215  24.405  0.00  0.00    +0.019 C 
ATOM     10  C   UNL     1      -2.663  -1.574  24.648  0.00  0.00    +0.097 C 
ATOM     16  C   UNL     1      -1.973  -1.127  24.711  0.00  0.00    +0.020 C 
ATOM     17  C   UNL     1      -1.271  -1.485  24.955  0.00  0.00    +0.002 C 
ATOM     18  C   UNL     1      -1.984  -0.322  24.530  0.00  0.00    +0.032 C 
ATOM     19  C   UNL     1      -1.294   0.124  24.593  0.00  0.00    +0.152 C 
ATOM     20  O   UNL     1      -0.591  -0.233  24.836  0.00  0.00    -0.223 OA
ENDROOT
BRANCH   3   2
ATOM      1  C   UNL     1       0.014   1.238  23.958  0.00  0.00    +0.010 C 
ATOM      2  C   UNL     1      -0.614   1.377  24.475  0.00  0.00    +0.081 C 
BRANCH   2  21
ATOM     21  C   UNL     1      -0.551   1.961  25.053  0.00  0.00    +0.241 C 
ATOM     22  O   UNL     1      -0.271   1.767  25.806  0.00  0.00    -0.273 OA
ATOM     23  N   UNL     1      -0.767   2.738  24.881  0.00  0.00    -0.201 NA
BRANCH  23  24
ATOM     24  C   UNL     1      -0.704   3.322  25.459  0.00  0.00    +0.143 C 
BRANCH  24  25
ATOM     25  C   UNL     1      -1.020   4.073  25.325  0.00  0.00    +0.019 A 
ATOM     26  C   UNL     1      -1.787   4.247  25.570  0.00  0.00    +0.001 A 
ATOM     27  C   UNL     1      -2.104   4.997  25.436  0.00  0.00    +0.020 A 
ATOM     28  C   UNL     1      -1.651   5.573  25.056  0.00  0.00    +0.099 A 
ATOM     29  N   UNL     1      -0.883   5.399  24.811  0.00  0.00    -0.243 NA
ATOM     30  C   UNL     1      -0.568   4.648  24.945  0.00  0.00    +0.096 A 
ENDBRANCH  24  25
ENDBRANCH  23  24
ENDBRANCH   2  21
ENDBRANCH   3   2
BRANCH  10  11
ATOM     11  N   UNL     1      -2.652  -2.378  24.829  0.00  0.00    -0.083 NA
BRANCH  11  12
ATOM     12  S   UNL     1      -3.304  -2.851  24.649  0.00  0.00    +0.059 S 
ATOM     13  C   UNL     1      -3.957  -3.324  24.469  0.00  0.00    +0.197 C 
ATOM     14  O   UNL     1      -2.999  -2.984  23.894  0.00  0.00    -0.156 OA
ATOM     15  O   UNL     1      -3.609  -2.718  25.404  0.00  0.00    -0.156 OA
ENDBRANCH  11  12
ENDBRANCH  10  11
TORSDOF 6
ENDMDL
MODEL 5
REMARK VINA RESULT:     -10.1      2.268      3.496
REMARK  Name = 
REMARK  6 active torsions:
REMARK  status: ('A' for Active; 'I' for Inactive)
REMARK    1  A    between atoms: C_2  and  C_3
REMARK    2  A    between atoms: C_2  and  C_21
REMARK    3  A    between atoms: C_10  and  N_11
REMARK    4  A    between atoms: N_11  and  S_12
REMARK    5  A    between atoms: N_23  and  C_24
REMARK    6  A    between atoms: C_24  and  C_25
REMARK                            x       y       z     vdW  Elec       q    Type
REMARK                         _______ _______ _______ _____ _____    ______ ____
ROOT
ATOM      3  C   UNL     1      -0.357   1.824  25.138  0.00  0.00    +0.039 C 
ATOM      4  C   UNL     1       0.029   1.796  24.409  0.00  0.00    +0.003 C 
ATOM      5  C   UNL     1       0.055   1.091  23.983  0.00  0.00    +0.000 C 
ATOM      6  C   UNL     1      -0.305   0.412  24.286  0.00  0.00    +0.002 C 
ATOM      7  C   UNL     1       0.081   0.384  23.557  0.00  0.00    +0.000 C 
ATOM      8  C   UNL     1      -0.279  -0.294  23.860  0.00  0.00    +0.002 C 
ATOM      9  C   UNL     1      -0.639  -0.972  24.162  0.00  0.00    +0.019 C 
ATOM     10  C   UNL     1      -1.025  -0.944  24.892  0.00  0.00    +0.097 C 
ATOM     16  C   UNL     1      -1.051  -0.238  25.317  0.00  0.00    +0.020 C 
ATOM     17  C   UNL     1      -1.437  -0.210  26.046  0.00  0.00    +0.002 C 
ATOM     18  C   UNL     1      -0.691   0.440  25.015  0.00  0.00    +0.032 C 
ATOM     19  C   UNL     1      -0.717   1.145  25.440  0.00  0.00    +0.152 C 
ATOM     20  O   UNL     1      -1.103   1.174  26.169  0.00  0.00    -0.223 OA
ENDROOT
BRANCH   3   2
ATOM      1  C   UNL     1       0.044   2.603  26.267  0.00  0.00    +0.010 C 
ATOM      2  C   UNL     1      -0.383   2.530  25.564  0.00  0.00    +0.081 C 
BRANCH   2  21
ATOM     21  C   UNL     1      -0.835   3.162  25.289  0.00  0.00    +0.241 C 
ATOM     22  O   UNL     1      -0.489   3.739  24.810  0.00  0.00    -0.273 OA
ATOM     23  N   UNL     1      -1.632   3.219  25.492  0.00  0.00    -0.201 NA
BRANCH  23  24
ATOM     24  C   UNL     1      -2.084   3.852  25.217  0.00  0.00    +0.143 C 
BRANCH  24  25
ATOM     25  C   UNL     1      -2.907   3.825  25.268  0.00  0.00    +0.019 A 
ATOM     26  C   UNL     1      -3.357   3.642  24.602  0.00  0.00    +0.001 A 
ATOM     27  C   UNL     1      -4.180   3.616  24.653  0.00  0.00    +0.020 A 
ATOM     28  C   UNL     1      -4.553   3.771  25.372  0.00  0.00    +0.099 A 
ATOM     29  N   UNL     1      -4.103   3.954  26.040  0.00  0.00    -0.243 NA
ATOM     30  C   UNL     1      -3.281   3.980  25.988  0.00  0.00    +0.096 A 
ENDBRANCH  24  25
ENDBRANCH  23  24
ENDBRANCH   2  21
ENDBRANCH   3   2
BRANCH  10  11
ATOM     11  N   UNL     1      -1.385  -1.621  25.194  0.00  0.00    -0.083 NA
BRANCH  11  12
ATOM     12  S   UNL     1      -1.678  -2.197  24.680  0.00  0.00    +0.059 S 
ATOM     13  C   UNL     1      -1.972  -2.773  24.166  0.00  0.00    +0.197 C 
ATOM     14  O   UNL     1      -0.981  -2.629  24.767  0.00  0.00    -0.156 OA
ATOM     15  O   UNL     1      -2.375  -1.765  24.594  0.00  0.00    -0.156 OA
ENDBRANCH  11  12
ENDBRANCH  10  11
TORSDOF 6
ENDMDL
MODEL 6
REMARK VINA RESULT:     -10.0      2.002      5.276
REMARK  Name = 
REMARK  6 active torsions:
REMARK  status: ('A' for Active; 'I' for Inactive)
REMARK    1  A    between atoms: C_2  and  C_3
REMARK    2  A    between atoms: C_2  and  C_21
REMARK    3  A    between atoms: C_10  and  N_11
REMARK    4  A    between atoms: N_11  and  S_12
REMARK    5  A    between atoms: N_23  and  C_24
REMARK    6  A    between atoms: C_24  and  C_25
REMARK                            x       y       z     vdW  Elec       q    Type
REMARK                         _______ _______ _______ _____ _____    ______ ____
ROOT
ATOM      3  C   UNL     1      -3.812   1.635  24.433  0.00  0.00    +0.039 C 
ATOM      4  C   UNL     1      -3.346   1.373  23.805  0.00  0.00    +0.003 C 
ATOM      5  C   UNL     1      -2.646   1.767  23.618  0.00  0.00    +0.000 C 
ATOM      6  C   UNL     1      -2.413   2.426  24.058  0.00  0.00    +0.002 C 
ATOM      7  C   UNL     1      -1.946   2.163  23.430  0.00  0.00    +0.000 C 
ATOM      8  C   UNL     1      -1.713   2.820  23.870  0.00  0.00    +0.002 C 
ATOM      9  C   UNL     1      -1.480   3.478  24.311  0.00  0.00    +0.019 C 
ATOM     10  C   UNL     1      -1.946   3.741  24.939  0.00  0.00    +0.097 C 
ATOM     16  C   UNL     1      -2.645   3.345  25.126  0.00  0.00    +0.020 C 
ATOM     17  C   UNL     1      -3.111   3.608  25.754  0.00  0.00    +0.002 C 
ATOM     18  C   UNL     1      -2.879   2.688  24.686  0.00  0.00    +0.032 C 
ATOM     19  C   UNL     1      -3.578   2.293  24.873  0.00  0.00    +0.152 C 
ATOM     20  O   UNL     1      -4.045   2.556  25.501  0.00  0.00    -0.223 OA
ENDROOT
BRANCH   3   2
ATOM      1  C   UNL     1      -5.237   1.551  24.380  0.00  0.00    +0.010 C 
ATOM      2  C   UNL     1      -4.511   1.241  24.621  0.00  0.00    +0.081 C 
BRANCH   2  21
ATOM     21  C   UNL     1      -4.486   0.537  25.049  0.00  0.00    +0.241 C 
ATOM     22  O   UNL     1      -4.676   0.535  25.853  0.00  0.00    -0.273 OA
ATOM     23  N   UNL     1      -4.272  -0.167  24.675  0.00  0.00    -0.201 NA
BRANCH  23  24
ATOM     24  C   UNL     1      -4.247  -0.871  25.103  0.00  0.00    +0.143 C 
BRANCH  24  25
ATOM     25  C   UNL     1      -3.930  -1.552  24.761  0.00  0.00    +0.019 A 
ATOM     26  C   UNL     1      -4.297  -1.894  24.107  0.00  0.00    +0.001 A 
ATOM     27  C   UNL     1      -3.980  -2.575  23.765  0.00  0.00    +0.020 A 
ATOM     28  C   UNL     1      -3.296  -2.914  24.078  0.00  0.00    +0.099 A 
ATOM     29  N   UNL     1      -2.929  -2.571  24.733  0.00  0.00    -0.243 NA
ATOM     30  C   UNL     1      -3.246  -1.891  25.074  0.00  0.00    +0.096 A 
ENDBRANCH  24  25
ENDBRANCH  23  24
ENDBRANCH   2  21
ENDBRANCH   3   2
BRANCH  10  11
ATOM     11  N   UNL     1      -1.713   4.397  25.379  0.00  0.00    -0.083 NA
BRANCH  11  12
ATOM     12  S   UNL     1      -1.152   4.921  25.074  0.00  0.00    +0.059 S 
ATOM     13  C   UNL     1      -0.592   5.445  24.768  0.00  0.00    +0.197 C 
ATOM     14  O   UNL     1      -0.547   4.435  25.354  0.00  0.00    -0.156 OA
ATOM     15  O   UNL     1      -1.757   5.406  24.794  0.00  0.00    -0.156 OA
ENDBRANCH  11  12
ENDBRANCH  10  11
TORSDOF 6
ENDMDL
