MODEL 1
REMARK VINA RESULT:     -10.1      0.000      0.000
REMARK  Name = 
REMARK  10 active torsions:
REMARK  status: ('A' for Active; 'I' for Inactive)
REMARK    1  A    between atoms: S_2  and  C_3
REMARK    2  A    between atoms: C_3  and  C_4
REMARK    3  A    between atoms: C_9  and  N_10
REMARK    4  A    between atoms: N_13  and  C_14
REMARK    5  A    between atoms: C_16  and  S_17
REMARK    6  A    between atoms: C_22  and  C_23
REMARK    7  A    between atoms: N_25  and  C_26
REMARK    8  A    between atoms: C_26  and  C_27
REMARK    9  A    between atoms: C_26  and  C_34
REMARK   10  A    between atoms: C_27  and  C_28
REMARK                            x       y       z     vdW  Elec       q    Type
REMARK                         _______ _______ _______ _____ _____    ______ ____
ROOT
ATOM      4  C   UNL     1      -0.989   3.458  25.533  0.00  0.00    +0.237 C 
ATOM      5  O   UNL     1      -0.441   3.743  26.079  0.00  0.00    -0.274 OA
ATOM      6  N   UNL     1      -1.013   2.654  25.352  0.00  0.00    -0.271 N 
ATOM      7  C   UNL     1      -0.525   2.071  25.672  0.00  0.00    +0.096 C 
ATOM      8  C   UNL     1      -0.739   1.348  25.338  0.00  0.00    +0.045 C 
ATOM      9  C   UNL     1      -1.359   1.484  24.811  0.00  0.00    +0.126 C 
ATOM     22  C   UNL     1      -1.529   2.292  24.820  0.00  0.00    +0.174 C 
ENDROOT
BRANCH   9  10
ATOM     10  N   UNL     1      -1.743   0.913  24.356  0.00  0.00    -0.186 NA
ATOM     11  C   UNL     1      -1.727   0.122  24.587  0.00  0.00    +0.344 C 
ATOM     12  O   UNL     1      -1.328  -0.099  25.274  0.00  0.00    -0.249 OA
ATOM     13  N   UNL     1      -2.111  -0.450  24.131  0.00  0.00    -0.161 NA
BRANCH  13  14
ATOM     14  C   UNL     1      -2.095  -1.242  24.363  0.00  0.00    +0.075 A 
ATOM     15  C   UNL     1      -2.801  -1.642  24.511  0.00  0.00    +0.023 A 
ATOM     16  C   UNL     1      -2.785  -2.433  24.743  0.00  0.00    +0.027 A 
ATOM     19  C   UNL     1      -2.063  -2.825  24.827  0.00  0.00    +0.006 A 
ATOM     20  C   UNL     1      -1.357  -2.424  24.679  0.00  0.00    +0.002 A 
ATOM     21  C   UNL     1      -1.373  -1.632  24.447  0.00  0.00    +0.017 A 
BRANCH  16  17
ATOM     17  S   UNL     1      -3.490  -2.834  24.891  0.00  0.00    -0.113 S 
ATOM     18  C   UNL     1      -3.991  -3.032  24.265  0.00  0.00    +0.074 C 
ENDBRANCH  16  17
ENDBRANCH  13  14
ENDBRANCH   9  10
BRANCH  22  23
ATOM     23  C   UNL     1      -2.111   2.670  24.375  0.00  0.00    +0.262 C 
ATOM     24  O   UNL     1      -1.910   3.300  23.883  0.00  0.00    -0.271 OA
ATOM     25  N   UNL     1      -2.895   2.417  24.422  0.00  0.00    -0.196 NA
BRANCH  25  26
ATOM     26  C   UNL     1      -3.478   2.795  23.978  0.00  0.00    +0.179 C 
BRANCH  26  34
ATOM     34  C   UNL     1      -3.468   2.742  23.154  0.00  0.00    +0.281 C 
ATOM     35  N   UNL     1      -3.566   3.421  22.696  0.00  0.00    -0.086 NA
ATOM     36  O   UNL     1      -3.359   2.010  22.789  0.00  0.00    -0.270 OA
ENDBRANCH  26  34
BRANCH  26  27
ATOM     27  C   UNL     1      -4.071   3.225  24.355  0.00  0.00    +0.057 C 
BRANCH  27  28
ATOM     28  C   UNL     1      -4.649   2.833  24.795  0.00  0.00    -0.020 A 
ATOM     29  C   UNL     1      -4.854   3.108  25.546  0.00  0.00    -0.004 A 
ATOM     30  C   UNL     1      -5.431   2.717  25.985  0.00  0.00    -0.000 A 
ATOM     31  C   UNL     1      -5.805   2.049  25.675  0.00  0.00    -0.000 A 
ATOM     32  C   UNL     1      -5.600   1.774  24.925  0.00  0.00    -0.000 A 
ATOM     33  C   UNL     1      -5.022   2.166  24.484  0.00  0.00    -0.004 A 
ENDBRANCH  27  28
ENDBRANCH  26  27
ENDBRANCH  25  26
ENDBRANCH  22  23
BRANCH   4   3
ATOM      3  C   UNL     1      -1.515   3.979  25.167  0.00  0.00    +0.143 C 
BRANCH   3   2
ATOM      1  C   UNL     1      -1.291   5.372  24.938  0.00  0.00    +0.070 C 
ATOM      2  S   UNL     1      -1.565   4.762  25.422  0.00  0.00    -0.130 S 
ENDBRANCH   3   2
ENDBRANCH   4   3
TORSDOF 10
ENDMDL
MODEL 2
REMARK VINA RESULT:      -9.6      1.555      3.209
REMARK  Name = 
REMARK  10 active torsions:
REMARK  status: ('A' for Active; 'I' for Inactive)
REMARK    1  A    between atoms: S_2  and  C_3
REMARK    2  A    between atoms: C_3  and  C_4
REMARK    3  A    between atoms: C_9  and  N_10
REMARK    4  A    between atoms: N_13  and  C_14
REMARK    5  A    between atoms: C_16  and  S_17
REMARK    6  A    between atoms: C_22  and  C_23
REMARK    7  A    between atoms: N_25  and  C_26
REMARK    8  A    between atoms: C_26  and  C_27
REMARK    9  A    between atoms: C_26  and  C_34
REMARK   10  A    between atoms: C_27  and  C_28
REMARK                            x       y       z     vdW  Elec       q    Type
REMARK                         _______ _______ _______ _____ _____    ______ ____
ROOT
ATOM      4  C   UNL     1      -5.518   2.719  25.812  0.00  0.00    +0.237 C 
ATOM      5  O   UNL     1      -6.067   2.819  26.420  0.00  0.00    -0.274 OA
ATOM      6  N   UNL     1      -5.312   1.961  25.561  0.00  0.00    -0.271 N 
ATOM      7  C   UNL     1      -5.608   1.253  25.865  0.00  0.00    +0.096 C 
ATOM      8  C   UNL     1      -5.253   0.632  25.454  0.00  0.00    +0.045 C 
ATOM      9  C   UNL     1      -4.739   0.956  24.897  0.00  0.00    +0.126 C 
ATOM     22  C   UNL     1      -4.775   1.777  24.962  0.00  0.00    +0.174 C 
ENDROOT
BRANCH   9  10
ATOM     10  N   UNL     1      -4.270   0.532  24.366  0.00  0.00    -0.186 NA
ATOM     11  C   UNL     1      -4.013  -0.228  24.558  0.00  0.00    +0.344 C 
ATOM     12  O   UNL     1      -4.224  -0.564  25.281  0.00  0.00    -0.249 OA
ATOM     13  N   UNL     1      -3.544  -0.652  24.028  0.00  0.00    -0.161 NA
BRANCH  13  14
ATOM     14  C   UNL     1      -3.287  -1.412  24.220  0.00  0.00    +0.075 A 
ATOM     15  C   UNL     1      -2.496  -1.543  24.416  0.00  0.00    +0.023 A 
ATOM     16  C   UNL     1      -2.239  -2.302  24.608  0.00  0.00    +0.027 A 
ATOM     19  C   UNL     1      -2.773  -2.932  24.605  0.00  0.00    +0.006 A 
ATOM     20  C   UNL     1      -3.563  -2.801  24.409  0.00  0.00    +0.002 A 
ATOM     21  C   UNL     1      -3.821  -2.041  24.217  0.00  0.00    +0.017 A 
BRANCH  16  17
ATOM     17  S   UNL     1      -1.449  -2.433  24.804  0.00  0.00    -0.113 S 
ATOM     18  C   UNL     1      -0.970  -1.801  25.032  0.00  0.00    +0.074 C 
ENDBRANCH  16  17
ENDBRANCH  13  14
ENDBRANCH   9  10
BRANCH  22  23
ATOM     23  C   UNL     1      -4.349   2.319  24.510  0.00  0.00    +0.262 C 
ATOM     24  O   UNL     1      -4.746   2.901  24.082  0.00  0.00    -0.271 OA
ATOM     25  N   UNL     1      -3.525   2.280  24.486  0.00  0.00    -0.196 NA
BRANCH  25  26
ATOM     26  C   UNL     1      -3.098   2.822  24.034  0.00  0.00    +0.179 C 
BRANCH  26  34
ATOM     34  C   UNL     1      -3.160   2.811  23.211  0.00  0.00    +0.281 C 
ATOM     35  N   UNL     1      -3.494   3.452  22.814  0.00  0.00    -0.086 NA
ATOM     36  O   UNL     1      -2.889   2.158  22.785  0.00  0.00    -0.270 OA
ENDBRANCH  26  34
BRANCH  26  27
ATOM     27  C   UNL     1      -2.610   3.373  24.403  0.00  0.00    +0.057 C 
BRANCH  27  28
ATOM     28  C   UNL     1      -1.912   3.128  24.769  0.00  0.00    -0.020 A 
ATOM     29  C   UNL     1      -1.341   2.720  24.335  0.00  0.00    -0.004 A 
ATOM     30  C   UNL     1      -0.643   2.475  24.700  0.00  0.00    -0.000 A 
ATOM     31  C   UNL     1      -0.516   2.638  25.499  0.00  0.00    -0.000 A 
ATOM     32  C   UNL     1      -1.087   3.046  25.933  0.00  0.00    -0.000 A 
ATOM     33  C   UNL     1      -1.786   3.291  25.567  0.00  0.00    -0.004 A 
ENDBRANCH  27  28
ENDBRANCH  26  27
ENDBRANCH  25  26
ENDBRANCH  22  23
BRANCH   4   3
ATOM      3  C   UNL     1      -5.175   3.379  25.454  0.00  0.00    +0.143 C 
BRANCH   3   2
ATOM      1  C   UNL     1      -5.796   4.666  25.433  0.00  0.00    +0.070 C 
ATOM      2  S   UNL     1      -5.279   4.128  25.785  0.00  0.00    -0.130 S 
ENDBRANCH   3   2
ENDBRANCH   4   3
TORSDOF 10
ENDMDL
MODEL 3
REMARK VINA RESULT:      -9.4      2.538      4.364
REMARK  Name = 
REMARK  10 active torsions:
REMARK  status: ('A' for Active; 'I' for Inactive)
REMARK    1  A    between atoms: S_2  and  C_3
REMARK    2  A    between atoms: C_3  and  C_4
REMARK    3  A    between atoms: C_9  and  N_10
REMARK    4  A    between atoms: N_13  and  C_14
REMARK    5  A    between atoms: C_16  and  S_17
REMARK    6  A    between atoms: C_22  and  C_23
REMARK    7  A    between atoms: N_25  and  C_26
REMARK    8  A    between atoms: C_26  and  C_27
REMARK    9  A    between atoms: C_26  and  C_34
REMARK   10  A    between atoms: C_27  and  C_28
REMARK                            x       y       z     vdW  Elec       q    Type
REMARK                         _______ _______ _______ _____ _____    ______ ____
ROOT
ATOM      4  C   UNL     1      -3.355   2.126  24.127  0.00  0.00    +0.237 C 
ATOM      5  O   UNL     1      -3.704   2.787  23.778  0.00  0.00    -0.274 OA
ATOM      6  N   UNL     1      -2.612   1.870  23.876  0.00  0.00    -0.271 N 
ATOM      7  C   UNL     1      -2.154   2.219  23.284  0.00  0.00    +0.096 C 
ATOM      8  C   UNL     1      -1.455   1.785  23.215  0.00  0.00    +0.045 C 
ATOM      9  C   UNL     1      -1.482   1.169  23.763  0.00  0.00    +0.126 C 
ATOM     22  C   UNL     1      -2.197   1.221  24.172  0.00  0.00    +0.174 C 
ENDROOT
BRANCH   9  10
ATOM     10  N   UNL     1      -0.896   0.600  23.882  0.00  0.00    -0.186 NA
ATOM     11  C   UNL     1      -0.233   0.583  23.393  0.00  0.00    +0.344 C 
ATOM     12  O   UNL     1      -0.154   1.135  22.785  0.00  0.00    -0.249 OA
ATOM     13  N   UNL     1       0.353   0.014  23.511  0.00  0.00    -0.161 NA
BRANCH  13  14
ATOM     14  C   UNL     1       1.017  -0.003  23.022  0.00  0.00    +0.075 A 
ATOM     15  C   UNL     1       1.722   0.347  23.270  0.00  0.00    +0.023 A 
ATOM     16  C   UNL     1       2.385   0.330  22.781  0.00  0.00    +0.027 A 
ATOM     19  C   UNL     1       2.345  -0.037  22.043  0.00  0.00    +0.006 A 
ATOM     20  C   UNL     1       1.640  -0.387  21.794  0.00  0.00    +0.002 A 
ATOM     21  C   UNL     1       0.976  -0.370  22.284  0.00  0.00    +0.017 A 
BRANCH  16  17
ATOM     17  S   UNL     1       3.090   0.680  23.029  0.00  0.00    -0.113 S 
ATOM     18  C   UNL     1       3.754   0.662  22.540  0.00  0.00    +0.074 C 
ENDBRANCH  16  17
ENDBRANCH  13  14
ENDBRANCH   9  10
BRANCH  22  23
ATOM     23  C   UNL     1      -2.452   0.715  24.770  0.00  0.00    +0.262 C 
ATOM     24  O   UNL     1      -2.658   1.019  25.508  0.00  0.00    -0.271 OA
ATOM     25  N   UNL     1      -2.501  -0.097  24.630  0.00  0.00    -0.196 NA
BRANCH  25  26
ATOM     26  C   UNL     1      -2.756  -0.605  25.229  0.00  0.00    +0.179 C 
BRANCH  26  34
ATOM     34  C   UNL     1      -2.244  -0.806  25.844  0.00  0.00    +0.281 C 
ATOM     35  N   UNL     1      -2.479  -0.701  26.627  0.00  0.00    -0.086 NA
ATOM     36  O   UNL     1      -1.497  -1.113  25.675  0.00  0.00    -0.270 OA
ENDBRANCH  26  34
BRANCH  26  27
ATOM     27  C   UNL     1      -3.521  -0.910  25.212  0.00  0.00    +0.057 C 
BRANCH  27  28
ATOM     28  C   UNL     1      -3.693  -1.569  24.745  0.00  0.00    -0.020 A 
ATOM     29  C   UNL     1      -4.149  -1.483  24.063  0.00  0.00    -0.004 A 
ATOM     30  C   UNL     1      -4.321  -2.141  23.597  0.00  0.00    -0.000 A 
ATOM     31  C   UNL     1      -4.036  -2.885  23.811  0.00  0.00    -0.000 A 
ATOM     32  C   UNL     1      -3.579  -2.971  24.493  0.00  0.00    -0.000 A 
ATOM     33  C   UNL     1      -3.407  -2.312  24.960  0.00  0.00    -0.004 A 
ENDBRANCH  27  28
ENDBRANCH  26  27
ENDBRANCH  25  26
ENDBRANCH  22  23
BRANCH   4   3
ATOM      3  C   UNL     1      -3.750   1.720  24.727  0.00  0.00    +0.143 C 
BRANCH   3   2
ATOM      1  C   UNL     1      -5.157   1.840  24.946  0.00  0.00    +0.070 C 
ATOM      2  S   UNL     1      -4.385   2.075  25.117  0.00  0.00    -0.130 S 
ENDBRANCH   3   2
ENDBRANCH   4   3
TORSDOF 10
ENDMDL
MODEL 4
REMARK VINA RESULT:      -8.9      2.712      4.311
REMARK  Name = 
REMARK  10 active torsions:
REMARK  status: ('A' for Active; 'I' for Inactive)
REMARK    1  A    between atoms: S_2  and  C_3
REMARK    2  A    between atoms: C_3  and  C_4
REMARK    3  A    between atoms: C_9  and  N_10
REMARK    4  A    between atoms: N_13  and  C_14
REMARK    5  A    between atoms: C_16  and  S_17
REMARK    6  A    between atoms: C_22  and  C_23
REMARK    7  A    between atoms: N_25  and  C_26
REMARK    8  A    between atoms: C_26  and  C_27
REMARK    9  A    between atoms: C_26  and  C_34
REMARK   10  A    between atoms: C_27  and  C_28
REMARK                            x       y       z     vdW  Elec       q    Type
REMARK                         _______ _______ _______ _____ _____    ______ ____
ROOT
ATOM      4  C   UNL     1      -2.450  -0.966  25.139  0.00  0.00    +0.237 C 
ATOM      5  O   UNL     1      -2.599  -1.650  25.575  0.00  0.00    -0.274 OA
ATOM      6  N   UNL     1      -1.680  -0.783  24.908  0.00  0.00    -0.271 N 
ATOM      7  C   UNL     1      -1.005  -1.229  25.073  0.00  0.00    +0.096 C 
ATOM      8  C   UNL     1      -0.358  -0.842  24.739  0.00  0.00    +0.045 C 
ATOM      9  C   UNL     1      -0.632  -0.158  24.368  0.00  0.00    +0.126 C 
ATOM     22  C   UNL     1      -1.449  -0.120  24.473  0.00  0.00    +0.174 C 
ENDROOT
BRANCH   9  10
ATOM     10  N   UNL     1      -0.169   0.393  23.964  0.00  0.00    -0.186 NA
ATOM     11  C   UNL     1       0.531   0.155  23.598  0.00  0.00    +0.344 C 
ATOM     12  O   UNL     1       0.768  -0.634  23.636  0.00  0.00    -0.249 OA
ATOM     13  N   UNL     1       0.993   0.706  23.194  0.00  0.00    -0.161 NA
BRANCH  13  14
ATOM     14  C   UNL     1       1.694   0.467  22.827  0.00  0.00    +0.075 A 
ATOM     15  C   UNL     1       2.417   0.771  23.083  0.00  0.00    +0.023 A 
ATOM     16  C   UNL     1       3.116   0.533  22.717  0.00  0.00    +0.027 A 
ATOM     19  C   UNL     1       3.093  -0.010  22.095  0.00  0.00    +0.006 A 
ATOM     20  C   UNL     1       2.370  -0.314  21.840  0.00  0.00    +0.002 A 
ATOM     21  C   UNL     1       1.670  -0.075  22.206  0.00  0.00    +0.017 A 
BRANCH  16  17
ATOM     17  S   UNL     1       3.839   0.837  22.972  0.00  0.00    -0.113 S 
ATOM     18  C   UNL     1       4.495   0.340  23.040  0.00  0.00    +0.074 C 
ENDBRANCH  16  17
ENDBRANCH  13  14
ENDBRANCH   9  10
BRANCH  22  23
ATOM     23  C   UNL     1      -1.948   0.473  24.192  0.00  0.00    +0.262 C 
ATOM     24  O   UNL     1      -2.597   0.278  23.723  0.00  0.00    -0.271 OA
ATOM     25  N   UNL     1      -1.796   1.262  24.379  0.00  0.00    -0.196 NA
BRANCH  25  26
ATOM     26  C   UNL     1      -2.294   1.856  24.099  0.00  0.00    +0.179 C 
BRANCH  26  34
ATOM     34  C   UNL     1      -2.281   2.062  23.299  0.00  0.00    +0.281 C 
ATOM     35  N   UNL     1      -2.963   1.982  22.842  0.00  0.00    -0.086 NA
ATOM     36  O   UNL     1      -1.586   2.347  22.958  0.00  0.00    -0.270 OA
ENDBRANCH  26  34
BRANCH  26  27
ATOM     27  C   UNL     1      -2.805   2.245  24.616  0.00  0.00    +0.057 C 
BRANCH  27  28
ATOM     28  C   UNL     1      -2.559   2.933  25.000  0.00  0.00    -0.020 A 
ATOM     29  C   UNL     1      -1.918   2.909  25.519  0.00  0.00    -0.004 A 
ATOM     30  C   UNL     1      -1.673   3.596  25.903  0.00  0.00    -0.000 A 
ATOM     31  C   UNL     1      -2.068   4.308  25.768  0.00  0.00    -0.000 A 
ATOM     32  C   UNL     1      -2.709   4.332  25.249  0.00  0.00    -0.000 A 
ATOM     33  C   UNL     1      -2.955   3.644  24.864  0.00  0.00    -0.004 A 
ENDBRANCH  27  28
ENDBRANCH  26  27
ENDBRANCH  25  26
ENDBRANCH  22  23
BRANCH   4   3
ATOM      3  C   UNL     1      -3.073  -0.465  24.933  0.00  0.00    +0.143 C 
BRANCH   3   2
ATOM      1  C   UNL     1      -4.429  -0.861  24.717  0.00  0.00    +0.070 C 
ATOM      2  S   UNL     1      -3.831  -0.608  25.226  0.00  0.00    -0.130 S 
ENDBRANCH   3   2
ENDBRANCH   4   3
TORSDOF 10
ENDMDL
MODEL 5
REMARK VINA RESULT:      -8.7      1.995      4.530
REMARK  Name = 
REMARK  10 active torsions:
REMARK  status: ('A' for Active; 'I' for Inactive)
REMARK    1  A    between atoms: S_2  and  C_3
REMARK    2  A    between atoms: C_3  and  C_4
REMARK    3  A    between atoms: C_9  and  N_10
REMARK    4  A    between atoms: N_13  and  C_14
REMARK    5  A    between atoms: C_16  and  S_17
REMARK    6  A    between atoms: C_22  and  C_23
REMARK    7  A    between atoms: N_25  and  C_26
REMARK    8  A    between atoms: C_26  and  C_27
REMARK    9  A    between atoms: C_26  and  C_34
REMARK   10  A    between atoms: C_27  and  C_28
REMARK                            x       y       z     vdW  Elec       q    Type
REMARK                         _______ _______ _______ _____ _____    ______ ____
ROOT
ATOM      4  C   UNL     1       0.945   1.137  23.726  0.00  0.00    +0.237 C 
ATOM      5  O   UNL     1       1.664   1.483  23.517  0.00  0.00    -0.274 OA
ATOM      6  N   UNL     1       0.420   1.540  24.218  0.00  0.00    -0.271 N 
ATOM      7  C   UNL     1       0.538   2.289  24.544  0.00  0.00    +0.096 C 
ATOM      8  C   UNL     1      -0.124   2.476  24.998  0.00  0.00    +0.045 C 
ATOM      9  C   UNL     1      -0.652   1.843  24.954  0.00  0.00    +0.126 C 
ATOM     22  C   UNL     1      -0.316   1.264  24.472  0.00  0.00    +0.174 C 
ENDROOT
BRANCH   9  10
ATOM     10  N   UNL     1      -1.386   1.797  25.327  0.00  0.00    -0.186 NA
ATOM     11  C   UNL     1      -1.879   2.458  25.350  0.00  0.00    +0.344 C 
ATOM     12  O   UNL     1      -1.638   3.165  25.001  0.00  0.00    -0.249 OA
ATOM     13  N   UNL     1      -2.614   2.412  25.723  0.00  0.00    -0.161 NA
BRANCH  13  14
ATOM     14  C   UNL     1      -3.107   3.073  25.746  0.00  0.00    +0.075 A 
ATOM     15  C   UNL     1      -3.887   3.016  25.483  0.00  0.00    +0.023 A 
ATOM     16  C   UNL     1      -4.379   3.677  25.506  0.00  0.00    +0.027 A 
ATOM     19  C   UNL     1      -4.093   4.395  25.793  0.00  0.00    +0.006 A 
ATOM     20  C   UNL     1      -3.313   4.453  26.056  0.00  0.00    +0.002 A 
ATOM     21  C   UNL     1      -2.820   3.791  26.033  0.00  0.00    +0.017 A 
BRANCH  16  17
ATOM     17  S   UNL     1      -5.159   3.619  25.242  0.00  0.00    -0.113 S 
ATOM     18  C   UNL     1      -5.632   2.990  25.489  0.00  0.00    +0.074 C 
ENDBRANCH  16  17
ENDBRANCH  13  14
ENDBRANCH   9  10
BRANCH  22  23
ATOM     23  C   UNL     1      -0.655   0.538  24.278  0.00  0.00    +0.262 C 
ATOM     24  O   UNL     1      -0.736   0.319  23.487  0.00  0.00    -0.271 OA
ATOM     25  N   UNL     1      -0.912   0.030  24.875  0.00  0.00    -0.196 NA
BRANCH  25  26
ATOM     26  C   UNL     1      -1.251  -0.697  24.681  0.00  0.00    +0.179 C 
BRANCH  26  34
ATOM     34  C   UNL     1      -0.887  -1.398  24.920  0.00  0.00    +0.281 C 
ATOM     35  N   UNL     1      -0.890  -2.055  24.421  0.00  0.00    -0.086 NA
ATOM     36  O   UNL     1      -0.521  -1.443  25.658  0.00  0.00    -0.270 OA
ENDBRANCH  26  34
BRANCH  26  27
ATOM     27  C   UNL     1      -1.953  -0.723  24.250  0.00  0.00    +0.057 C 
BRANCH  27  28
ATOM     28  C   UNL     1      -2.675  -0.804  24.641  0.00  0.00    -0.020 A 
ATOM     29  C   UNL     1      -2.695  -1.078  25.419  0.00  0.00    -0.004 A 
ATOM     30  C   UNL     1      -3.417  -1.159  25.809  0.00  0.00    -0.000 A 
ATOM     31  C   UNL     1      -4.120  -0.965  25.423  0.00  0.00    -0.000 A 
ATOM     32  C   UNL     1      -4.100  -0.691  24.645  0.00  0.00    -0.000 A 
ATOM     33  C   UNL     1      -3.377  -0.610  24.254  0.00  0.00    -0.004 A 
ENDBRANCH  27  28
ENDBRANCH  26  27
ENDBRANCH  25  26
ENDBRANCH  22  23
BRANCH   4   3
ATOM      3  C   UNL     1       0.750   0.387  23.441  0.00  0.00    +0.143 C 
BRANCH   3   2
ATOM      1  C   UNL     1       1.803  -0.397  22.875  0.00  0.00    +0.070 C 
ATOM      2  S   UNL     1       1.139   0.084  22.779  0.00  0.00    -0.130 S 
ENDBRANCH   3   2
ENDBRANCH   4   3
TORSDOF 10
ENDMDL
MODEL 6
REMARK VINA RESULT:      -8.5      1.631      4.844
REMARK  Name = 
REMARK  10 active torsions:
REMARK  status: ('A' for Active; 'I' for Inactive)
REMARK    1  A    between atoms: S_2  and  C_3
REMARK    2  A    between atoms: C_3  and  C_4
REMARK    3  A    between atoms: C_9  and  N_10
REMARK    4  A    between atoms: N_13  and  C_14
REMARK    5  A    between atoms: C_16  and  S_17
REMARK    6  A    between atoms: C_22  and  C_23
REMARK    7  A    between atoms: N_25  and  C_26
REMARK    8  A    between atoms: C_26  and  C_27
REMARK    9  A    between atoms: C_26  and  C_34
REMARK   10  A    between atoms: C_27  and  C_28
REMARK                            x       y       z     vdW  Elec       q    Type
REMARK                         _______ _______ _______ _____ _____    ______ ____
ROOT
ATOM      4  C   UNL     1      -1.780  -1.908  25.111  0.00  0.00    +0.237 C 
ATOM      5  O   UNL     1      -1.896  -2.636  25.482  0.00  0.00    -0.274 OA
ATOM      6  N   UNL     1      -2.421  -1.407  24.977  0.00  0.00    -0.271 N 
ATOM      7  C   UNL     1      -3.206  -1.558  25.183  0.00  0.00    +0.096 C 
ATOM      8  C   UNL     1      -3.660  -0.910  24.946  0.00  0.00    +0.045 C 
ATOM      9  C   UNL     1      -3.155  -0.360  24.595  0.00  0.00    +0.126 C 
ATOM     22  C   UNL     1      -2.390  -0.666  24.614  0.00  0.00    +0.174 C 
ENDROOT
BRANCH   9  10
ATOM     10  N   UNL     1      -3.378   0.370  24.280  0.00  0.00    -0.186 NA
ATOM     11  C   UNL     1      -3.953   0.824  24.657  0.00  0.00    +0.344 C 
ATOM     12  O   UNL     1      -4.307   0.549  25.350  0.00  0.00    -0.249 OA
ATOM     13  N   UNL     1      -4.176   1.553  24.342  0.00  0.00    -0.161 NA
BRANCH  13  14
ATOM     14  C   UNL     1      -4.752   2.008  24.720  0.00  0.00    +0.075 A 
ATOM     15  C   UNL     1      -4.554   2.742  25.040  0.00  0.00    +0.023 A 
ATOM     16  C   UNL     1      -5.130   3.196  25.417  0.00  0.00    +0.027 A 
ATOM     19  C   UNL     1      -5.904   2.916  25.475  0.00  0.00    +0.006 A 
ATOM     20  C   UNL     1      -6.102   2.182  25.155  0.00  0.00    +0.002 A 
ATOM     21  C   UNL     1      -5.526   1.727  24.777  0.00  0.00    +0.017 A 
BRANCH  16  17
ATOM     17  S   UNL     1      -4.932   3.930  25.737  0.00  0.00    -0.113 S 
ATOM     18  C   UNL     1      -4.210   4.030  26.125  0.00  0.00    +0.074 C 
ENDBRANCH  16  17
ENDBRANCH  13  14
ENDBRANCH   9  10
BRANCH  22  23
ATOM     23  C   UNL     1      -1.712  -0.298  24.321  0.00  0.00    +0.262 C 
ATOM     24  O   UNL     1      -1.185  -0.720  23.848  0.00  0.00    -0.271 OA
ATOM     25  N   UNL     1      -1.562   0.492  24.503  0.00  0.00    -0.196 NA
BRANCH  25  26
ATOM     26  C   UNL     1      -0.884   0.861  24.211  0.00  0.00    +0.179 C 
BRANCH  26  34
ATOM     34  C   UNL     1      -0.775   0.937  23.396  0.00  0.00    +0.281 C 
ATOM     35  N   UNL     1      -0.087   0.647  23.044  0.00  0.00    -0.086 NA
ATOM     36  O   UNL     1      -1.353   1.302  22.934  0.00  0.00    -0.270 OA
ENDBRANCH  26  34
BRANCH  26  27
ATOM     27  C   UNL     1      -0.317   1.155  24.732  0.00  0.00    +0.057 C 
BRANCH  27  28
ATOM     28  C   UNL     1      -0.461   1.853  25.148  0.00  0.00    -0.020 A 
ATOM     29  C   UNL     1      -0.535   2.567  24.743  0.00  0.00    -0.004 A 
ATOM     30  C   UNL     1      -0.679   3.264  25.160  0.00  0.00    -0.000 A 
ATOM     31  C   UNL     1      -0.748   3.247  25.982  0.00  0.00    -0.000 A 
ATOM     32  C   UNL     1      -0.673   2.533  26.387  0.00  0.00    -0.000 A 
ATOM     33  C   UNL     1      -0.530   1.835  25.970  0.00  0.00    -0.004 A 
ENDBRANCH  27  28
ENDBRANCH  26  27
ENDBRANCH  25  26
ENDBRANCH  22  23
BRANCH   4   3
ATOM      3  C   UNL     1      -1.023  -1.683  24.874  0.00  0.00    +0.143 C 
BRANCH   3   2
ATOM      1  C   UNL     1       0.173  -2.192  25.467  0.00  0.00    +0.070 C 
ATOM      2  S   UNL     1      -0.407  -2.232  24.882  0.00  0.00    -0.130 S 
ENDBRANCH   3   2
ENDBRANCH   4   3
TORSDOF 10
ENDMDL
