MODEL 1
REMARK VINA RESULT:     -11.4      0.000      0.000
REMARK  Name = 
REMARK  9 active torsions:
REMARK  status: ('A' for Active; 'I' for Inactive)
REMARK    1  A    between atoms: O_2  and  C_3
REMARK    2  A    between atoms: C_6  and  C_7
REMARK    3  A    between atoms: C_7  and  N_8
REMARK    4  A    between atoms: N_8  and  C_9
REMARK    5  A    between atoms: C_9  and  C_10
REMARK    6  A    between atoms: C_12  and  C_13
REMARK    7  A    between atoms: C_13  and  C_14
REMARK    8  A    between atoms: C_17  and  C_19
REMARK    9  A    between atoms: C_22  and  O_23
REMARK                            x       y       z     vdW  Elec       q    Type
REMARK                         _______ _______ _______ _____ _____    ______ ____
ROOT
ATOM     10  C   UNL     1      -1.069  -0.583  24.962  0.00  0.00    +0.163 C 
ATOM     11  O   UNL     1      -1.844  -0.580  25.248  0.00  0.00    -0.354 OA
ATOM     12  C   UNL     1      -2.337  -1.227  25.112  0.00  0.00    +0.121 C 
ATOM     27  C   UNL     1      -2.056  -1.877  24.689  0.00  0.00    +0.033 C 
ATOM     28  C   UNL     1      -1.282  -1.882  24.403  0.00  0.00    +0.038 C 
ATOM     29  C   UNL     1      -0.789  -1.234  24.540  0.00  0.00    +0.180 C 
ATOM     30  O   UNL     1      -0.015  -1.238  24.254  0.00  0.00    -0.220 OA
ENDROOT
BRANCH  10   9
ATOM      9  C   UNL     1      -0.576   0.063  25.099  0.00  0.00    +0.121 C 
BRANCH   9   8
ATOM      8  N   UNL     1      -0.881   0.829  25.067  0.00  0.00    -0.211 NA
BRANCH   8   7
ATOM      7  C   UNL     1      -0.406   1.472  25.270  0.00  0.00    +0.115 C 
BRANCH   7   6
ATOM      3  C   UNL     1      -1.376   3.746  25.382  0.00  0.00    +0.139 A 
ATOM      4  C   UNL     1      -1.081   3.458  24.667  0.00  0.00    +0.037 A 
ATOM      5  C   UNL     1      -0.757   2.700  24.630  0.00  0.00    +0.000 A 
ATOM      6  C   UNL     1      -0.729   2.230  25.307  0.00  0.00    -0.005 A 
ATOM     31  C   UNL     1      -1.024   2.518  26.021  0.00  0.00    +0.000 A 
ATOM     32  C   UNL     1      -1.348   3.275  26.059  0.00  0.00    +0.037 A 
BRANCH   3   2
ATOM      1  C   UNL     1      -1.335   5.128  25.024  0.00  0.00    +0.252 C 
ATOM      2  O   UNL     1      -1.699   4.504  25.420  0.00  0.00    -0.471 OA
ENDBRANCH   3   2
ENDBRANCH   7   6
ENDBRANCH   8   7
ENDBRANCH   9   8
ENDBRANCH  10   9
BRANCH  12  13
ATOM     13  C   UNL     1      -3.110  -1.223  25.397  0.00  0.00    +0.079 C 
BRANCH  13  14
ATOM     14  C   UNL     1      -3.662  -0.693  25.087  0.00  0.00    +0.103 A 
ATOM     15  N   UNL     1      -4.138  -0.821  24.426  0.00  0.00    -0.081 NA
ATOM     16  O   UNL     1      -4.604  -0.149  24.314  0.00  0.00    -0.354 OA
ATOM     17  C   UNL     1      -4.416   0.393  24.907  0.00  0.00    +0.177 A 
ATOM     18  C   UNL     1      -3.833   0.057  25.385  0.00  0.00    +0.058 A 
BRANCH  17  19
ATOM     19  C   UNL     1      -4.752   1.141  25.004  0.00  0.00    +0.037 A 
ATOM     20  C   UNL     1      -4.438   1.789  24.603  0.00  0.00    +0.006 A 
ATOM     21  C   UNL     1      -4.774   2.537  24.701  0.00  0.00    +0.037 A 
ATOM     22  C   UNL     1      -5.425   2.634  25.199  0.00  0.00    +0.139 A 
ATOM     25  C   UNL     1      -5.738   1.986  25.600  0.00  0.00    +0.037 A 
ATOM     26  C   UNL     1      -5.402   1.238  25.502  0.00  0.00    +0.006 A 
BRANCH  22  23
ATOM     23  O   UNL     1      -5.761   3.382  25.297  0.00  0.00    -0.471 OA
ATOM     24  C   UNL     1      -5.287   4.023  25.512  0.00  0.00    +0.252 C 
ENDBRANCH  22  23
ENDBRANCH  17  19
ENDBRANCH  13  14
ENDBRANCH  12  13
TORSDOF 9
ENDMDL
MODEL 2
REMARK VINA RESULT:     -11.3      0.851      3.661
REMARK  Name = 
REMARK  9 active torsions:
REMARK  status: ('A' for Active; 'I' for Inactive)
REMARK    1  A    between atoms: O_2  and  C_3
REMARK    2  A    between atoms: C_6  and  C_7
REMARK    3  A    between atoms: C_7  and  N_8
REMARK    4  A    between atoms: N_8  and  C_9
REMARK    5  A    between atoms: C_9  and  C_10
REMARK    6  A    between atoms: C_12  and  C_13
REMARK    7  A    between atoms: C_13  and  C_14
REMARK    8  A    between atoms: C_17  and  C_19
REMARK    9  A    between atoms: C_22  and  O_23
REMARK                            x       y       z     vdW  Elec       q    Type
REMARK                         _______ _______ _______ _____ _____    ______ ____
ROOT
ATOM     10  C   UNL     1      -3.232  -1.397  24.760  0.00  0.00    +0.163 C 
ATOM     11  O   UNL     1      -2.582  -1.029  25.110  0.00  0.00    -0.354 OA
ATOM     12  C   UNL     1      -1.851  -1.409  25.127  0.00  0.00    +0.121 C 
ATOM     27  C   UNL     1      -1.769  -2.159  24.792  0.00  0.00    +0.033 C 
ATOM     28  C   UNL     1      -2.418  -2.528  24.441  0.00  0.00    +0.038 C 
ATOM     29  C   UNL     1      -3.150  -2.147  24.425  0.00  0.00    +0.180 C 
ATOM     30  O   UNL     1      -3.799  -2.516  24.074  0.00  0.00    -0.220 OA
ENDROOT
BRANCH  10   9
ATOM      9  C   UNL     1      -3.963  -1.016  24.743  0.00  0.00    +0.121 C 
BRANCH   9   8
ATOM      8  N   UNL     1      -4.009  -0.204  24.880  0.00  0.00    -0.211 NA
BRANCH   8   7
ATOM      7  C   UNL     1      -4.696   0.209  24.685  0.00  0.00    +0.115 C 
BRANCH   7   6
ATOM      3  C   UNL     1      -4.778   2.670  24.943  0.00  0.00    +0.139 A 
ATOM      4  C   UNL     1      -4.336   2.334  24.332  0.00  0.00    +0.037 A 
ATOM      5  C   UNL     1      -4.309   1.514  24.247  0.00  0.00    +0.000 A 
ATOM      6  C   UNL     1      -4.723   1.030  24.771  0.00  0.00    -0.005 A 
ATOM     31  C   UNL     1      -5.164   1.366  25.381  0.00  0.00    +0.000 A 
ATOM     32  C   UNL     1      -5.192   2.185  25.468  0.00  0.00    +0.037 A 
BRANCH   3   2
ATOM      1  C   UNL     1      -4.687   3.830  25.771  0.00  0.00    +0.252 C 
ATOM      2  O   UNL     1      -4.806   3.490  25.030  0.00  0.00    -0.471 OA
ENDBRANCH   3   2
ENDBRANCH   7   6
ENDBRANCH   8   7
ENDBRANCH   9   8
ENDBRANCH  10   9
BRANCH  12  13
ATOM     13  C   UNL     1      -1.202  -1.041  25.477  0.00  0.00    +0.079 C 
BRANCH  13  14
ATOM     14  C   UNL     1      -0.910  -0.335  25.165  0.00  0.00    +0.103 A 
ATOM     15  N   UNL     1      -0.412  -0.263  24.512  0.00  0.00    -0.081 NA
ATOM     16  O   UNL     1      -0.259   0.540  24.395  0.00  0.00    -0.354 OA
ATOM     17  C   UNL     1      -0.664   0.963  24.976  0.00  0.00    +0.177 A 
ATOM     18  C   UNL     1      -1.066   0.423  25.452  0.00  0.00    +0.058 A 
BRANCH  17  19
ATOM     19  C   UNL     1      -0.665   1.784  25.065  0.00  0.00    +0.037 A 
ATOM     20  C   UNL     1      -0.669   2.117  25.820  0.00  0.00    +0.006 A 
ATOM     21  C   UNL     1      -0.671   2.937  25.908  0.00  0.00    +0.037 A 
ATOM     22  C   UNL     1      -0.668   3.424  25.242  0.00  0.00    +0.139 A 
ATOM     25  C   UNL     1      -0.664   3.091  24.488  0.00  0.00    +0.037 A 
ATOM     26  C   UNL     1      -0.663   2.270  24.399  0.00  0.00    +0.006 A 
BRANCH  22  23
ATOM     23  O   UNL     1      -0.670   4.245  25.331  0.00  0.00    -0.471 OA
ATOM     24  C   UNL     1      -1.306   4.689  25.049  0.00  0.00    +0.252 C 
ENDBRANCH  22  23
ENDBRANCH  17  19
ENDBRANCH  13  14
ENDBRANCH  12  13
TORSDOF 9
ENDMDL
MODEL 3
REMARK VINA RESULT:     -11.3      1.281      4.155
REMARK  Name = 
REMARK  9 active torsions:
REMARK  status: ('A' for Active; 'I' for Inactive)
REMARK    1  A    between atoms: O_2  and  C_3
REMARK    2  A    between atoms: C_6  and  C_7
REMARK    3  A    between atoms: C_7  and  N_8
REMARK    4  A    between atoms: N_8  and  C_9
REMARK    5  A    between atoms: C_9  and  C_10
REMARK    6  A    between atoms: C_12  and  C_13
REMARK    7  A    between atoms: C_13  and  C_14
REMARK    8  A    between atoms: C_17  and  C_19
REMARK    9  A    between atoms: C_22  and  O_23
REMARK                            x       y       z     vdW  Elec       q    Type
REMARK                         _______ _______ _______ _____ _____    ______ ____
ROOT
ATOM     10  C   UNL     1      -2.509   3.401  25.037  0.00  0.00    +0.163 C 
ATOM     11  O   UNL     1      -3.101   2.934  24.702  0.00  0.00    -0.354 OA
ATOM     12  C   UNL     1      -3.894   3.103  24.853  0.00  0.00    +0.121 C 
ATOM     27  C   UNL     1      -4.096   3.738  25.339  0.00  0.00    +0.033 C 
ATOM     28  C   UNL     1      -3.504   4.205  25.675  0.00  0.00    +0.038 C 
ATOM     29  C   UNL     1      -2.710   4.036  25.524  0.00  0.00    +0.180 C 
ATOM     30  O   UNL     1      -2.119   4.503  25.859  0.00  0.00    -0.220 OA
ENDROOT
BRANCH  10   9
ATOM      9  C   UNL     1      -1.716   3.232  24.887  0.00  0.00    +0.121 C 
BRANCH   9   8
ATOM      8  N   UNL     1      -1.414   2.482  25.051  0.00  0.00    -0.211 NA
BRANCH   8   7
ATOM      7  C   UNL     1      -0.758   2.202  24.639  0.00  0.00    +0.115 C 
BRANCH   7   6
ATOM      3  C   UNL     1      -0.382  -0.235  24.416  0.00  0.00    +0.139 A 
ATOM      4  C   UNL     1      -0.385   0.245  23.745  0.00  0.00    +0.037 A 
ATOM      5  C   UNL     1      -0.510   1.057  23.820  0.00  0.00    +0.000 A 
ATOM      6  C   UNL     1      -0.632   1.389  24.565  0.00  0.00    -0.005 A 
ATOM     31  C   UNL     1      -0.629   0.910  25.236  0.00  0.00    +0.000 A 
ATOM     32  C   UNL     1      -0.504   0.098  25.162  0.00  0.00    +0.037 A 
BRANCH   3   2
ATOM      1  C   UNL     1      -0.258  -1.527  25.013  0.00  0.00    +0.252 C 
ATOM      2  O   UNL     1      -0.257  -1.047  24.343  0.00  0.00    -0.471 OA
ENDBRANCH   3   2
ENDBRANCH   7   6
ENDBRANCH   8   7
ENDBRANCH   9   8
ENDBRANCH  10   9
BRANCH  12  13
ATOM     13  C   UNL     1      -4.486   2.637  24.518  0.00  0.00    +0.079 C 
BRANCH  13  14
ATOM     14  C   UNL     1      -4.588   1.856  24.768  0.00  0.00    +0.103 A 
ATOM     15  N   UNL     1      -5.059   1.607  25.397  0.00  0.00    -0.081 NA
ATOM     16  O   UNL     1      -4.998   0.785  25.450  0.00  0.00    -0.354 OA
ATOM     17  C   UNL     1      -4.489   0.528  24.854  0.00  0.00    +0.177 A 
ATOM     18  C   UNL     1      -4.235   1.190  24.432  0.00  0.00    +0.058 A 
BRANCH  17  19
ATOM     19  C   UNL     1      -4.272  -0.255  24.706  0.00  0.00    +0.037 A 
ATOM     20  C   UNL     1      -4.312  -0.555  23.939  0.00  0.00    +0.006 A 
ATOM     21  C   UNL     1      -4.095  -1.338  23.791  0.00  0.00    +0.037 A 
ATOM     22  C   UNL     1      -3.839  -1.819  24.411  0.00  0.00    +0.139 A 
ATOM     25  C   UNL     1      -3.800  -1.518  25.177  0.00  0.00    +0.037 A 
ATOM     26  C   UNL     1      -4.016  -0.735  25.325  0.00  0.00    +0.006 A 
BRANCH  22  23
ATOM     23  O   UNL     1      -3.622  -2.601  24.263  0.00  0.00    -0.471 OA
ATOM     24  C   UNL     1      -3.312  -3.066  24.871  0.00  0.00    +0.252 C 
ENDBRANCH  22  23
ENDBRANCH  17  19
ENDBRANCH  13  14
ENDBRANCH  12  13
TORSDOF 9
ENDMDL
MODEL 4
REMARK VINA RESULT:     -11.0      1.386      5.408
REMARK  Name = 
REMARK  9 active torsions:
REMARK  status: ('A' for Active; 'I' for Inactive)
REMARK    1  A    between atoms: O_2  and  C_3
REMARK    2  A    between atoms: C_6  and  C_7
REMARK    3  A    between atoms: C_7  and  N_8
REMARK    4  A    between atoms: N_8  and  C_9
REMARK    5  A    between atoms: C_9  and  C_10
REMARK    6  A    between atoms: C_12  and  C_13
REMARK    7  A    between atoms: C_13  and  C_14
REMARK    8  A    between atoms: C_17  and  C_19
REMARK    9  A    between atoms: C_22  and  O_23
REMARK                            x       y       z     vdW  Elec       q    Type
REMARK                         _______ _______ _______ _____ _____    ______ ____
ROOT
ATOM     10  C   UNL     1      -4.919   2.100  25.115  0.00  0.00    +0.163 C 
ATOM     11  O   UNL     1      -4.253   2.392  24.725  0.00  0.00    -0.354 OA
ATOM     12  C   UNL     1      -4.017   3.174  24.839  0.00  0.00    +0.121 C 
ATOM     27  C   UNL     1      -4.447   3.665  25.343  0.00  0.00    +0.033 C 
ATOM     28  C   UNL     1      -5.113   3.375  25.734  0.00  0.00    +0.038 C 
ATOM     29  C   UNL     1      -5.349   2.592  25.620  0.00  0.00    +0.180 C 
ATOM     30  O   UNL     1      -6.015   2.301  26.011  0.00  0.00    -0.220 OA
ENDROOT
BRANCH  10   9
ATOM      9  C   UNL     1      -5.155   1.319  25.002  0.00  0.00    +0.121 C 
BRANCH   9   8
ATOM      8  N   UNL     1      -4.590   0.719  24.955  0.00  0.00    -0.211 NA
BRANCH   8   7
ATOM      7  C   UNL     1      -4.817  -0.046  24.749  0.00  0.00    +0.115 C 
BRANCH   7   6
ATOM      3  C   UNL     1      -3.152  -1.878  24.765  0.00  0.00    +0.139 A 
ATOM      4  C   UNL     1      -3.603  -1.737  24.089  0.00  0.00    +0.037 A 
ATOM      5  C   UNL     1      -4.158  -1.126  24.084  0.00  0.00    +0.000 A 
ATOM      6  C   UNL     1      -4.262  -0.657  24.754  0.00  0.00    -0.005 A 
ATOM     31  C   UNL     1      -3.810  -0.798  25.430  0.00  0.00    +0.000 A 
ATOM     32  C   UNL     1      -3.255  -1.408  25.436  0.00  0.00    +0.037 A 
BRANCH   3   2
ATOM      1  C   UNL     1      -1.809  -2.331  24.588  0.00  0.00    +0.252 C 
ATOM      2  O   UNL     1      -2.597  -2.488  24.771  0.00  0.00    -0.471 OA
ENDBRANCH   3   2
ENDBRANCH   7   6
ENDBRANCH   8   7
ENDBRANCH   9   8
ENDBRANCH  10   9
BRANCH  12  13
ATOM     13  C   UNL     1      -3.352   3.465  24.448  0.00  0.00    +0.079 C 
BRANCH  13  14
ATOM     14  C   UNL     1      -2.602   3.179  24.643  0.00  0.00    +0.103 A 
ATOM     15  N   UNL     1      -2.165   3.383  25.311  0.00  0.00    -0.081 NA
ATOM     16  O   UNL     1      -1.450   2.970  25.284  0.00  0.00    -0.354 OA
ATOM     17  C   UNL     1      -1.447   2.511  24.598  0.00  0.00    +0.177 A 
ATOM     18  C   UNL     1      -2.159   2.641  24.201  0.00  0.00    +0.058 A 
BRANCH  17  19
ATOM     19  C   UNL     1      -0.838   2.011  24.352  0.00  0.00    +0.037 A 
ATOM     20  C   UNL     1      -0.055   2.263  24.397  0.00  0.00    +0.006 A 
ATOM     21  C   UNL     1       0.554   1.762  24.151  0.00  0.00    +0.037 A 
ATOM     22  C   UNL     1       0.377   1.010  23.860  0.00  0.00    +0.139 A 
ATOM     25  C   UNL     1      -0.407   0.759  23.815  0.00  0.00    +0.037 A 
ATOM     26  C   UNL     1      -1.015   1.260  24.061  0.00  0.00    +0.006 A 
BRANCH  22  23
ATOM     23  O   UNL     1       0.986   0.510  23.614  0.00  0.00    -0.471 OA
ATOM     24  C   UNL     1       0.874   0.012  22.965  0.00  0.00    +0.252 C 
ENDBRANCH  22  23
ENDBRANCH  17  19
ENDBRANCH  13  14
ENDBRANCH  12  13
TORSDOF 9
ENDMDL
MODEL 5
REMARK VINA RESULT:     -10.9      1.230      4.205
REMARK  Name = 
REMARK  9 active torsions:
REMARK  status: ('A' for Active; 'I' for Inactive)
REMARK    1  A    between atoms: O_2  and  C_3
REMARK    2  A    between atoms: C_6  and  C_7
REMARK    3  A    between atoms: C_7  and  N_8
REMARK    4  A    between atoms: N_8  and  C_9
REMARK    5  A    between atoms: C_9  and  C_10
REMARK    6  A    between atoms: C_12  and  C_13
REMARK    7  A    between atoms: C_13  and  C_14
REMARK    8  A    between atoms: C_17  and  C_19
REMARK    9  A    between atoms: C_22  and  O_23
REMARK                            x       y       z     vdW  Elec       q    Type
REMARK                         _______ _______ _______ _____ _____    ______ ____
ROOT
ATOM     10  C   UNL     1      -4.432   3.200  25.323  0.00  0.00    +0.163 C 
ATOM     11  O   UNL     1      -4.386   2.472  24.938  0.00  0.00    -0.354 OA
ATOM     12  C   UNL     1      -5.054   1.992  24.880  0.00  0.00    +0.121 C 
ATOM     27  C   UNL     1      -5.770   2.241  25.207  0.00  0.00    +0.033 C 
ATOM     28  C   UNL     1      -5.817   2.969  25.592  0.00  0.00    +0.038 C 
ATOM     29  C   UNL     1      -5.148   3.449  25.650  0.00  0.00    +0.180 C 
ATOM     30  O   UNL     1      -5.195   4.177  26.035  0.00  0.00    -0.220 OA
ENDROOT
BRANCH  10   9
ATOM      9  C   UNL     1      -3.764   3.680  25.380  0.00  0.00    +0.121 C 
BRANCH   9   8
ATOM      8  N   UNL     1      -3.029   3.395  25.137  0.00  0.00    -0.211 NA
BRANCH   8   7
ATOM      7  C   UNL     1      -2.337   3.728  25.438  0.00  0.00    +0.115 C 
BRANCH   7   6
ATOM      3  C   UNL     1      -0.164   2.593  25.097  0.00  0.00    +0.139 A 
ATOM      4  C   UNL     1      -0.566   2.917  24.453  0.00  0.00    +0.037 A 
ATOM      5  C   UNL     1      -1.290   3.295  24.567  0.00  0.00    +0.000 A 
ATOM      6  C   UNL     1      -1.613   3.350  25.324  0.00  0.00    -0.005 A 
ATOM     31  C   UNL     1      -1.212   3.026  25.967  0.00  0.00    +0.000 A 
ATOM     32  C   UNL     1      -0.487   2.647  25.855  0.00  0.00    +0.037 A 
BRANCH   3   2
ATOM      1  C   UNL     1       0.679   1.741  24.320  0.00  0.00    +0.252 C 
ATOM      2  O   UNL     1       0.560   2.214  24.984  0.00  0.00    -0.471 OA
ENDBRANCH   3   2
ENDBRANCH   7   6
ENDBRANCH   8   7
ENDBRANCH   9   8
ENDBRANCH  10   9
BRANCH  12  13
ATOM     13  C   UNL     1      -5.008   1.265  24.495  0.00  0.00    +0.079 C 
BRANCH  13  14
ATOM     14  C   UNL     1      -4.604   0.636  24.848  0.00  0.00    +0.103 A 
ATOM     15  N   UNL     1      -4.852   0.211  25.509  0.00  0.00    -0.081 NA
ATOM     16  O   UNL     1      -4.282  -0.364  25.670  0.00  0.00    -0.354 OA
ATOM     17  C   UNL     1      -3.682  -0.293  25.108  0.00  0.00    +0.177 A 
ATOM     18  C   UNL     1      -3.881   0.325  24.599  0.00  0.00    +0.058 A 
BRANCH  17  19
ATOM     19  C   UNL     1      -3.003  -0.760  25.063  0.00  0.00    +0.037 A 
ATOM     20  C   UNL     1      -3.030  -1.492  24.683  0.00  0.00    +0.006 A 
ATOM     21  C   UNL     1      -2.351  -1.958  24.638  0.00  0.00    +0.037 A 
ATOM     22  C   UNL     1      -1.645  -1.692  24.973  0.00  0.00    +0.139 A 
ATOM     25  C   UNL     1      -1.618  -0.960  25.351  0.00  0.00    +0.037 A 
ATOM     26  C   UNL     1      -2.298  -0.494  25.397  0.00  0.00    +0.006 A 
BRANCH  22  23
ATOM     23  O   UNL     1      -0.965  -2.158  24.927  0.00  0.00    -0.471 OA
ATOM     24  C   UNL     1      -0.241  -1.858  25.185  0.00  0.00    +0.252 C 
ENDBRANCH  22  23
ENDBRANCH  17  19
ENDBRANCH  13  14
ENDBRANCH  12  13
TORSDOF 9
ENDMDL
MODEL 6
REMARK VINA RESULT:     -10.8      1.291      4.510
REMARK  Name = 
REMARK  9 active torsions:
REMARK  status: ('A' for Active; 'I' for Inactive)
REMARK    1  A    between atoms: O_2  and  C_3
REMARK    2  A    between atoms: C_6  and  C_7
REMARK    3  A    between atoms: C_7  and  N_8
REMARK    4  A    between atoms: N_8  and  C_9
REMARK    5  A    between atoms: C_9  and  C_10
REMARK    6  A    between atoms: C_12  and  C_13
REMARK    7  A    between atoms: C_13  and  C_14
REMARK    8  A    between atoms: C_17  and  C_19
REMARK    9  A    between atoms: C_22  and  O_23
REMARK                            x       y       z     vdW  Elec       q    Type
REMARK                         _______ _______ _______ _____ _____    ______ ____
ROOT
ATOM     10  C   UNL     1      -1.512   3.339  24.790  0.00  0.00    +0.163 C 
ATOM     11  O   UNL     1      -1.329   2.556  24.606  0.00  0.00    -0.354 OA
ATOM     12  C   UNL     1      -0.593   2.245  24.808  0.00  0.00    +0.121 C 
ATOM     27  C   UNL     1      -0.037   2.718  25.194  0.00  0.00    +0.033 C 
ATOM     28  C   UNL     1      -0.219   3.501  25.378  0.00  0.00    +0.038 C 
ATOM     29  C   UNL     1      -0.957   3.812  25.176  0.00  0.00    +0.180 C 
ATOM     30  O   UNL     1      -1.138   4.595  25.361  0.00  0.00    -0.220 OA
ENDROOT
BRANCH  10   9
ATOM      9  C   UNL     1      -2.248   3.650  24.589  0.00  0.00    +0.121 C 
BRANCH   9   8
ATOM      8  N   UNL     1      -2.938   3.292  24.867  0.00  0.00    -0.211 NA
BRANCH   8   7
ATOM      7  C   UNL     1      -3.661   3.454  24.506  0.00  0.00    +0.115 C 
BRANCH   7   6
ATOM      3  C   UNL     1      -5.715   2.310  25.280  0.00  0.00    +0.139 A 
ATOM      4  C   UNL     1      -5.279   1.995  24.655  0.00  0.00    +0.037 A 
ATOM      5  C   UNL     1      -4.594   2.377  24.397  0.00  0.00    +0.000 A 
ATOM      6  C   UNL     1      -4.346   3.072  24.764  0.00  0.00    -0.005 A 
ATOM     31  C   UNL     1      -4.783   3.387  25.389  0.00  0.00    +0.000 A 
ATOM     32  C   UNL     1      -5.467   3.006  25.648  0.00  0.00    +0.037 A 
BRANCH   3   2
ATOM      1  C   UNL     1      -6.430   1.603  26.294  0.00  0.00    +0.252 C 
ATOM      2  O   UNL     1      -6.400   1.929  25.538  0.00  0.00    -0.471 OA
ENDBRANCH   3   2
ENDBRANCH   7   6
ENDBRANCH   8   7
ENDBRANCH   9   8
ENDBRANCH  10   9
BRANCH  12  13
ATOM     13  C   UNL     1      -0.411   1.463  24.624  0.00  0.00    +0.079 C 
BRANCH  13  14
ATOM     14  C   UNL     1      -0.799   0.846  25.013  0.00  0.00    +0.103 A 
ATOM     15  N   UNL     1      -0.728   0.657  25.812  0.00  0.00    -0.081 NA
ATOM     16  O   UNL     1      -1.211   0.005  25.963  0.00  0.00    -0.354 OA
ATOM     17  C   UNL     1      -1.580  -0.208  25.257  0.00  0.00    +0.177 A 
ATOM     18  C   UNL     1      -1.325   0.312  24.669  0.00  0.00    +0.058 A 
BRANCH  17  19
ATOM     19  C   UNL     1      -2.112  -0.832  25.156  0.00  0.00    +0.037 A 
ATOM     20  C   UNL     1      -2.895  -0.749  25.398  0.00  0.00    +0.006 A 
ATOM     21  C   UNL     1      -3.427  -1.372  25.297  0.00  0.00    +0.037 A 
ATOM     22  C   UNL     1      -3.172  -2.079  24.954  0.00  0.00    +0.139 A 
ATOM     25  C   UNL     1      -2.388  -2.161  24.713  0.00  0.00    +0.037 A 
ATOM     26  C   UNL     1      -1.857  -1.537  24.814  0.00  0.00    +0.006 A 
BRANCH  22  23
ATOM     23  O   UNL     1      -3.703  -2.703  24.854  0.00  0.00    -0.471 OA
ATOM     24  C   UNL     1      -4.031  -2.850  24.111  0.00  0.00    +0.252 C 
ENDBRANCH  22  23
ENDBRANCH  17  19
ENDBRANCH  13  14
ENDBRANCH  12  13
TORSDOF 9
ENDMDL
MODEL 7
REMARK VINA RESULT:     -10.5      1.322      3.943
REMARK  Name = 
REMARK  9 active torsions:
REMARK  status: ('A' for Active; 'I' for Inactive)
REMARK    1  A    between atoms: O_2  and  C_3
REMARK    2  A    between atoms: C_6  and  C_7
REMARK    3  A    between atoms: C_7  and  N_8
REMARK    4  A    between atoms: N_8  and  C_9
REMARK    5  A    between atoms: C_9  and  C_10
REMARK    6  A    between atoms: C_12  and  C_13
REMARK    7  A    between atoms: C_13  and  C_14
REMARK    8  A    between atoms: C_17  and  C_19
REMARK    9  A    between atoms: C_22  and  O_23
REMARK                            x       y       z     vdW  Elec       q    Type
REMARK                         _______ _______ _______ _____ _____    ______ ____
ROOT
ATOM     10  C   UNL     1      -0.373   1.545  25.095  0.00  0.00    +0.163 C 
ATOM     11  O   UNL     1      -0.857   2.090  25.482  0.00  0.00    -0.354 OA
ATOM     12  C   UNL     1      -0.800   2.892  25.301  0.00  0.00    +0.121 C 
ATOM     27  C   UNL     1      -0.261   3.151  24.733  0.00  0.00    +0.033 C 
ATOM     28  C   UNL     1       0.223   2.606  24.346  0.00  0.00    +0.038 C 
ATOM     29  C   UNL     1       0.166   1.803  24.527  0.00  0.00    +0.180 C 
ATOM     30  O   UNL     1       0.650   1.258  24.139  0.00  0.00    -0.220 OA
ENDROOT
BRANCH  10   9
ATOM      9  C   UNL     1      -0.430   0.742  25.275  0.00  0.00    +0.121 C 
BRANCH   9   8
ATOM      8  N   UNL     1      -1.143   0.343  25.166  0.00  0.00    -0.211 NA
BRANCH   8   7
ATOM      7  C   UNL     1      -1.268  -0.387  25.528  0.00  0.00    +0.115 C 
BRANCH   7   6
ATOM      3  C   UNL     1      -3.181  -1.801  24.843  0.00  0.00    +0.139 A 
ATOM      4  C   UNL     1      -3.303  -1.157  25.344  0.00  0.00    +0.037 A 
ATOM      5  C   UNL     1      -2.665  -0.686  25.572  0.00  0.00    +0.000 A 
ATOM      6  C   UNL     1      -1.906  -0.858  25.300  0.00  0.00    -0.005 A 
ATOM     31  C   UNL     1      -1.784  -1.502  24.798  0.00  0.00    +0.000 A 
ATOM     32  C   UNL     1      -2.421  -1.974  24.570  0.00  0.00    +0.037 A 
BRANCH   3   2
ATOM      1  C   UNL     1      -4.255  -2.078  23.944  0.00  0.00    +0.252 C 
ATOM      2  O   UNL     1      -3.818  -2.273  24.614  0.00  0.00    -0.471 OA
ENDBRANCH   3   2
ENDBRANCH   7   6
ENDBRANCH   8   7
ENDBRANCH   9   8
ENDBRANCH  10   9
BRANCH  12  13
ATOM     13  C   UNL     1      -1.283   3.437  25.688  0.00  0.00    +0.079 C 
BRANCH  13  14
ATOM     14  C   UNL     1      -2.053   3.571  25.420  0.00  0.00    +0.103 A 
ATOM     15  N   UNL     1      -2.305   4.218  24.975  0.00  0.00    -0.081 NA
ATOM     16  O   UNL     1      -3.112   4.127  24.829  0.00  0.00    -0.354 OA
ATOM     17  C   UNL     1      -3.358   3.424  25.184  0.00  0.00    +0.177 A 
ATOM     18  C   UNL     1      -2.703   3.080  25.549  0.00  0.00    +0.058 A 
BRANCH  17  19
ATOM     19  C   UNL     1      -4.125   3.119  25.175  0.00  0.00    +0.037 A 
ATOM     20  C   UNL     1      -4.690   3.409  25.701  0.00  0.00    +0.006 A 
ATOM     21  C   UNL     1      -5.457   3.104  25.692  0.00  0.00    +0.037 A 
ATOM     22  C   UNL     1      -5.657   2.508  25.156  0.00  0.00    +0.139 A 
ATOM     25  C   UNL     1      -5.092   2.219  24.631  0.00  0.00    +0.037 A 
ATOM     26  C   UNL     1      -4.325   2.525  24.640  0.00  0.00    +0.006 A 
BRANCH  22  23
ATOM     23  O   UNL     1      -6.424   2.203  25.147  0.00  0.00    -0.471 OA
ATOM     24  C   UNL     1      -6.549   1.405  24.977  0.00  0.00    +0.252 C 
ENDBRANCH  22  23
ENDBRANCH  17  19
ENDBRANCH  13  14
ENDBRANCH  12  13
TORSDOF 9
ENDMDL
