MODEL 1
REMARK VINA RESULT:      -9.8      0.000      0.000
REMARK  Name = 
REMARK  3 active torsions:
REMARK  status: ('A' for Active; 'I' for Inactive)
REMARK    1  A    between atoms: C_2  and  C_17
REMARK    2  A    between atoms: N_10  and  C_11
REMARK    3  A    between atoms: C_11  and  C_12
REMARK                            x       y       z     vdW  Elec       q    Type
REMARK                         _______ _______ _______ _____ _____    ______ ____
ROOT
ATOM      1  O   UNL     1      -2.580   0.440  23.962  0.00  0.00    -0.266 OA
ATOM      2  C   UNL     1      -3.322   0.275  24.282  0.00  0.00    +0.287 C 
ATOM      3  N   UNL     1      -3.796   0.889  24.565  0.00  0.00    -0.269 N 
ATOM      4  C   UNL     1      -4.546   0.808  24.898  0.00  0.00    +0.125 C 
ATOM      5  C   UNL     1      -4.816   1.560  25.103  0.00  0.00    +0.155 C 
ATOM      6  O   UNL     1      -5.518   1.819  25.451  0.00  0.00    -0.343 OA
ATOM      7  C   UNL     1      -5.636   2.623  25.592  0.00  0.00    +0.227 C 
ATOM      8  C   UNL     1      -5.053   3.168  25.385  0.00  0.00    +0.256 C 
ATOM      9  O   UNL     1      -5.171   3.973  25.526  0.00  0.00    -0.272 OA
ATOM     10  N   UNL     1      -4.351   2.910  25.037  0.00  0.00    -0.275 N 
ATOM     15  C   UNL     1      -4.233   2.105  24.896  0.00  0.00    +0.124 C 
ATOM     16  C   UNL     1      -3.602   1.690  24.564  0.00  0.00    +0.116 C 
ENDROOT
BRANCH   2  17
ATOM     17  C   UNL     1      -3.591  -0.505  24.320  0.00  0.00    +0.230 A 
ATOM     18  C   UNL     1      -3.389  -1.060  24.896  0.00  0.00    +0.069 A 
ATOM     19  C   UNL     1      -3.782  -1.764  24.720  0.00  0.00    +0.144 A 
ATOM     20  N   UNL     1      -4.226  -1.643  24.036  0.00  0.00    -0.075 NA
ATOM     21  O   UNL     1      -4.108  -0.865  23.788  0.00  0.00    -0.349 OA
ENDBRANCH   2  17
BRANCH  10  11
ATOM     11  C   UNL     1      -3.767   3.455  24.831  0.00  0.00    +0.094 C 
BRANCH  11  12
ATOM     12  C   UNL     1      -3.243   3.735  25.402  0.00  0.00    +0.020 C 
ATOM     13  C   UNL     1      -3.095   3.984  26.175  0.00  0.00    +0.002 C 
ATOM     14  C   UNL     1      -2.483   3.970  25.622  0.00  0.00    +0.002 C 
ENDBRANCH  11  12
ENDBRANCH  10  11
TORSDOF 3
ENDMDL
MODEL 2
REMARK VINA RESULT:      -9.7      1.260      4.408
REMARK  Name = 
REMARK  3 active torsions:
REMARK  status: ('A' for Active; 'I' for Inactive)
REMARK    1  A    between atoms: C_2  and  C_17
REMARK    2  A    between atoms: N_10  and  C_11
REMARK    3  A    between atoms: C_11  and  C_12
REMARK                            x       y       z     vdW  Elec       q    Type
REMARK                         _______ _______ _______ _____ _____    ______ ____
ROOT
ATOM      1  O   UNL     1      -5.168   1.344  25.019  0.00  0.00    -0.266 OA
ATOM      2  C   UNL     1      -4.399   1.585  24.842  0.00  0.00    +0.287 C 
ATOM      3  N   UNL     1      -3.784   1.035  24.840  0.00  0.00    -0.269 N 
ATOM      4  C   UNL     1      -2.991   1.194  24.674  0.00  0.00    +0.125 C 
ATOM      5  C   UNL     1      -2.572   0.487  24.736  0.00  0.00    +0.155 C 
ATOM      6  O   UNL     1      -1.773   0.308  24.632  0.00  0.00    -0.343 OA
ATOM      7  C   UNL     1      -1.507  -0.466  24.732  0.00  0.00    +0.227 C 
ATOM      8  C   UNL     1      -2.039  -1.062  24.936  0.00  0.00    +0.256 C 
ATOM      9  O   UNL     1      -1.773  -1.837  25.036  0.00  0.00    -0.272 OA
ATOM     10  N   UNL     1      -2.838  -0.884  25.039  0.00  0.00    -0.275 N 
ATOM     15  C   UNL     1      -3.104  -0.109  24.939  0.00  0.00    +0.124 C 
ATOM     16  C   UNL     1      -3.853   0.229  25.004  0.00  0.00    +0.116 C 
ENDROOT
BRANCH   2  17
ATOM     17  C   UNL     1      -4.245   2.377  24.667  0.00  0.00    +0.230 A 
ATOM     18  C   UNL     1      -4.177   2.990  25.214  0.00  0.00    +0.069 A 
ATOM     19  C   UNL     1      -4.022   3.686  24.799  0.00  0.00    +0.144 A 
ATOM     20  N   UNL     1      -3.994   3.502  23.995  0.00  0.00    -0.075 NA
ATOM     21  O   UNL     1      -4.132   2.693  23.913  0.00  0.00    -0.349 OA
ENDBRANCH   2  17
BRANCH  10  11
ATOM     11  C   UNL     1      -3.371  -1.480  25.243  0.00  0.00    +0.094 C 
BRANCH  11  12
ATOM     12  C   UNL     1      -3.648  -2.000  24.666  0.00  0.00    +0.020 C 
ATOM     13  C   UNL     1      -4.066  -2.136  23.968  0.00  0.00    +0.002 C 
ATOM     14  C   UNL     1      -3.708  -2.766  24.363  0.00  0.00    +0.002 C 
ENDBRANCH  11  12
ENDBRANCH  10  11
TORSDOF 3
ENDMDL
MODEL 3
REMARK VINA RESULT:      -9.3      1.432      2.150
REMARK  Name = 
REMARK  3 active torsions:
REMARK  status: ('A' for Active; 'I' for Inactive)
REMARK    1  A    between atoms: C_2  and  C_17
REMARK    2  A    between atoms: N_10  and  C_11
REMARK    3  A    between atoms: C_11  and  C_12
REMARK                            x       y       z     vdW  Elec       q    Type
REMARK                         _______ _______ _______ _____ _____    ______ ____
ROOT
ATOM      1  O   UNL     1      -3.785  -0.923  26.044  0.00  0.00    -0.266 OA
ATOM      2  C   UNL     1      -3.492  -0.881  25.274  0.00  0.00    +0.287 C 
ATOM      3  N   UNL     1      -3.484  -0.160  24.874  0.00  0.00    -0.269 N 
ATOM      4  C   UNL     1      -3.208  -0.034  24.106  0.00  0.00    +0.125 C 
ATOM      5  C   UNL     1      -3.304   0.765  23.929  0.00  0.00    +0.155 C 
ATOM      6  O   UNL     1      -3.130   1.206  23.254  0.00  0.00    -0.343 OA
ATOM      7  C   UNL     1      -3.290   2.015  23.236  0.00  0.00    +0.227 C 
ATOM      8  C   UNL     1      -3.624   2.383  23.894  0.00  0.00    +0.256 C 
ATOM      9  O   UNL     1      -3.784   3.193  23.877  0.00  0.00    -0.272 OA
ATOM     10  N   UNL     1      -3.799   1.944  24.570  0.00  0.00    -0.275 N 
ATOM     15  C   UNL     1      -3.638   1.134  24.587  0.00  0.00    +0.124 C 
ATOM     16  C   UNL     1      -3.749   0.562  25.171  0.00  0.00    +0.116 C 
ENDROOT
BRANCH   2  17
ATOM     17  C   UNL     1      -3.206  -1.562  24.905  0.00  0.00    +0.230 A 
ATOM     18  C   UNL     1      -3.664  -2.160  24.570  0.00  0.00    +0.069 A 
ATOM     19  C   UNL     1      -3.153  -2.731  24.263  0.00  0.00    +0.144 A 
ATOM     20  N   UNL     1      -2.379  -2.485  24.409  0.00  0.00    -0.075 NA
ATOM     21  O   UNL     1      -2.412  -1.762  24.806  0.00  0.00    -0.349 OA
ENDBRANCH   2  17
BRANCH  10  11
ATOM     11  C   UNL     1      -4.133   2.312  25.228  0.00  0.00    +0.094 C 
BRANCH  11  12
ATOM     12  C   UNL     1      -4.943   2.467  25.246  0.00  0.00    +0.020 C 
ATOM     13  C   UNL     1      -5.714   2.261  25.040  0.00  0.00    +0.002 C 
ATOM     14  C   UNL     1      -5.574   2.943  25.483  0.00  0.00    +0.002 C 
ENDBRANCH  11  12
ENDBRANCH  10  11
TORSDOF 3
ENDMDL
MODEL 4
REMARK VINA RESULT:      -9.1      2.182      2.564
REMARK  Name = 
REMARK  3 active torsions:
REMARK  status: ('A' for Active; 'I' for Inactive)
REMARK    1  A    between atoms: C_2  and  C_17
REMARK    2  A    between atoms: N_10  and  C_11
REMARK    3  A    between atoms: C_11  and  C_12
REMARK                            x       y       z     vdW  Elec       q    Type
REMARK                         _______ _______ _______ _____ _____    ______ ____
ROOT
ATOM      1  O   UNL     1      -0.403   1.123  26.077  0.00  0.00    -0.266 OA
ATOM      2  C   UNL     1      -0.910   0.892  25.469  0.00  0.00    +0.287 C 
ATOM      3  N   UNL     1      -1.470   1.422  25.174  0.00  0.00    -0.269 N 
ATOM      4  C   UNL     1      -2.011   1.269  24.569  0.00  0.00    +0.125 C 
ATOM      5  C   UNL     1      -2.462   1.949  24.454  0.00  0.00    +0.155 C 
ATOM      6  O   UNL     1      -3.078   2.122  23.932  0.00  0.00    -0.343 OA
ATOM      7  C   UNL     1      -3.431   2.866  23.943  0.00  0.00    +0.227 C 
ATOM      8  C   UNL     1      -3.169   3.440  24.475  0.00  0.00    +0.256 C 
ATOM      9  O   UNL     1      -3.523   4.186  24.486  0.00  0.00    -0.272 OA
ATOM     10  N   UNL     1      -2.554   3.268  24.996  0.00  0.00    -0.275 N 
ATOM     15  C   UNL     1      -2.200   2.522  24.986  0.00  0.00    +0.124 C 
ATOM     16  C   UNL     1      -1.587   2.196  25.430  0.00  0.00    +0.116 C 
ENDROOT
BRANCH   2  17
ATOM     17  C   UNL     1      -0.857   0.130  25.155  0.00  0.00    +0.230 A 
ATOM     18  C   UNL     1      -1.176  -0.554  25.488  0.00  0.00    +0.069 A 
ATOM     19  C   UNL     1      -0.992  -1.188  24.992  0.00  0.00    +0.144 A 
ATOM     20  N   UNL     1      -0.560  -0.894  24.354  0.00  0.00    -0.075 NA
ATOM     21  O   UNL     1      -0.477  -0.080  24.454  0.00  0.00    -0.349 OA
ENDBRANCH   2  17
BRANCH  10  11
ATOM     11  C   UNL     1      -2.291   3.842  25.528  0.00  0.00    +0.094 C 
BRANCH  11  12
ATOM     12  C   UNL     1      -1.777   4.434  25.275  0.00  0.00    +0.020 C 
ATOM     13  C   UNL     1      -1.054   4.662  24.949  0.00  0.00    +0.002 C 
ATOM     14  C   UNL     1      -1.609   5.235  25.162  0.00  0.00    +0.002 C 
ENDBRANCH  11  12
ENDBRANCH  10  11
TORSDOF 3
ENDMDL
MODEL 5
REMARK VINA RESULT:      -9.0      1.549      2.371
REMARK  Name = 
REMARK  3 active torsions:
REMARK  status: ('A' for Active; 'I' for Inactive)
REMARK    1  A    between atoms: C_2  and  C_17
REMARK    2  A    between atoms: N_10  and  C_11
REMARK    3  A    between atoms: C_11  and  C_12
REMARK                            x       y       z     vdW  Elec       q    Type
REMARK                         _______ _______ _______ _____ _____    ______ ____
ROOT
ATOM      1  O   UNL     1      -4.673   0.402  24.928  0.00  0.00    -0.266 OA
ATOM      2  C   UNL     1      -3.925   0.068  24.831  0.00  0.00    +0.287 C 
ATOM      3  N   UNL     1      -3.268   0.552  24.713  0.00  0.00    -0.269 N 
ATOM      4  C   UNL     1      -2.490   0.298  24.608  0.00  0.00    +0.125 C 
ATOM      5  C   UNL     1      -2.015   0.964  24.509  0.00  0.00    +0.155 C 
ATOM      6  O   UNL     1      -1.204   1.052  24.385  0.00  0.00    -0.343 OA
ATOM      7  C   UNL     1      -0.877   1.804  24.305  0.00  0.00    +0.227 C 
ATOM      8  C   UNL     1      -1.361   2.471  24.349  0.00  0.00    +0.256 C 
ATOM      9  O   UNL     1      -1.034   3.225  24.268  0.00  0.00    -0.272 OA
ATOM     10  N   UNL     1      -2.172   2.385  24.473  0.00  0.00    -0.275 N 
ATOM     15  C   UNL     1      -2.499   1.631  24.553  0.00  0.00    +0.124 C 
ATOM     16  C   UNL     1      -3.273   1.376  24.679  0.00  0.00    +0.116 C 
ENDROOT
BRANCH   2  17
ATOM     17  C   UNL     1      -3.834  -0.753  24.852  0.00  0.00    +0.230 A 
ATOM     18  C   UNL     1      -3.975  -1.272  24.227  0.00  0.00    +0.069 A 
ATOM     19  C   UNL     1      -3.815  -2.038  24.490  0.00  0.00    +0.144 A 
ATOM     20  N   UNL     1      -3.575  -1.990  25.279  0.00  0.00    -0.075 NA
ATOM     21  O   UNL     1      -3.587  -1.196  25.502  0.00  0.00    -0.349 OA
ENDBRANCH   2  17
BRANCH  10  11
ATOM     11  C   UNL     1      -2.656   3.052  24.517  0.00  0.00    +0.094 C 
BRANCH  11  12
ATOM     12  C   UNL     1      -2.699   3.484  25.217  0.00  0.00    +0.020 C 
ATOM     13  C   UNL     1      -2.325   3.857  25.851  0.00  0.00    +0.002 C 
ATOM     14  C   UNL     1      -3.149   3.860  25.798  0.00  0.00    +0.002 C 
ENDBRANCH  11  12
ENDBRANCH  10  11
TORSDOF 3
ENDMDL
