MODEL 1
REMARK VINA RESULT:     -12.3      0.000      0.000
REMARK  Name = 
REMARK  9 active torsions:
REMARK  status: ('A' for Active; 'I' for Inactive)
REMARK    1  A    between atoms: C_2  and  C_3
REMARK    2  A    between atoms: C_3  and  C_4
REMARK    3  A    between atoms: C_4  and  C_5
REMARK    4  A    between atoms: C_5  and  C_6
REMARK    5  A    between atoms: C_15  and  C_17
REMARK    6  A    between atoms: C_25  and  C_26
REMARK    7  A    between atoms: C_26  and  C_27
REMARK    8  A    between atoms: N_29  and  C_31
REMARK    9  A    between atoms: C_31  and  C_32
REMARK                            x       y       z     vdW  Elec       q    Type
REMARK                         _______ _______ _______ _____ _____    ______ ____
ROOT
ATOM      6  C   UNL     1       1.449   0.206  23.084  0.00  0.00    +0.247 C 
ATOM      7  O   UNL     1       1.371  -0.609  23.182  0.00  0.00    -0.273 OA
ATOM      8  N   UNL     1       0.834   0.710  23.306  0.00  0.00    -0.154 NA
ATOM      9  C   UNL     1       0.140   0.397  23.626  0.00  0.00    +0.185 A 
ATOM     10  N   UNL     1      -0.518   0.829  23.872  0.00  0.00    -0.227 NA
ATOM     11  C   UNL     1      -1.082   0.297  24.154  0.00  0.00    +0.063 A 
ATOM     12  C   UNL     1      -0.772  -0.465  24.082  0.00  0.00    +0.023 A 
ATOM     13  C   UNL     1      -1.217  -1.116  24.323  0.00  0.00    +0.034 C 
ATOM     14  C   UNL     1      -1.973  -1.006  24.636  0.00  0.00    +0.010 C 
ATOM     15  C   UNL     1      -2.418  -1.657  24.877  0.00  0.00    +0.059 C 
ATOM     16  C   UNL     1      -1.735  -2.039  24.616  0.00  0.00    +0.005 C 
ATOM     19  C   UNL     1      -3.173  -1.547  25.190  0.00  0.00    +0.154 C 
ATOM     20  O   UNL     1      -3.619  -2.198  25.431  0.00  0.00    -0.223 OA
ATOM     21  C   UNL     1      -3.484  -0.786  25.262  0.00  0.00    +0.033 C 
ATOM     22  C   UNL     1      -3.038  -0.135  25.021  0.00  0.00    +0.003 C 
ATOM     23  C   UNL     1      -2.282  -0.245  24.708  0.00  0.00    +0.006 C 
ATOM     24  C   UNL     1      -2.592   0.517  24.779  0.00  0.00    +0.000 C 
ATOM     25  C   UNL     1      -1.837   0.407  24.467  0.00  0.00    +0.050 C 
ATOM     38  S   UNL     1      -0.016  -0.402  23.756  0.00  0.00    -0.054 S 
ENDROOT
BRANCH  15  17
ATOM     17  C   UNL     1      -2.626  -2.441  25.027  0.00  0.00    +0.184 C 
ATOM     18  O   UNL     1      -2.222  -3.054  24.652  0.00  0.00    -0.220 OA
ENDBRANCH  15  17
BRANCH   6   5
ATOM      5  C   UNL     1       2.143   0.519  22.764  0.00  0.00    +0.087 C 
BRANCH   5   4
ATOM      4  C   UNL     1       2.869   0.164  22.929  0.00  0.00    +0.010 C 
BRANCH   4   3
ATOM      3  C   UNL     1       3.569   0.586  22.816  0.00  0.00    +0.001 C 
BRANCH   3   2
ATOM      1  C   UNL     1       4.927   0.593  23.258  0.00  0.00    +0.000 C 
ATOM      2  C   UNL     1       4.297   0.205  22.894  0.00  0.00    +0.000 C 
ENDBRANCH   3   2
ENDBRANCH   4   3
ENDBRANCH   5   4
ENDBRANCH   6   5
BRANCH  25  26
ATOM     26  C   UNL     1      -2.147   1.168  24.539  0.00  0.00    +0.091 C 
BRANCH  26  27
ATOM     27  C   UNL     1      -1.838   1.687  25.101  0.00  0.00    +0.226 C 
ATOM     28  O   UNL     1      -1.389   1.397  25.729  0.00  0.00    -0.275 OA
ATOM     29  N   UNL     1      -1.979   2.497  25.035  0.00  0.00    -0.274 N 
ATOM     30  C   UNL     1      -2.428   2.788  24.407  0.00  0.00    +0.115 C 
BRANCH  29  31
ATOM     31  C   UNL     1      -1.671   3.016  25.596  0.00  0.00    +0.120 C 
BRANCH  31  32
ATOM     32  C   UNL     1      -1.562   3.812  25.407  0.00  0.00    -0.002 A 
ATOM     33  C   UNL     1      -0.858   4.060  25.055  0.00  0.00    -0.003 A 
ATOM     34  C   UNL     1      -0.749   4.855  24.865  0.00  0.00    -0.000 A 
ATOM     35  C   UNL     1      -1.345   5.403  25.029  0.00  0.00    -0.000 A 
ATOM     36  C   UNL     1      -2.048   5.155  25.381  0.00  0.00    -0.000 A 
ATOM     37  C   UNL     1      -2.157   4.359  25.570  0.00  0.00    -0.003 A 
ENDBRANCH  31  32
ENDBRANCH  29  31
ENDBRANCH  26  27
ENDBRANCH  25  26
TORSDOF 9
ENDMDL
MODEL 2
REMARK VINA RESULT:     -12.2      1.411      4.381
REMARK  Name = 
REMARK  9 active torsions:
REMARK  status: ('A' for Active; 'I' for Inactive)
REMARK    1  A    between atoms: C_2  and  C_3
REMARK    2  A    between atoms: C_3  and  C_4
REMARK    3  A    between atoms: C_4  and  C_5
REMARK    4  A    between atoms: C_5  and  C_6
REMARK    5  A    between atoms: C_15  and  C_17
REMARK    6  A    between atoms: C_25  and  C_26
REMARK    7  A    between atoms: C_26  and  C_27
REMARK    8  A    between atoms: N_29  and  C_31
REMARK    9  A    between atoms: C_31  and  C_32
REMARK                            x       y       z     vdW  Elec       q    Type
REMARK                         _______ _______ _______ _____ _____    ______ ____
ROOT
ATOM      6  C   UNL     1       1.055   0.991  23.564  0.00  0.00    +0.247 C 
ATOM      7  O   UNL     1       1.268   1.733  23.856  0.00  0.00    -0.273 OA
ATOM      8  N   UNL     1       0.267   0.748  23.588  0.00  0.00    -0.154 NA
ATOM      9  C   UNL     1      -0.309   1.248  23.905  0.00  0.00    +0.185 A 
ATOM     10  N   UNL     1      -1.115   1.081  23.966  0.00  0.00    -0.227 NA
ATOM     11  C   UNL     1      -1.484   1.732  24.314  0.00  0.00    +0.063 A 
ATOM     12  C   UNL     1      -0.905   2.301  24.468  0.00  0.00    +0.023 A 
ATOM     13  C   UNL     1      -1.116   3.017  24.819  0.00  0.00    +0.034 C 
ATOM     14  C   UNL     1      -1.903   3.165  25.016  0.00  0.00    +0.010 C 
ATOM     15  C   UNL     1      -2.112   3.882  25.367  0.00  0.00    +0.059 C 
ATOM     16  C   UNL     1      -1.300   3.997  25.281  0.00  0.00    +0.005 C 
ATOM     19  C   UNL     1      -2.899   4.031  25.563  0.00  0.00    +0.154 C 
ATOM     20  O   UNL     1      -3.110   4.747  25.914  0.00  0.00    -0.223 OA
ATOM     21  C   UNL     1      -3.478   3.462  25.409  0.00  0.00    +0.033 C 
ATOM     22  C   UNL     1      -3.268   2.745  25.059  0.00  0.00    +0.003 C 
ATOM     23  C   UNL     1      -2.480   2.597  24.862  0.00  0.00    +0.006 C 
ATOM     24  C   UNL     1      -3.058   2.028  24.708  0.00  0.00    +0.000 C 
ATOM     25  C   UNL     1      -2.271   1.880  24.511  0.00  0.00    +0.050 C 
ATOM     38  S   UNL     1      -0.180   2.001  24.215  0.00  0.00    -0.054 S 
ENDROOT
BRANCH  15  17
ATOM     17  C   UNL     1      -2.039   4.638  25.688  0.00  0.00    +0.184 C 
ATOM     18  O   UNL     1      -1.455   5.150  25.410  0.00  0.00    -0.220 OA
ENDBRANCH  15  17
BRANCH   6   5
ATOM      5  C   UNL     1       1.631   0.491  23.248  0.00  0.00    +0.087 C 
BRANCH   5   4
ATOM      4  C   UNL     1       2.395   0.774  23.118  0.00  0.00    +0.010 C 
BRANCH   4   3
ATOM      3  C   UNL     1       2.966   0.280  22.783  0.00  0.00    +0.001 C 
BRANCH   3   2
ATOM      1  C   UNL     1       4.375   0.468  22.921  0.00  0.00    +0.000 C 
ATOM      2  C   UNL     1       3.674   0.598  22.505  0.00  0.00    +0.000 C 
ENDBRANCH   3   2
ENDBRANCH   4   3
ENDBRANCH   5   4
ENDBRANCH   6   5
BRANCH  25  26
ATOM     26  C   UNL     1      -2.848   1.312  24.357  0.00  0.00    +0.091 C 
BRANCH  26  27
ATOM     27  C   UNL     1      -2.914   0.649  24.843  0.00  0.00    +0.226 C 
ATOM     28  O   UNL     1      -2.512   0.623  25.563  0.00  0.00    -0.275 OA
ATOM     29  N   UNL     1      -3.382   0.011  24.611  0.00  0.00    -0.274 N 
ATOM     30  C   UNL     1      -3.786   0.037  23.891  0.00  0.00    +0.115 C 
BRANCH  29  31
ATOM     31  C   UNL     1      -3.448  -0.651  25.096  0.00  0.00    +0.120 C 
BRANCH  31  32
ATOM     32  C   UNL     1      -3.537  -1.401  24.762  0.00  0.00    -0.002 A 
ATOM     33  C   UNL     1      -4.191  -1.567  24.288  0.00  0.00    -0.003 A 
ATOM     34  C   UNL     1      -4.279  -2.316  23.954  0.00  0.00    -0.000 A 
ATOM     35  C   UNL     1      -3.713  -2.900  24.095  0.00  0.00    -0.000 A 
ATOM     36  C   UNL     1      -3.059  -2.734  24.570  0.00  0.00    -0.000 A 
ATOM     37  C   UNL     1      -2.971  -1.984  24.904  0.00  0.00    -0.003 A 
ENDBRANCH  31  32
ENDBRANCH  29  31
ENDBRANCH  26  27
ENDBRANCH  25  26
TORSDOF 9
ENDMDL
MODEL 3
REMARK VINA RESULT:     -11.7      2.305      3.412
REMARK  Name = 
REMARK  9 active torsions:
REMARK  status: ('A' for Active; 'I' for Inactive)
REMARK    1  A    between atoms: C_2  and  C_3
REMARK    2  A    between atoms: C_3  and  C_4
REMARK    3  A    between atoms: C_4  and  C_5
REMARK    4  A    between atoms: C_5  and  C_6
REMARK    5  A    between atoms: C_15  and  C_17
REMARK    6  A    between atoms: C_25  and  C_26
REMARK    7  A    between atoms: C_26  and  C_27
REMARK    8  A    between atoms: N_29  and  C_31
REMARK    9  A    between atoms: C_31  and  C_32
REMARK                            x       y       z     vdW  Elec       q    Type
REMARK                         _______ _______ _______ _____ _____    ______ ____
ROOT
ATOM      6  C   UNL     1      -0.609   1.967  25.286  0.00  0.00    +0.247 C 
ATOM      7  O   UNL     1      -0.128   1.334  25.066  0.00  0.00    -0.273 OA
ATOM      8  N   UNL     1      -1.423   1.860  25.366  0.00  0.00    -0.154 NA
ATOM      9  C   UNL     1      -1.756   1.118  25.226  0.00  0.00    +0.185 A 
ATOM     10  N   UNL     1      -2.557   0.927  25.283  0.00  0.00    -0.227 NA
ATOM     11  C   UNL     1      -2.643   0.128  25.096  0.00  0.00    +0.063 A 
ATOM     12  C   UNL     1      -1.895  -0.175  24.923  0.00  0.00    +0.023 A 
ATOM     13  C   UNL     1      -1.811  -0.968  24.714  0.00  0.00    +0.034 C 
ATOM     14  C   UNL     1      -2.473  -1.459  24.680  0.00  0.00    +0.010 C 
ATOM     15  C   UNL     1      -2.388  -2.253  24.471  0.00  0.00    +0.059 C 
ATOM     16  C   UNL     1      -1.601  -2.008  24.428  0.00  0.00    +0.005 C 
ATOM     19  C   UNL     1      -3.050  -2.743  24.436  0.00  0.00    +0.154 C 
ATOM     20  O   UNL     1      -2.966  -3.537  24.228  0.00  0.00    -0.223 OA
ATOM     21  C   UNL     1      -3.798  -2.440  24.610  0.00  0.00    +0.033 C 
ATOM     22  C   UNL     1      -3.882  -1.646  24.818  0.00  0.00    +0.003 C 
ATOM     23  C   UNL     1      -3.220  -1.156  24.853  0.00  0.00    +0.006 C 
ATOM     24  C   UNL     1      -3.967  -0.852  25.026  0.00  0.00    +0.000 C 
ATOM     25  C   UNL     1      -3.306  -0.362  25.061  0.00  0.00    +0.050 C 
ATOM     38  S   UNL     1      -1.348   0.437  25.003  0.00  0.00    -0.054 S 
ENDROOT
BRANCH  15  17
ATOM     17  C   UNL     1      -2.029  -2.961  24.248  0.00  0.00    +0.184 C 
ATOM     18  O   UNL     1      -1.250  -2.962  23.977  0.00  0.00    -0.220 OA
ENDBRANCH  15  17
BRANCH   6   5
ATOM      5  C   UNL     1      -0.275   2.710  25.427  0.00  0.00    +0.087 C 
BRANCH   5   4
ATOM      4  C   UNL     1      -0.505   3.357  24.970  0.00  0.00    +0.010 C 
BRANCH   4   3
ATOM      3  C   UNL     1      -0.574   4.103  25.318  0.00  0.00    +0.001 C 
BRANCH   3   2
ATOM      1  C   UNL     1      -1.288   5.308  25.040  0.00  0.00    +0.000 C 
ATOM      2  C   UNL     1      -0.696   4.768  24.845  0.00  0.00    +0.000 C 
ENDBRANCH   3   2
ENDBRANCH   4   3
ENDBRANCH   5   4
ENDBRANCH   6   5
BRANCH  25  26
ATOM     26  C   UNL     1      -4.053  -0.059  25.235  0.00  0.00    +0.091 C 
BRANCH  26  27
ATOM     27  C   UNL     1      -4.378   0.533  24.760  0.00  0.00    +0.226 C 
ATOM     28  O   UNL     1      -4.161   0.591  23.967  0.00  0.00    -0.275 OA
ATOM     29  N   UNL     1      -4.920   1.066  25.079  0.00  0.00    -0.274 N 
ATOM     30  C   UNL     1      -5.138   1.007  25.874  0.00  0.00    +0.115 C 
BRANCH  29  31
ATOM     31  C   UNL     1      -5.245   1.657  24.605  0.00  0.00    +0.120 C 
BRANCH  31  32
ATOM     32  C   UNL     1      -5.245   2.441  24.865  0.00  0.00    -0.002 A 
ATOM     33  C   UNL     1      -5.777   2.682  25.448  0.00  0.00    -0.003 A 
ATOM     34  C   UNL     1      -5.777   3.465  25.707  0.00  0.00    -0.000 A 
ATOM     35  C   UNL     1      -5.246   4.007  25.383  0.00  0.00    -0.000 A 
ATOM     36  C   UNL     1      -4.714   3.766  24.800  0.00  0.00    -0.000 A 
ATOM     37  C   UNL     1      -4.714   2.982  24.541  0.00  0.00    -0.003 A 
ENDBRANCH  31  32
ENDBRANCH  29  31
ENDBRANCH  26  27
ENDBRANCH  25  26
TORSDOF 9
ENDMDL
MODEL 4
REMARK VINA RESULT:     -10.6      2.294      4.582
REMARK  Name = 
REMARK  9 active torsions:
REMARK  status: ('A' for Active; 'I' for Inactive)
REMARK    1  A    between atoms: C_2  and  C_3
REMARK    2  A    between atoms: C_3  and  C_4
REMARK    3  A    between atoms: C_4  and  C_5
REMARK    4  A    between atoms: C_5  and  C_6
REMARK    5  A    between atoms: C_15  and  C_17
REMARK    6  A    between atoms: C_25  and  C_26
REMARK    7  A    between atoms: C_26  and  C_27
REMARK    8  A    between atoms: N_29  and  C_31
REMARK    9  A    between atoms: C_31  and  C_32
REMARK                            x       y       z     vdW  Elec       q    Type
REMARK                         _______ _______ _______ _____ _____    ______ ____
ROOT
ATOM      6  C   UNL     1      -5.409   1.703  25.043  0.00  0.00    +0.247 C 
ATOM      7  O   UNL     1      -5.680   0.930  25.142  0.00  0.00    -0.273 OA
ATOM      8  N   UNL     1      -4.612   1.845  24.887  0.00  0.00    -0.154 NA
ATOM      9  C   UNL     1      -4.084   1.212  24.828  0.00  0.00    +0.185 A 
ATOM     10  N   UNL     1      -3.275   1.268  24.675  0.00  0.00    -0.227 NA
ATOM     11  C   UNL     1      -2.965   0.504  24.665  0.00  0.00    +0.063 A 
ATOM     12  C   UNL     1      -3.582  -0.024  24.812  0.00  0.00    +0.023 A 
ATOM     13  C   UNL     1      -3.434  -0.835  24.835  0.00  0.00    +0.034 C 
ATOM     14  C   UNL     1      -2.669  -1.119  24.711  0.00  0.00    +0.010 C 
ATOM     15  C   UNL     1      -2.522  -1.931  24.734  0.00  0.00    +0.059 C 
ATOM     16  C   UNL     1      -3.333  -1.929  24.885  0.00  0.00    +0.005 C 
ATOM     19  C   UNL     1      -1.757  -2.214  24.610  0.00  0.00    +0.154 C 
ATOM     20  O   UNL     1      -1.609  -3.025  24.633  0.00  0.00    -0.223 OA
ATOM     21  C   UNL     1      -1.140  -1.686  24.463  0.00  0.00    +0.033 C 
ATOM     22  C   UNL     1      -1.288  -0.875  24.440  0.00  0.00    +0.003 C 
ATOM     23  C   UNL     1      -2.053  -0.592  24.564  0.00  0.00    +0.006 C 
ATOM     24  C   UNL     1      -1.436  -0.063  24.417  0.00  0.00    +0.000 C 
ATOM     25  C   UNL     1      -2.200   0.220  24.541  0.00  0.00    +0.050 C 
ATOM     38  S   UNL     1      -4.274   0.414  24.913  0.00  0.00    -0.054 S 
ENDROOT
BRANCH  15  17
ATOM     17  C   UNL     1      -2.656  -2.741  24.810  0.00  0.00    +0.184 C 
ATOM     18  O   UNL     1      -3.424  -3.024  24.906  0.00  0.00    -0.220 OA
ENDBRANCH  15  17
BRANCH   6   5
ATOM      5  C   UNL     1      -5.936   2.336  25.102  0.00  0.00    +0.087 C 
BRANCH   5   4
ATOM      4  C   UNL     1      -5.744   2.991  25.566  0.00  0.00    +0.010 C 
BRANCH   4   3
ATOM      3  C   UNL     1      -6.099   3.721  25.415  0.00  0.00    +0.001 C 
BRANCH   3   2
ATOM      1  C   UNL     1      -6.072   5.146  25.503  0.00  0.00    +0.000 C 
ATOM      2  C   UNL     1      -5.762   4.412  25.715  0.00  0.00    +0.000 C 
ENDBRANCH   3   2
ENDBRANCH   4   3
ENDBRANCH   5   4
ENDBRANCH   6   5
BRANCH  25  26
ATOM     26  C   UNL     1      -1.584   0.747  24.394  0.00  0.00    +0.091 C 
BRANCH  26  27
ATOM     27  C   UNL     1      -1.344   1.275  24.981  0.00  0.00    +0.226 C 
ATOM     28  O   UNL     1      -1.417   1.069  25.776  0.00  0.00    -0.275 OA
ATOM     29  N   UNL     1      -1.029   2.009  24.773  0.00  0.00    -0.274 N 
ATOM     30  C   UNL     1      -0.955   2.215  23.977  0.00  0.00    +0.115 C 
BRANCH  29  31
ATOM     31  C   UNL     1      -0.789   2.536  25.360  0.00  0.00    +0.120 C 
BRANCH  31  32
ATOM     32  C   UNL     1      -0.963   3.340  25.288  0.00  0.00    -0.002 A 
ATOM     33  C   UNL     1      -1.631   3.652  25.658  0.00  0.00    -0.003 A 
ATOM     34  C   UNL     1      -1.804   4.455  25.588  0.00  0.00    -0.000 A 
ATOM     35  C   UNL     1      -1.309   4.947  25.146  0.00  0.00    -0.000 A 
ATOM     36  C   UNL     1      -0.641   4.634  24.776  0.00  0.00    -0.000 A 
ATOM     37  C   UNL     1      -0.468   3.830  24.847  0.00  0.00    -0.003 A 
ENDBRANCH  31  32
ENDBRANCH  29  31
ENDBRANCH  26  27
ENDBRANCH  25  26
TORSDOF 9
ENDMDL
