MODEL 1
REMARK VINA RESULT:     -10.0      0.000      0.000
REMARK  Name = 
REMARK  7 active torsions:
REMARK  status: ('A' for Active; 'I' for Inactive)
REMARK    1  A    between atoms: O_2  and  C_3
REMARK    2  A    between atoms: C_3  and  C_5
REMARK    3  A    between atoms: N_10  and  S_11
REMARK    4  A    between atoms: S_11  and  C_14
REMARK    5  A    between atoms: C_17  and  C_20
REMARK    6  A    between atoms: N_22  and  C_23
REMARK    7  A    between atoms: C_23  and  C_24
REMARK                            x       y       z     vdW  Elec       q    Type
REMARK                         _______ _______ _______ _____ _____    ______ ____
ROOT
ATOM      5  C   UNL     1      -4.692   2.591  25.369  0.00  0.00    +0.184 C 
ATOM      6  C   UNL     1      -5.288   2.022  25.391  0.00  0.00    +0.076 C 
ATOM      7  C   UNL     1      -5.146   1.263  25.101  0.00  0.00    +0.076 A 
ATOM      8  C   UNL     1      -4.406   1.074  24.789  0.00  0.00    +0.070 A 
ATOM      9  C   UNL     1      -3.809   1.643  24.767  0.00  0.00    +0.141 C 
ATOM     10  N   UNL     1      -3.953   2.402  25.057  0.00  0.00    -0.140 NA
ATOM     22  N   UNL     1      -4.426   0.286  24.545  0.00  0.00    -0.307 N 
ATOM     31  C   UNL     1      -5.178  -0.011  24.706  0.00  0.00    +0.178 A 
ATOM     32  N   UNL     1      -5.622   0.593  25.050  0.00  0.00    -0.229 NA
ENDROOT
BRANCH  10  11
ATOM     11  S   UNL     1      -3.356   2.971  25.035  0.00  0.00    +0.064 S 
ATOM     12  O   UNL     1      -3.098   2.730  25.780  0.00  0.00    -0.153 OA
ATOM     13  O   UNL     1      -3.614   3.212  24.289  0.00  0.00    -0.153 OA
BRANCH  11  14
ATOM     14  C   UNL     1      -2.759   3.540  25.012  0.00  0.00    +0.122 A 
ATOM     15  C   UNL     1      -2.703   4.052  24.368  0.00  0.00    +0.021 A 
ATOM     16  C   UNL     1      -2.107   4.622  24.343  0.00  0.00    +0.012 A 
ATOM     17  C   UNL     1      -1.566   4.679  24.964  0.00  0.00    +0.069 A 
ATOM     18  C   UNL     1      -1.622   4.167  25.609  0.00  0.00    +0.012 A 
ATOM     19  C   UNL     1      -2.218   3.598  25.632  0.00  0.00    +0.021 A 
BRANCH  17  20
ATOM     20  C   UNL     1      -0.970   5.249  24.940  0.00  0.00    +0.100 C 
ATOM     21  N   UNL     1      -0.374   5.819  24.914  0.00  0.00    -0.191 NA
ENDBRANCH  17  20
ENDBRANCH  11  14
ENDBRANCH  10  11
BRANCH   5   3
ATOM      3  C   UNL     1      -4.835   3.350  25.659  0.00  0.00    +0.334 C 
ATOM      4  O   UNL     1      -4.573   3.559  26.413  0.00  0.00    -0.249 OA
BRANCH   3   2
ATOM      1  C   UNL     1      -5.804   4.394  25.540  0.00  0.00    +0.256 C 
ATOM      2  O   UNL     1      -5.240   3.900  25.196  0.00  0.00    -0.443 OA
ENDBRANCH   3   2
ENDBRANCH   5   3
BRANCH  22  23
ATOM     23  C   UNL     1      -3.803  -0.131  24.200  0.00  0.00    +0.134 C 
BRANCH  23  24
ATOM     24  C   UNL     1      -3.723  -0.940  24.338  0.00  0.00    +0.000 A 
ATOM     25  C   UNL     1      -3.274  -1.208  24.976  0.00  0.00    -0.002 A 
ATOM     26  C   UNL     1      -3.194  -2.018  25.114  0.00  0.00    +0.011 A 
ATOM     27  C   UNL     1      -3.562  -2.559  24.612  0.00  0.00    +0.058 A 
ATOM     28 CL   UNL     1      -3.482  -3.369  24.749  0.00  0.00    -0.082 Cl
ATOM     29  C   UNL     1      -4.011  -2.292  23.974  0.00  0.00    +0.011 A 
ATOM     30  C   UNL     1      -4.091  -1.483  23.837  0.00  0.00    -0.002 A 
ENDBRANCH  23  24
ENDBRANCH  22  23
TORSDOF 7
ENDMDL
MODEL 2
REMARK VINA RESULT:      -9.9      2.408      3.488
REMARK  Name = 
REMARK  7 active torsions:
REMARK  status: ('A' for Active; 'I' for Inactive)
REMARK    1  A    between atoms: O_2  and  C_3
REMARK    2  A    between atoms: C_3  and  C_5
REMARK    3  A    between atoms: N_10  and  S_11
REMARK    4  A    between atoms: S_11  and  C_14
REMARK    5  A    between atoms: C_17  and  C_20
REMARK    6  A    between atoms: N_22  and  C_23
REMARK    7  A    between atoms: C_23  and  C_24
REMARK                            x       y       z     vdW  Elec       q    Type
REMARK                         _______ _______ _______ _____ _____    ______ ____
ROOT
ATOM      5  C   UNL     1      -0.216   0.729  24.644  0.00  0.00    +0.184 C 
ATOM      6  C   UNL     1      -0.045  -0.074  24.570  0.00  0.00    +0.076 C 
ATOM      7  C   UNL     1      -0.630  -0.636  24.720  0.00  0.00    +0.076 A 
ATOM      8  C   UNL     1      -1.386  -0.395  24.945  0.00  0.00    +0.070 A 
ATOM      9  C   UNL     1      -1.557   0.410  25.019  0.00  0.00    +0.141 C 
ATOM     10  N   UNL     1      -0.972   0.971  24.868  0.00  0.00    -0.140 NA
ATOM     22  N   UNL     1      -1.847  -1.069  25.056  0.00  0.00    -0.307 N 
ATOM     31  C   UNL     1      -1.376  -1.728  24.901  0.00  0.00    +0.178 A 
ATOM     32  N   UNL     1      -0.624  -1.460  24.693  0.00  0.00    -0.229 NA
ENDROOT
BRANCH  10  11
ATOM     11  S   UNL     1      -1.144   1.774  24.943  0.00  0.00    +0.064 S 
ATOM     12  O   UNL     1      -1.378   1.798  24.153  0.00  0.00    -0.153 OA
ATOM     13  O   UNL     1      -0.909   1.751  25.734  0.00  0.00    -0.153 OA
BRANCH  11  14
ATOM     14  C   UNL     1      -1.315   2.578  25.018  0.00  0.00    +0.122 A 
ATOM     15  C   UNL     1      -1.653   2.988  24.387  0.00  0.00    +0.021 A 
ATOM     16  C   UNL     1      -1.824   3.792  24.461  0.00  0.00    +0.012 A 
ATOM     17  C   UNL     1      -1.658   4.185  25.168  0.00  0.00    +0.069 A 
ATOM     18  C   UNL     1      -1.320   3.775  25.799  0.00  0.00    +0.012 A 
ATOM     19  C   UNL     1      -1.149   2.971  25.723  0.00  0.00    +0.021 A 
BRANCH  17  20
ATOM     20  C   UNL     1      -1.830   4.988  25.242  0.00  0.00    +0.100 C 
ATOM     21  N   UNL     1      -2.001   5.792  25.315  0.00  0.00    -0.191 NA
ENDBRANCH  17  20
ENDBRANCH  11  14
ENDBRANCH  10  11
BRANCH   5   3
ATOM      3  C   UNL     1       0.369   1.291  24.493  0.00  0.00    +0.334 C 
ATOM      4  O   UNL     1       0.729   1.689  25.119  0.00  0.00    -0.249 OA
BRANCH   3   2
ATOM      1  C   UNL     1       1.393   1.518  23.523  0.00  0.00    +0.256 C 
ATOM      2  O   UNL     1       0.594   1.455  23.716  0.00  0.00    -0.443 OA
ENDBRANCH   3   2
ENDBRANCH   5   3
BRANCH  22  23
ATOM     23  C   UNL     1      -2.640  -1.083  25.284  0.00  0.00    +0.134 C 
BRANCH  23  24
ATOM     24  C   UNL     1      -3.187  -1.520  24.848  0.00  0.00    +0.000 A 
ATOM     25  C   UNL     1      -3.677  -1.143  24.302  0.00  0.00    -0.002 A 
ATOM     26  C   UNL     1      -4.223  -1.580  23.866  0.00  0.00    +0.011 A 
ATOM     27  C   UNL     1      -4.280  -2.396  23.976  0.00  0.00    +0.058 A 
ATOM     28 CL   UNL     1      -4.827  -2.834  23.541  0.00  0.00    -0.082 Cl
ATOM     29  C   UNL     1      -3.791  -2.774  24.522  0.00  0.00    +0.011 A 
ATOM     30  C   UNL     1      -3.245  -2.336  24.958  0.00  0.00    -0.002 A 
ENDBRANCH  23  24
ENDBRANCH  22  23
TORSDOF 7
ENDMDL
MODEL 3
REMARK VINA RESULT:      -9.5      1.836      3.134
REMARK  Name = 
REMARK  7 active torsions:
REMARK  status: ('A' for Active; 'I' for Inactive)
REMARK    1  A    between atoms: O_2  and  C_3
REMARK    2  A    between atoms: C_3  and  C_5
REMARK    3  A    between atoms: N_10  and  S_11
REMARK    4  A    between atoms: S_11  and  C_14
REMARK    5  A    between atoms: C_17  and  C_20
REMARK    6  A    between atoms: N_22  and  C_23
REMARK    7  A    between atoms: C_23  and  C_24
REMARK                            x       y       z     vdW  Elec       q    Type
REMARK                         _______ _______ _______ _____ _____    ______ ____
ROOT
ATOM      5  C   UNL     1      -1.547   1.808  24.313  0.00  0.00    +0.184 C 
ATOM      6  C   UNL     1      -0.922   1.291  24.167  0.00  0.00    +0.076 C 
ATOM      7  C   UNL     1      -0.948   0.518  24.454  0.00  0.00    +0.076 A 
ATOM      8  C   UNL     1      -1.602   0.262  24.889  0.00  0.00    +0.070 A 
ATOM      9  C   UNL     1      -2.228   0.780  25.036  0.00  0.00    +0.141 C 
ATOM     10  N   UNL     1      -2.200   1.552  24.748  0.00  0.00    -0.140 NA
ATOM     22  N   UNL     1      -1.475  -0.524  25.100  0.00  0.00    -0.307 N 
ATOM     31  C   UNL     1      -0.744  -0.756  24.797  0.00  0.00    +0.178 A 
ATOM     32  N   UNL     1      -0.419  -0.111  24.398  0.00  0.00    -0.229 NA
ENDROOT
BRANCH  10  11
ATOM     11  S   UNL     1      -2.826   2.069  24.895  0.00  0.00    +0.064 S 
ATOM     12  O   UNL     1      -2.467   2.305  25.598  0.00  0.00    -0.153 OA
ATOM     13  O   UNL     1      -3.186   1.833  24.190  0.00  0.00    -0.153 OA
BRANCH  11  14
ATOM     14  C   UNL     1      -3.453   2.585  25.041  0.00  0.00    +0.122 A 
ATOM     15  C   UNL     1      -4.136   2.544  24.581  0.00  0.00    +0.021 A 
ATOM     16  C   UNL     1      -4.764   3.060  24.726  0.00  0.00    +0.012 A 
ATOM     17  C   UNL     1      -4.707   3.618  25.332  0.00  0.00    +0.069 A 
ATOM     18  C   UNL     1      -4.023   3.659  25.792  0.00  0.00    +0.012 A 
ATOM     19  C   UNL     1      -3.396   3.142  25.646  0.00  0.00    +0.021 A 
BRANCH  17  20
ATOM     20  C   UNL     1      -5.334   4.133  25.477  0.00  0.00    +0.100 C 
ATOM     21  N   UNL     1      -5.961   4.649  25.623  0.00  0.00    -0.191 NA
ENDBRANCH  17  20
ENDBRANCH  11  14
ENDBRANCH  10  11
BRANCH   5   3
ATOM      3  C   UNL     1      -1.520   2.580  24.026  0.00  0.00    +0.334 C 
ATOM      4  O   UNL     1      -1.915   2.774  23.328  0.00  0.00    -0.249 OA
BRANCH   3   2
ATOM      1  C   UNL     1      -0.620   3.690  24.023  0.00  0.00    +0.256 C 
ATOM      2  O   UNL     1      -1.097   3.159  24.435  0.00  0.00    -0.443 OA
ENDBRANCH   3   2
ENDBRANCH   5   3
BRANCH  22  23
ATOM     23  C   UNL     1      -1.990  -0.998  25.539  0.00  0.00    +0.134 C 
BRANCH  23  24
ATOM     24  C   UNL     1      -2.437  -1.580  25.162  0.00  0.00    +0.000 A 
ATOM     25  C   UNL     1      -3.259  -1.513  25.133  0.00  0.00    -0.002 A 
ATOM     26  C   UNL     1      -3.707  -2.095  24.757  0.00  0.00    +0.011 A 
ATOM     27  C   UNL     1      -3.332  -2.743  24.409  0.00  0.00    +0.058 A 
ATOM     28 CL   UNL     1      -3.779  -3.325  24.033  0.00  0.00    -0.082 Cl
ATOM     29  C   UNL     1      -2.511  -2.810  24.439  0.00  0.00    +0.011 A 
ATOM     30  C   UNL     1      -2.063  -2.228  24.815  0.00  0.00    -0.002 A 
ENDBRANCH  23  24
ENDBRANCH  22  23
TORSDOF 7
ENDMDL
MODEL 4
REMARK VINA RESULT:      -9.2      2.160      5.063
REMARK  Name = 
REMARK  7 active torsions:
REMARK  status: ('A' for Active; 'I' for Inactive)
REMARK    1  A    between atoms: O_2  and  C_3
REMARK    2  A    between atoms: C_3  and  C_5
REMARK    3  A    between atoms: N_10  and  S_11
REMARK    4  A    between atoms: S_11  and  C_14
REMARK    5  A    between atoms: C_17  and  C_20
REMARK    6  A    between atoms: N_22  and  C_23
REMARK    7  A    between atoms: C_23  and  C_24
REMARK                            x       y       z     vdW  Elec       q    Type
REMARK                         _______ _______ _______ _____ _____    ______ ____
ROOT
ATOM      5  C   UNL     1      -4.846   2.145  25.032  0.00  0.00    +0.184 C 
ATOM      6  C   UNL     1      -4.916   2.950  25.195  0.00  0.00    +0.076 C 
ATOM      7  C   UNL     1      -4.250   3.388  25.406  0.00  0.00    +0.076 A 
ATOM      8  C   UNL     1      -3.513   3.020  25.455  0.00  0.00    +0.070 A 
ATOM      9  C   UNL     1      -3.443   2.214  25.293  0.00  0.00    +0.141 C 
ATOM     10  N   UNL     1      -4.110   1.777  25.081  0.00  0.00    -0.140 NA
ATOM     22  N   UNL     1      -2.958   3.589  25.676  0.00  0.00    -0.307 N 
ATOM     31  C   UNL     1      -3.351   4.308  25.764  0.00  0.00    +0.178 A 
ATOM     32  N   UNL     1      -4.149   4.184  25.597  0.00  0.00    -0.229 NA
ENDROOT
BRANCH  10  11
ATOM     11  S   UNL     1      -4.039   0.971  24.918  0.00  0.00    +0.064 S 
ATOM     12  O   UNL     1      -3.862   1.144  24.132  0.00  0.00    -0.153 OA
ATOM     13  O   UNL     1      -4.215   0.797  25.706  0.00  0.00    -0.153 OA
BRANCH  11  14
ATOM     14  C   UNL     1      -3.968   0.165  24.757  0.00  0.00    +0.122 A 
ATOM     15  C   UNL     1      -3.927  -0.377  25.378  0.00  0.00    +0.021 A 
ATOM     16  C   UNL     1      -3.857  -1.183  25.218  0.00  0.00    +0.012 A 
ATOM     17  C   UNL     1      -3.827  -1.447  24.436  0.00  0.00    +0.069 A 
ATOM     18  C   UNL     1      -3.868  -0.905  23.815  0.00  0.00    +0.012 A 
ATOM     19  C   UNL     1      -3.939  -0.099  23.977  0.00  0.00    +0.021 A 
BRANCH  17  20
ATOM     20  C   UNL     1      -3.757  -2.253  24.276  0.00  0.00    +0.100 C 
ATOM     21  N   UNL     1      -3.685  -3.060  24.116  0.00  0.00    -0.191 NA
ENDBRANCH  17  20
ENDBRANCH  11  14
ENDBRANCH  10  11
BRANCH   5   3
ATOM      3  C   UNL     1      -5.512   1.707  24.820  0.00  0.00    +0.334 C 
ATOM      4  O   UNL     1      -5.646   1.517  24.029  0.00  0.00    -0.249 OA
BRANCH   3   2
ATOM      1  C   UNL     1      -6.855   1.553  25.283  0.00  0.00    +0.256 C 
ATOM      2  O   UNL     1      -6.045   1.459  25.400  0.00  0.00    -0.443 OA
ENDBRANCH   3   2
ENDBRANCH   5   3
BRANCH  22  23
ATOM     23  C   UNL     1      -2.151   3.460  25.789  0.00  0.00    +0.134 C 
BRANCH  23  24
ATOM     24  C   UNL     1      -1.599   3.904  25.366  0.00  0.00    +0.000 A 
ATOM     25  C   UNL     1      -1.053   3.525  24.876  0.00  0.00    -0.002 A 
ATOM     26  C   UNL     1      -0.502   3.969  24.453  0.00  0.00    +0.011 A 
ATOM     27  C   UNL     1      -0.496   4.791  24.519  0.00  0.00    +0.058 A 
ATOM     28 CL   UNL     1       0.056   5.235  24.096  0.00  0.00    -0.082 Cl
ATOM     29  C   UNL     1      -1.041   5.170  25.009  0.00  0.00    +0.011 A 
ATOM     30  C   UNL     1      -1.592   4.726  25.432  0.00  0.00    -0.002 A 
ENDBRANCH  23  24
ENDBRANCH  22  23
TORSDOF 7
ENDMDL
MODEL 5
REMARK VINA RESULT:      -8.7      2.670      5.185
REMARK  Name = 
REMARK  7 active torsions:
REMARK  status: ('A' for Active; 'I' for Inactive)
REMARK    1  A    between atoms: O_2  and  C_3
REMARK    2  A    between atoms: C_3  and  C_5
REMARK    3  A    between atoms: N_10  and  S_11
REMARK    4  A    between atoms: S_11  and  C_14
REMARK    5  A    between atoms: C_17  and  C_20
REMARK    6  A    between atoms: N_22  and  C_23
REMARK    7  A    between atoms: C_23  and  C_24
REMARK                            x       y       z     vdW  Elec       q    Type
REMARK                         _______ _______ _______ _____ _____    ______ ____
ROOT
ATOM      5  C   UNL     1      -3.451   0.891  24.377  0.00  0.00    +0.184 C 
ATOM      6  C   UNL     1      -3.977   1.517  24.273  0.00  0.00    +0.076 C 
ATOM      7  C   UNL     1      -3.826   2.248  24.624  0.00  0.00    +0.076 A 
ATOM      8  C   UNL     1      -3.146   2.353  25.080  0.00  0.00    +0.070 A 
ATOM      9  C   UNL     1      -2.618   1.727  25.185  0.00  0.00    +0.141 C 
ATOM     10  N   UNL     1      -2.771   0.996  24.833  0.00  0.00    -0.140 NA
ATOM     22  N   UNL     1      -3.142   3.130  25.357  0.00  0.00    -0.307 N 
ATOM     31  C   UNL     1      -3.818   3.505  25.072  0.00  0.00    +0.178 A 
ATOM     32  N   UNL     1      -4.241   2.960  24.620  0.00  0.00    -0.229 NA
ENDROOT
BRANCH  10  11
ATOM     11  S   UNL     1      -2.244   0.371  24.938  0.00  0.00    +0.064 S 
ATOM     12  O   UNL     1      -2.645   0.145  25.621  0.00  0.00    -0.153 OA
ATOM     13  O   UNL     1      -1.841   0.597  24.253  0.00  0.00    -0.153 OA
BRANCH  11  14
ATOM     14  C   UNL     1      -1.715  -0.254  25.042  0.00  0.00    +0.122 A 
ATOM     15  C   UNL     1      -1.789  -0.752  25.695  0.00  0.00    +0.021 A 
ATOM     16  C   UNL     1      -1.261  -1.377  25.800  0.00  0.00    +0.012 A 
ATOM     17  C   UNL     1      -0.659  -1.505  25.250  0.00  0.00    +0.069 A 
ATOM     18  C   UNL     1      -0.585  -1.007  24.596  0.00  0.00    +0.012 A 
ATOM     19  C   UNL     1      -1.113  -0.382  24.493  0.00  0.00    +0.021 A 
BRANCH  17  20
ATOM     20  C   UNL     1      -0.131  -2.130  25.355  0.00  0.00    +0.100 C 
ATOM     21  N   UNL     1       0.397  -2.755  25.459  0.00  0.00    -0.191 NA
ENDBRANCH  17  20
ENDBRANCH  11  14
ENDBRANCH  10  11
BRANCH   5   3
ATOM      3  C   UNL     1      -3.603   0.161  24.026  0.00  0.00    +0.334 C 
ATOM      4  O   UNL     1      -3.258  -0.027  23.301  0.00  0.00    -0.249 OA
BRANCH   3   2
ATOM      1  C   UNL     1      -4.543  -0.913  23.951  0.00  0.00    +0.256 C 
ATOM      2  O   UNL     1      -4.100  -0.381  24.400  0.00  0.00    -0.443 OA
ENDBRANCH   3   2
ENDBRANCH   5   3
BRANCH  22  23
ATOM     23  C   UNL     1      -2.562   3.472  25.834  0.00  0.00    +0.134 C 
BRANCH  23  24
ATOM     24  C   UNL     1      -2.075   4.065  25.532  0.00  0.00    +0.000 A 
ATOM     25  C   UNL     1      -1.310   3.883  25.282  0.00  0.00    -0.002 A 
ATOM     26  C   UNL     1      -0.823   4.476  24.979  0.00  0.00    +0.011 A 
ATOM     27  C   UNL     1      -1.101   5.251  24.926  0.00  0.00    +0.058 A 
ATOM     28 CL   UNL     1      -0.614   5.844  24.624  0.00  0.00    -0.082 Cl
ATOM     29  C   UNL     1      -1.866   5.433  25.176  0.00  0.00    +0.011 A 
ATOM     30  C   UNL     1      -2.353   4.840  25.478  0.00  0.00    -0.002 A 
ENDBRANCH  23  24
ENDBRANCH  22  23
TORSDOF 7
ENDMDL
MODEL 6
REMARK VINA RESULT:      -8.7      3.354      4.746
REMARK  Name = 
REMARK  7 active torsions:
REMARK  status: ('A' for Active; 'I' for Inactive)
REMARK    1  A    between atoms: O_2  and  C_3
REMARK    2  A    between atoms: C_3  and  C_5
REMARK    3  A    between atoms: N_10  and  S_11
REMARK    4  A    between atoms: S_11  and  C_14
REMARK    5  A    between atoms: C_17  and  C_20
REMARK    6  A    between atoms: N_22  and  C_23
REMARK    7  A    between atoms: C_23  and  C_24
REMARK                            x       y       z     vdW  Elec       q    Type
REMARK                         _______ _______ _______ _____ _____    ______ ____
ROOT
ATOM      5  C   UNL     1      -1.936  -0.716  25.035  0.00  0.00    +0.184 C 
ATOM      6  C   UNL     1      -2.688  -0.837  25.350  0.00  0.00    +0.076 C 
ATOM      7  C   UNL     1      -3.287  -0.286  25.214  0.00  0.00    +0.076 A 
ATOM      8  C   UNL     1      -3.132   0.387  24.763  0.00  0.00    +0.070 A 
ATOM      9  C   UNL     1      -2.379   0.509  24.447  0.00  0.00    +0.141 C 
ATOM     10  N   UNL     1      -1.781  -0.043  24.583  0.00  0.00    -0.140 NA
ATOM     22  N   UNL     1      -3.825   0.832  24.722  0.00  0.00    -0.307 N 
ATOM     31  C   UNL     1      -4.408   0.434  25.148  0.00  0.00    +0.178 A 
ATOM     32  N   UNL     1      -4.075  -0.256  25.452  0.00  0.00    -0.229 NA
ENDROOT
BRANCH  10  11
ATOM     11  S   UNL     1      -1.029   0.078  24.268  0.00  0.00    +0.064 S 
ATOM     12  O   UNL     1      -0.787   0.425  24.975  0.00  0.00    -0.153 OA
ATOM     13  O   UNL     1      -1.271  -0.269  23.559  0.00  0.00    -0.153 OA
BRANCH  11  14
ATOM     14  C   UNL     1      -0.277   0.199  23.951  0.00  0.00    +0.122 A 
ATOM     15  C   UNL     1       0.196   0.813  24.235  0.00  0.00    +0.021 A 
ATOM     16  C   UNL     1       0.948   0.935  23.919  0.00  0.00    +0.012 A 
ATOM     17  C   UNL     1       1.228   0.443  23.318  0.00  0.00    +0.069 A 
ATOM     18  C   UNL     1       0.755  -0.170  23.033  0.00  0.00    +0.012 A 
ATOM     19  C   UNL     1       0.002  -0.291  23.350  0.00  0.00    +0.021 A 
BRANCH  17  20
ATOM     20  C   UNL     1       1.980   0.565  23.002  0.00  0.00    +0.100 C 
ATOM     21  N   UNL     1       2.732   0.686  22.685  0.00  0.00    -0.191 NA
ENDBRANCH  17  20
ENDBRANCH  11  14
ENDBRANCH  10  11
BRANCH   5   3
ATOM      3  C   UNL     1      -1.338  -1.268  25.170  0.00  0.00    +0.334 C 
ATOM      4  O   UNL     1      -0.775  -1.130  25.757  0.00  0.00    -0.249 OA
BRANCH   3   2
ATOM      1  C   UNL     1      -1.142  -2.681  25.083  0.00  0.00    +0.256 C 
ATOM      2  O   UNL     1      -1.303  -1.958  24.720  0.00  0.00    -0.443 OA
ENDBRANCH   3   2
ENDBRANCH   5   3
BRANCH  22  23
ATOM     23  C   UNL     1      -3.919   1.549  24.325  0.00  0.00    +0.134 C 
BRANCH  23  24
ATOM     24  C   UNL     1      -4.345   2.162  24.675  0.00  0.00    +0.000 A 
ATOM     25  C   UNL     1      -3.946   2.786  25.040  0.00  0.00    -0.002 A 
ATOM     26  C   UNL     1      -4.373   3.399  25.391  0.00  0.00    +0.011 A 
ATOM     27  C   UNL     1      -5.197   3.388  25.377  0.00  0.00    +0.058 A 
ATOM     28 CL   UNL     1      -5.624   4.002  25.727  0.00  0.00    -0.082 Cl
ATOM     29  C   UNL     1      -5.596   2.765  25.013  0.00  0.00    +0.011 A 
ATOM     30  C   UNL     1      -5.170   2.152  24.662  0.00  0.00    -0.002 A 
ENDBRANCH  23  24
ENDBRANCH  22  23
TORSDOF 7
ENDMDL
MODEL 7
REMARK VINA RESULT:      -8.5      2.584      4.743
REMARK  Name = 
REMARK  7 active torsions:
REMARK  status: ('A' for Active; 'I' for Inactive)
REMARK    1  A    between atoms: O_2  and  C_3
REMARK    2  A    between atoms: C_3  and  C_5
REMARK    3  A    between atoms: N_10  and  S_11
REMARK    4  A    between atoms: S_11  and  C_14
REMARK    5  A    between atoms: C_17  and  C_20
REMARK    6  A    between atoms: N_22  and  C_23
REMARK    7  A    between atoms: C_23  and  C_24
REMARK                            x       y       z     vdW  Elec       q    Type
REMARK                         _______ _______ _______ _____ _____    ______ ____
ROOT
ATOM      5  C   UNL     1      -1.122   2.481  25.254  0.00  0.00    +0.184 C 
ATOM      6  C   UNL     1      -1.384   3.263  25.229  0.00  0.00    +0.076 C 
ATOM      7  C   UNL     1      -2.147   3.435  24.968  0.00  0.00    +0.076 A 
ATOM      8  C   UNL     1      -2.649   2.825  24.731  0.00  0.00    +0.070 A 
ATOM      9  C   UNL     1      -2.387   2.042  24.755  0.00  0.00    +0.141 C 
ATOM     10  N   UNL     1      -1.624   1.871  25.017  0.00  0.00    -0.140 NA
ATOM     22  N   UNL     1      -3.367   3.159  24.500  0.00  0.00    -0.307 N 
ATOM     31  C   UNL     1      -3.309   3.976  24.595  0.00  0.00    +0.178 A 
ATOM     32  N   UNL     1      -2.555   4.146  24.884  0.00  0.00    -0.229 NA
ENDROOT
BRANCH  10  11
ATOM     11  S   UNL     1      -1.363   1.089  25.041  0.00  0.00    +0.064 S 
ATOM     12  O   UNL     1      -1.069   1.162  24.275  0.00  0.00    -0.153 OA
ATOM     13  O   UNL     1      -1.658   1.015  25.809  0.00  0.00    -0.153 OA
BRANCH  11  14
ATOM     14  C   UNL     1      -1.103   0.306  25.067  0.00  0.00    +0.122 A 
ATOM     15  C   UNL     1      -1.291  -0.170  25.714  0.00  0.00    +0.021 A 
ATOM     16  C   UNL     1      -1.031  -0.952  25.741  0.00  0.00    +0.012 A 
ATOM     17  C   UNL     1      -0.582  -1.259  25.120  0.00  0.00    +0.069 A 
ATOM     18  C   UNL     1      -0.394  -0.783  24.473  0.00  0.00    +0.012 A 
ATOM     19  C   UNL     1      -0.654  -0.000  24.447  0.00  0.00    +0.021 A 
BRANCH  17  20
ATOM     20  C   UNL     1      -0.322  -2.041  25.147  0.00  0.00    +0.100 C 
ATOM     21  N   UNL     1      -0.063  -2.824  25.175  0.00  0.00    -0.191 NA
ENDBRANCH  17  20
ENDBRANCH  11  14
ENDBRANCH  10  11
BRANCH   5   3
ATOM      3  C   UNL     1      -0.360   2.310  25.515  0.00  0.00    +0.334 C 
ATOM      4  O   UNL     1       0.245   2.181  24.968  0.00  0.00    -0.249 OA
BRANCH   3   2
ATOM      1  C   UNL     1       0.494   2.595  26.626  0.00  0.00    +0.256 C 
ATOM      2  O   UNL     1      -0.199   2.267  26.324  0.00  0.00    -0.443 OA
ENDBRANCH   3   2
ENDBRANCH   5   3
BRANCH  22  23
ATOM     23  C   UNL     1      -4.027   2.748  24.224  0.00  0.00    +0.134 C 
BRANCH  23  24
ATOM     24  C   UNL     1      -4.662   2.599  24.729  0.00  0.00    +0.000 A 
ATOM     25  C   UNL     1      -4.917   1.825  24.854  0.00  0.00    -0.002 A 
ATOM     26  C   UNL     1      -5.552   1.676  25.359  0.00  0.00    +0.011 A 
ATOM     27  C   UNL     1      -5.931   2.302  25.740  0.00  0.00    +0.058 A 
ATOM     28 CL   UNL     1      -6.565   2.153  26.246  0.00  0.00    -0.082 Cl
ATOM     29  C   UNL     1      -5.676   3.076  25.617  0.00  0.00    +0.011 A 
ATOM     30  C   UNL     1      -5.041   3.225  25.111  0.00  0.00    -0.002 A 
ENDBRANCH  23  24
ENDBRANCH  22  23
TORSDOF 7
ENDMDL
MODEL 8
REMARK VINA RESULT:      -8.3      3.050      5.993
REMARK  Name = 
REMARK  7 active torsions:
REMARK  status: ('A' for Active; 'I' for Inactive)
REMARK    1  A    between atoms: O_2  and  C_3
REMARK    2  A    between atoms: C_3  and  C_5
REMARK    3  A    between atoms: N_10  and  S_11
REMARK    4  A    between atoms: S_11  and  C_14
REMARK    5  A    between atoms: C_17  and  C_20
REMARK    6  A    between atoms: N_22  and  C_23
REMARK    7  A    between atoms: C_23  and  C_24
REMARK                            x       y       z     vdW  Elec       q    Type
REMARK                         _______ _______ _______ _____ _____    ______ ____
ROOT
ATOM      5  C   UNL     1      -0.430   0.429  24.605  0.00  0.00    +0.184 C 
ATOM      6  C   UNL     1       0.180   0.958  24.769  0.00  0.00    +0.076 C 
ATOM      7  C   UNL     1       0.017   1.671  25.150  0.00  0.00    +0.076 A 
ATOM      8  C   UNL     1      -0.757   1.855  25.367  0.00  0.00    +0.070 A 
ATOM      9  C   UNL     1      -1.369   1.325  25.203  0.00  0.00    +0.141 C 
ATOM     10  N   UNL     1      -1.205   0.612  24.822  0.00  0.00    -0.140 NA
ATOM     22  N   UNL     1      -0.751   2.594  25.733  0.00  0.00    -0.307 N 
ATOM     31  C   UNL     1       0.027   2.867  25.743  0.00  0.00    +0.178 A 
ATOM     32  N   UNL     1       0.501   2.297  25.382  0.00  0.00    -0.229 NA
ENDROOT
BRANCH  10  11
ATOM     11  S   UNL     1      -1.816   0.083  24.658  0.00  0.00    +0.064 S 
ATOM     12  O   UNL     1      -1.677  -0.300  25.375  0.00  0.00    -0.153 OA
ATOM     13  O   UNL     1      -1.955   0.467  23.941  0.00  0.00    -0.153 OA
BRANCH  11  14
ATOM     14  C   UNL     1      -2.427  -0.446  24.493  0.00  0.00    +0.122 A 
ATOM     15  C   UNL     1      -2.970  -0.275  23.895  0.00  0.00    +0.021 A 
ATOM     16  C   UNL     1      -3.581  -0.803  23.730  0.00  0.00    +0.012 A 
ATOM     17  C   UNL     1      -3.651  -1.502  24.163  0.00  0.00    +0.069 A 
ATOM     18  C   UNL     1      -3.109  -1.673  24.761  0.00  0.00    +0.012 A 
ATOM     19  C   UNL     1      -2.497  -1.144  24.926  0.00  0.00    +0.021 A 
BRANCH  17  20
ATOM     20  C   UNL     1      -4.263  -2.030  23.997  0.00  0.00    +0.100 C 
ATOM     21  N   UNL     1      -4.875  -2.558  23.829  0.00  0.00    -0.191 NA
ENDBRANCH  17  20
ENDBRANCH  11  14
ENDBRANCH  10  11
BRANCH   5   3
ATOM      3  C   UNL     1      -0.267  -0.284  24.224  0.00  0.00    +0.334 C 
ATOM      4  O   UNL     1      -0.217  -0.983  24.661  0.00  0.00    -0.249 OA
BRANCH   3   2
ATOM      1  C   UNL     1       0.531  -0.634  23.092  0.00  0.00    +0.256 C 
ATOM      2  O   UNL     1      -0.153  -0.300  23.407  0.00  0.00    -0.443 OA
ENDBRANCH   3   2
ENDBRANCH   5   3
BRANCH  22  23
ATOM     23  C   UNL     1      -1.408   2.990  26.037  0.00  0.00    +0.134 C 
BRANCH  23  24
ATOM     24  C   UNL     1      -1.602   3.742  25.758  0.00  0.00    +0.000 A 
ATOM     25  C   UNL     1      -2.387   3.995  25.765  0.00  0.00    -0.002 A 
ATOM     26  C   UNL     1      -2.581   4.747  25.486  0.00  0.00    +0.011 A 
ATOM     27  C   UNL     1      -1.989   5.245  25.200  0.00  0.00    +0.058 A 
ATOM     28 CL   UNL     1      -2.182   5.997  24.921  0.00  0.00    -0.082 Cl
ATOM     29  C   UNL     1      -1.204   4.993  25.193  0.00  0.00    +0.011 A 
ATOM     30  C   UNL     1      -1.011   4.241  25.472  0.00  0.00    -0.002 A 
ENDBRANCH  23  24
ENDBRANCH  22  23
TORSDOF 7
ENDMDL
