MODEL 1
REMARK VINA RESULT:     -15.1      0.000      0.000
REMARK  Name = 
REMARK  6 active torsions:
REMARK  status: ('A' for Active; 'I' for Inactive)
REMARK    1  A    between atoms: C_6  and  S_8
REMARK    2  A    between atoms: S_8  and  N_11
REMARK    3  A    between atoms: N_11  and  C_12
REMARK    4  A    between atoms: C_22  and  C_24
REMARK    5  A    between atoms: C_24  and  O_25
REMARK    6  A    between atoms: O_25  and  C_26
REMARK                            x       y       z     vdW  Elec       q    Type
REMARK                         _______ _______ _______ _____ _____    ______ ____
ROOT
ATOM     12  C   UNL     1      -3.646   0.963  24.855  0.00  0.00    +0.147 A 
ATOM     13  C   UNL     1      -4.416   0.703  24.995  0.00  0.00    +0.024 A 
ATOM     14  C   UNL     1      -5.010   1.247  25.173  0.00  0.00    +0.014 A 
ATOM     15  C   UNL     1      -4.834   2.052  25.212  0.00  0.00    +0.041 A 
ATOM     16  C   UNL     1      -5.233   2.863  25.374  0.00  0.00    +0.058 C 
ATOM     17  C   UNL     1      -5.854   3.148  25.533  0.00  0.00    +0.011 C 
ATOM     18  C   UNL     1      -5.093   3.402  25.395  0.00  0.00    +0.043 C 
ATOM     19  C   UNL     1      -4.248   3.897  25.262  0.00  0.00    +0.095 C 
ATOM     20  N   UNL     1      -3.737   3.259  25.092  0.00  0.00    -0.276 N 
ATOM     21  C   UNL     1      -4.425   3.356  25.248  0.00  0.00    +0.099 C 
ATOM     22  C   UNL     1      -3.038   2.860  24.906  0.00  0.00    +0.270 C 
ATOM     23  O   UNL     1      -2.339   3.283  24.797  0.00  0.00    -0.271 OA
ATOM     32  C   UNL     1      -4.666   2.559  25.224  0.00  0.00    +0.110 C 
ATOM     33  N   UNL     1      -4.063   2.312  25.072  0.00  0.00    -0.298 N 
ATOM     34  C   UNL     1      -3.469   1.768  24.894  0.00  0.00    +0.277 A 
ATOM     35  O   UNL     1      -2.705   1.521  24.708  0.00  0.00    -0.266 OA
ENDROOT
BRANCH  12  11
ATOM     11  N   UNL     1      -3.053   0.418  24.677  0.00  0.00    -0.092 NA
BRANCH  11   8
ATOM      8  S   UNL     1      -3.234  -0.384  24.619  0.00  0.00    +0.093 S 
ATOM      9  O   UNL     1      -3.118  -0.469  25.431  0.00  0.00    -0.148 OA
ATOM     10  O   UNL     1      -3.349  -0.299  23.807  0.00  0.00    -0.148 OA
BRANCH   8   6
ATOM      1  F   UNL     1      -4.704  -2.509  23.398  0.00  0.00    -0.204 F 
ATOM      2  C   UNL     1      -4.149  -2.250  23.951  0.00  0.00    +0.141 A 
ATOM      3  C   UNL     1      -3.775  -2.793  24.446  0.00  0.00    +0.030 A 
ATOM      4  C   UNL     1      -3.220  -2.534  24.998  0.00  0.00    +0.004 A 
ATOM      5  C   UNL     1      -3.039  -1.731  25.056  0.00  0.00    +0.020 A 
ATOM      6  C   UNL     1      -3.414  -1.188  24.561  0.00  0.00    +0.129 A 
ATOM      7  C   UNL     1      -3.969  -1.447  24.008  0.00  0.00    +0.050 A 
ENDBRANCH   8   6
ENDBRANCH  11   8
ENDBRANCH  12  11
BRANCH  22  24
ATOM     24  C   UNL     1      -3.040   2.038  24.828  0.00  0.00    +0.290 C 
BRANCH  24  25
ATOM     25  O   UNL     1      -2.357   1.647  24.583  0.00  0.00    -0.466 OA
BRANCH  25  26
ATOM     26  C   UNL     1      -1.615   1.948  24.778  0.00  0.00    +0.139 A 
ATOM     27  C   UNL     1      -1.148   2.304  24.198  0.00  0.00    +0.037 A 
ATOM     28  C   UNL     1      -0.405   2.605  24.392  0.00  0.00    +0.003 A 
ATOM     29  C   UNL     1      -0.129   2.551  25.168  0.00  0.00    +0.000 A 
ATOM     30  C   UNL     1      -0.596   2.195  25.749  0.00  0.00    +0.003 A 
ATOM     31  C   UNL     1      -1.338   1.894  25.553  0.00  0.00    +0.037 A 
ENDBRANCH  25  26
ENDBRANCH  24  25
ENDBRANCH  22  24
TORSDOF 6
ENDMDL
MODEL 2
REMARK VINA RESULT:     -14.2      0.972      2.881
REMARK  Name = 
REMARK  6 active torsions:
REMARK  status: ('A' for Active; 'I' for Inactive)
REMARK    1  A    between atoms: C_6  and  S_8
REMARK    2  A    between atoms: S_8  and  N_11
REMARK    3  A    between atoms: N_11  and  C_12
REMARK    4  A    between atoms: C_22  and  C_24
REMARK    5  A    between atoms: C_24  and  O_25
REMARK    6  A    between atoms: O_25  and  C_26
REMARK                            x       y       z     vdW  Elec       q    Type
REMARK                         _______ _______ _______ _____ _____    ______ ____
ROOT
ATOM     12  C   UNL     1      -2.652   0.934  24.963  0.00  0.00    +0.147 A 
ATOM     13  C   UNL     1      -2.027   0.404  25.060  0.00  0.00    +0.024 A 
ATOM     14  C   UNL     1      -1.275   0.683  25.250  0.00  0.00    +0.014 A 
ATOM     15  C   UNL     1      -1.148   1.493  25.345  0.00  0.00    +0.041 A 
ATOM     16  C   UNL     1      -0.479   2.092  25.542  0.00  0.00    +0.058 C 
ATOM     17  C   UNL     1       0.205   2.122  25.697  0.00  0.00    +0.011 C 
ATOM     18  C   UNL     1      -0.415   2.643  25.601  0.00  0.00    +0.043 C 
ATOM     19  C   UNL     1      -1.024   3.417  25.529  0.00  0.00    +0.095 C 
ATOM     20  N   UNL     1      -1.734   3.019  25.338  0.00  0.00    -0.276 N 
ATOM     21  C   UNL     1      -1.055   2.850  25.476  0.00  0.00    +0.099 C 
ATOM     22  C   UNL     1      -2.531   2.914  25.152  0.00  0.00    +0.270 C 
ATOM     23  O   UNL     1      -3.030   3.568  25.093  0.00  0.00    -0.271 OA
ATOM     32  C   UNL     1      -1.119   2.024  25.394  0.00  0.00    +0.110 C 
ATOM     33  N   UNL     1      -1.773   2.023  25.248  0.00  0.00    -0.298 N 
ATOM     34  C   UNL     1      -2.525   1.743  25.058  0.00  0.00    +0.277 A 
ATOM     35  O   UNL     1      -3.329   1.802  24.883  0.00  0.00    -0.266 OA
ENDROOT
BRANCH  12  11
ATOM     11  N   UNL     1      -3.404   0.654  24.773  0.00  0.00    -0.092 NA
BRANCH  11   8
ATOM      8  S   UNL     1      -3.528  -0.154  24.662  0.00  0.00    +0.093 S 
ATOM      9  O   UNL     1      -3.332  -0.074  23.864  0.00  0.00    -0.148 OA
ATOM     10  O   UNL     1      -3.723  -0.234  25.459  0.00  0.00    -0.148 OA
BRANCH   8   6
ATOM      1  F   UNL     1      -3.328  -2.844  25.607  0.00  0.00    -0.204 F 
ATOM      2  C   UNL     1      -3.552  -2.307  25.022  0.00  0.00    +0.141 A 
ATOM      3  C   UNL     1      -3.899  -2.578  24.324  0.00  0.00    +0.030 A 
ATOM      4  C   UNL     1      -4.122  -2.041  23.739  0.00  0.00    +0.004 A 
ATOM      5  C   UNL     1      -3.998  -1.233  23.851  0.00  0.00    +0.020 A 
ATOM      6  C   UNL     1      -3.651  -0.962  24.549  0.00  0.00    +0.129 A 
ATOM      7  C   UNL     1      -3.428  -1.499  25.135  0.00  0.00    +0.050 A 
ENDBRANCH   8   6
ENDBRANCH  11   8
ENDBRANCH  12  11
BRANCH  22  24
ATOM     24  C   UNL     1      -2.828   2.155  25.024  0.00  0.00    +0.290 C 
BRANCH  24  25
ATOM     25  O   UNL     1      -3.600   2.055  24.753  0.00  0.00    -0.466 OA
BRANCH  25  26
ATOM     26  C   UNL     1      -4.186   2.595  24.965  0.00  0.00    +0.139 A 
ATOM     27  C   UNL     1      -4.427   3.173  24.428  0.00  0.00    +0.037 A 
ATOM     28  C   UNL     1      -5.014   3.715  24.640  0.00  0.00    +0.003 A 
ATOM     29  C   UNL     1      -5.358   3.676  25.388  0.00  0.00    +0.000 A 
ATOM     30  C   UNL     1      -5.117   3.098  25.925  0.00  0.00    +0.003 A 
ATOM     31  C   UNL     1      -4.531   2.558  25.713  0.00  0.00    +0.037 A 
ENDBRANCH  25  26
ENDBRANCH  24  25
ENDBRANCH  22  24
TORSDOF 6
ENDMDL
MODEL 3
REMARK VINA RESULT:     -13.9      1.601      3.650
REMARK  Name = 
REMARK  6 active torsions:
REMARK  status: ('A' for Active; 'I' for Inactive)
REMARK    1  A    between atoms: C_6  and  S_8
REMARK    2  A    between atoms: S_8  and  N_11
REMARK    3  A    between atoms: N_11  and  C_12
REMARK    4  A    between atoms: C_22  and  C_24
REMARK    5  A    between atoms: C_24  and  O_25
REMARK    6  A    between atoms: O_25  and  C_26
REMARK                            x       y       z     vdW  Elec       q    Type
REMARK                         _______ _______ _______ _____ _____    ______ ____
ROOT
ATOM     12  C   UNL     1      -3.047   1.654  24.871  0.00  0.00    +0.147 A 
ATOM     13  C   UNL     1      -2.938   2.449  25.061  0.00  0.00    +0.024 A 
ATOM     14  C   UNL     1      -3.589   2.927  25.232  0.00  0.00    +0.014 A 
ATOM     15  C   UNL     1      -4.349   2.608  25.213  0.00  0.00    +0.041 A 
ATOM     16  C   UNL     1      -5.227   2.848  25.344  0.00  0.00    +0.058 C 
ATOM     17  C   UNL     1      -5.627   3.399  25.513  0.00  0.00    +0.011 C 
ATOM     18  C   UNL     1      -5.732   2.613  25.325  0.00  0.00    +0.043 C 
ATOM     19  C   UNL     1      -6.059   1.702  25.124  0.00  0.00    +0.095 C 
ATOM     20  N   UNL     1      -5.331   1.323  24.971  0.00  0.00    -0.276 N 
ATOM     21  C   UNL     1      -5.558   1.973  25.152  0.00  0.00    +0.099 C 
ATOM     22  C   UNL     1      -4.804   0.718  24.778  0.00  0.00    +0.270 C 
ATOM     23  O   UNL     1      -5.088  -0.039  24.612  0.00  0.00    -0.271 OA
ATOM     32  C   UNL     1      -4.818   2.353  25.187  0.00  0.00    +0.110 C 
ATOM     33  N   UNL     1      -4.459   1.813  25.024  0.00  0.00    -0.298 N 
ATOM     34  C   UNL     1      -3.808   1.336  24.852  0.00  0.00    +0.277 A 
ATOM     35  O   UNL     1      -3.418   0.639  24.647  0.00  0.00    -0.266 OA
ENDROOT
BRANCH  12  11
ATOM     11  N   UNL     1      -2.396   1.178  24.700  0.00  0.00    -0.092 NA
BRANCH  11   8
ATOM      8  S   UNL     1      -1.633   1.480  24.775  0.00  0.00    +0.093 S 
ATOM      9  O   UNL     1      -1.597   1.197  25.549  0.00  0.00    -0.148 OA
ATOM     10  O   UNL     1      -1.668   1.763  24.001  0.00  0.00    -0.148 OA
BRANCH   8   6
ATOM      1  F   UNL     1       0.414   2.661  26.383  0.00  0.00    -0.204 F 
ATOM      2  C   UNL     1       0.155   2.373  25.655  0.00  0.00    +0.141 A 
ATOM      3  C   UNL     1       0.659   2.386  25.002  0.00  0.00    +0.030 A 
ATOM      4  C   UNL     1       0.400   2.098  24.274  0.00  0.00    +0.004 A 
ATOM      5  C   UNL     1      -0.363   1.796  24.199  0.00  0.00    +0.020 A 
ATOM      6  C   UNL     1      -0.868   1.783  24.852  0.00  0.00    +0.129 A 
ATOM      7  C   UNL     1      -0.609   2.071  25.580  0.00  0.00    +0.050 A 
ENDBRANCH   8   6
ENDBRANCH  11   8
ENDBRANCH  12  11
BRANCH  22  24
ATOM     24  C   UNL     1      -3.993   0.869  24.751  0.00  0.00    +0.290 C 
BRANCH  24  25
ATOM     25  O   UNL     1      -3.482   0.320  24.409  0.00  0.00    -0.466 OA
BRANCH  25  26
ATOM     26  C   UNL     1      -3.641  -0.487  24.472  0.00  0.00    +0.139 A 
ATOM     27  C   UNL     1      -3.915  -0.906  23.815  0.00  0.00    +0.037 A 
ATOM     28  C   UNL     1      -4.074  -1.713  23.877  0.00  0.00    +0.003 A 
ATOM     29  C   UNL     1      -3.958  -2.101  24.596  0.00  0.00    +0.000 A 
ATOM     30  C   UNL     1      -3.684  -1.683  25.253  0.00  0.00    +0.003 A 
ATOM     31  C   UNL     1      -3.526  -0.876  25.190  0.00  0.00    +0.037 A 
ENDBRANCH  25  26
ENDBRANCH  24  25
ENDBRANCH  22  24
TORSDOF 6
ENDMDL
MODEL 4
REMARK VINA RESULT:     -13.7      1.441      3.798
REMARK  Name = 
REMARK  6 active torsions:
REMARK  status: ('A' for Active; 'I' for Inactive)
REMARK    1  A    between atoms: C_6  and  S_8
REMARK    2  A    between atoms: S_8  and  N_11
REMARK    3  A    between atoms: N_11  and  C_12
REMARK    4  A    between atoms: C_22  and  C_24
REMARK    5  A    between atoms: C_24  and  O_25
REMARK    6  A    between atoms: O_25  and  C_26
REMARK                            x       y       z     vdW  Elec       q    Type
REMARK                         _______ _______ _______ _____ _____    ______ ____
ROOT
ATOM     12  C   UNL     1      -3.342   0.299  24.689  0.00  0.00    +0.147 A 
ATOM     13  C   UNL     1      -4.062  -0.098  24.754  0.00  0.00    +0.024 A 
ATOM     14  C   UNL     1      -4.080  -0.923  24.758  0.00  0.00    +0.014 A 
ATOM     15  C   UNL     1      -3.377  -1.351  24.698  0.00  0.00    +0.041 A 
ATOM     16  C   UNL     1      -3.068  -2.216  24.674  0.00  0.00    +0.058 C 
ATOM     17  C   UNL     1      -3.291  -2.881  24.696  0.00  0.00    +0.011 C 
ATOM     18  C   UNL     1      -2.582  -2.486  24.632  0.00  0.00    +0.043 C 
ATOM     19  C   UNL     1      -1.641  -2.196  24.548  0.00  0.00    +0.095 C 
ATOM     20  N   UNL     1      -1.749  -1.368  24.555  0.00  0.00    -0.276 N 
ATOM     21  C   UNL     1      -2.154  -1.952  24.593  0.00  0.00    +0.099 C 
ATOM     22  C   UNL     1      -1.553  -0.566  24.534  0.00  0.00    +0.270 C 
ATOM     23  O   UNL     1      -0.765  -0.335  24.464  0.00  0.00    -0.271 OA
ATOM     32  C   UNL     1      -2.896  -1.579  24.656  0.00  0.00    +0.110 C 
ATOM     33  N   UNL     1      -2.657  -0.954  24.633  0.00  0.00    -0.298 N 
ATOM     34  C   UNL     1      -2.639  -0.129  24.628  0.00  0.00    +0.277 A 
ATOM     35  O   UNL     1      -2.290   0.617  24.595  0.00  0.00    -0.266 OA
ENDROOT
BRANCH  12  11
ATOM     11  N   UNL     1      -3.325   1.123  24.684  0.00  0.00    -0.092 NA
BRANCH  11   8
ATOM      8  S   UNL     1      -4.012   1.551  24.844  0.00  0.00    +0.093 S 
ATOM      9  O   UNL     1      -3.884   1.453  25.653  0.00  0.00    -0.148 OA
ATOM     10  O   UNL     1      -4.140   1.648  24.035  0.00  0.00    -0.148 OA
BRANCH   8   6
ATOM      1  F   UNL     1      -6.861   1.767  24.800  0.00  0.00    -0.204 F 
ATOM      2  C   UNL     1      -6.124   2.087  24.983  0.00  0.00    +0.141 A 
ATOM      3  C   UNL     1      -6.072   2.836  25.326  0.00  0.00    +0.030 A 
ATOM      4  C   UNL     1      -5.334   3.156  25.509  0.00  0.00    +0.004 A 
ATOM      5  C   UNL     1      -4.648   2.728  25.348  0.00  0.00    +0.020 A 
ATOM      6  C   UNL     1      -4.699   1.979  25.005  0.00  0.00    +0.129 A 
ATOM      7  C   UNL     1      -5.437   1.659  24.822  0.00  0.00    +0.050 A 
ENDBRANCH   8   6
ENDBRANCH  11   8
ENDBRANCH  12  11
BRANCH  22  24
ATOM     24  C   UNL     1      -2.147   0.005  24.584  0.00  0.00    +0.290 C 
BRANCH  24  25
ATOM     25  O   UNL     1      -1.983   0.789  24.389  0.00  0.00    -0.466 OA
BRANCH  25  26
ATOM     26  C   UNL     1      -1.251   1.117  24.580  0.00  0.00    +0.139 A 
ATOM     27  C   UNL     1      -0.711   1.297  23.981  0.00  0.00    +0.037 A 
ATOM     28  C   UNL     1       0.022   1.626  24.170  0.00  0.00    +0.003 A 
ATOM     29  C   UNL     1       0.215   1.774  24.958  0.00  0.00    +0.000 A 
ATOM     30  C   UNL     1      -0.324   1.595  25.557  0.00  0.00    +0.003 A 
ATOM     31  C   UNL     1      -1.056   1.266  25.367  0.00  0.00    +0.037 A 
ENDBRANCH  25  26
ENDBRANCH  24  25
ENDBRANCH  22  24
TORSDOF 6
ENDMDL
