MODEL 1
REMARK VINA RESULT:      -7.4      0.000      0.000
REMARK  Name = 
REMARK  3 active torsions:
REMARK  status: ('A' for Active; 'I' for Inactive)
REMARK    1  A    between atoms: C_4  and  C_6
REMARK    2  A    between atoms: C_6  and  O_7
REMARK    3  A    between atoms: O_7  and  C_8
REMARK                            x       y       z     vdW  Elec       q    Type
REMARK                         _______ _______ _______ _____ _____    ______ ____
ROOT
ATOM      8  C   UNL     1      -4.552   1.250  24.770  0.00  0.00    +0.165 C 
ATOM      9  C   UNL     1      -5.245   1.319  25.213  0.00  0.00    +0.173 C 
ATOM     10  O   UNL     1      -5.548   1.987  25.592  0.00  0.00    -0.349 OA
ATOM     11  C   UNL     1      -5.234   2.749  25.621  0.00  0.00    +0.164 C 
ATOM     12  C   UNL     1      -4.540   3.033  25.279  0.00  0.00    +0.125 C 
ATOM     13  N   UNL     1      -3.987   2.624  24.823  0.00  0.00    -0.274 N 
ATOM     14  C   UNL     1      -3.992   1.831  24.597  0.00  0.00    +0.126 C 
ATOM     15  C   UNL     1      -3.343   3.067  24.558  0.00  0.00    +0.226 C 
ATOM     16  C   UNL     1      -3.285   3.866  24.754  0.00  0.00    +0.095 C 
ATOM     17  O   UNL     1      -2.758   2.711  24.098  0.00  0.00    -0.275 OA
ENDROOT
BRANCH   8   7
ATOM      7  O   UNL     1      -4.399   0.501  24.460  0.00  0.00    -0.343 OA
BRANCH   7   6
ATOM      6  C   UNL     1      -4.151  -0.109  24.956  0.00  0.00    +0.227 C 
BRANCH   6   4
ATOM      1  C   UNL     1      -3.496  -2.185  24.800  0.00  0.00    +0.115 C 
ATOM      2  N   UNL     1      -3.634  -1.432  25.108  0.00  0.00    -0.274 N 
ATOM      3  C   UNL     1      -3.393  -1.250  25.875  0.00  0.00    +0.115 C 
ATOM      4  C   UNL     1      -4.014  -0.861  24.649  0.00  0.00    +0.256 C 
ATOM      5  O   UNL     1      -4.255  -1.043  23.881  0.00  0.00    -0.272 OA
ENDBRANCH   6   4
ENDBRANCH   7   6
ENDBRANCH   8   7
TORSDOF 3
ENDMDL
MODEL 2
REMARK VINA RESULT:      -7.4      0.611      1.643
REMARK  Name = 
REMARK  3 active torsions:
REMARK  status: ('A' for Active; 'I' for Inactive)
REMARK    1  A    between atoms: C_4  and  C_6
REMARK    2  A    between atoms: C_6  and  O_7
REMARK    3  A    between atoms: O_7  and  C_8
REMARK                            x       y       z     vdW  Elec       q    Type
REMARK                         _______ _______ _______ _____ _____    ______ ____
ROOT
ATOM      8  C   UNL     1      -4.125   1.005  24.315  0.00  0.00    +0.165 C 
ATOM      9  C   UNL     1      -3.448   1.311  23.956  0.00  0.00    +0.173 C 
ATOM     10  O   UNL     1      -3.181   2.091  23.943  0.00  0.00    -0.349 OA
ATOM     11  C   UNL     1      -3.524   2.759  24.285  0.00  0.00    +0.164 C 
ATOM     12  C   UNL     1      -4.220   2.810  24.725  0.00  0.00    +0.125 C 
ATOM     13  N   UNL     1      -4.743   2.208  24.932  0.00  0.00    -0.274 N 
ATOM     14  C   UNL     1      -4.701   1.405  24.750  0.00  0.00    +0.126 C 
ATOM     15  C   UNL     1      -5.396   2.439  25.381  0.00  0.00    +0.226 C 
ATOM     16  C   UNL     1      -5.491   3.230  25.594  0.00  0.00    +0.095 C 
ATOM     17  O   UNL     1      -5.954   1.879  25.617  0.00  0.00    -0.275 OA
ENDROOT
BRANCH   8   7
ATOM      7  O   UNL     1      -4.239   0.193  24.228  0.00  0.00    -0.343 OA
BRANCH   7   6
ATOM      6  C   UNL     1      -3.771  -0.338  24.650  0.00  0.00    +0.227 C 
BRANCH   6   4
ATOM      1  C   UNL     1      -3.545  -2.495  24.899  0.00  0.00    +0.115 C 
ATOM      2  N   UNL     1      -3.460  -1.683  25.019  0.00  0.00    -0.274 N 
ATOM      3  C   UNL     1      -2.980  -1.405  25.630  0.00  0.00    +0.115 C 
ATOM      4  C   UNL     1      -3.855  -1.149  24.530  0.00  0.00    +0.256 C 
ATOM      5  O   UNL     1      -4.335  -1.428  23.919  0.00  0.00    -0.272 OA
ENDBRANCH   6   4
ENDBRANCH   7   6
ENDBRANCH   8   7
TORSDOF 3
ENDMDL
MODEL 3
REMARK VINA RESULT:      -7.0      2.251      3.477
REMARK  Name = 
REMARK  3 active torsions:
REMARK  status: ('A' for Active; 'I' for Inactive)
REMARK    1  A    between atoms: C_4  and  C_6
REMARK    2  A    between atoms: C_6  and  O_7
REMARK    3  A    between atoms: O_7  and  C_8
REMARK                            x       y       z     vdW  Elec       q    Type
REMARK                         _______ _______ _______ _____ _____    ______ ____
ROOT
ATOM      8  C   UNL     1      -2.607   3.013  24.903  0.00  0.00    +0.165 C 
ATOM      9  C   UNL     1      -2.673   3.828  24.786  0.00  0.00    +0.173 C 
ATOM     10  O   UNL     1      -2.117   4.416  24.944  0.00  0.00    -0.349 OA
ATOM     11  C   UNL     1      -1.358   4.336  25.258  0.00  0.00    +0.164 C 
ATOM     12  C   UNL     1      -0.968   3.648  25.491  0.00  0.00    +0.125 C 
ATOM     13  N   UNL     1      -1.240   2.870  25.468  0.00  0.00    -0.274 N 
ATOM     14  C   UNL     1      -1.969   2.588  25.207  0.00  0.00    +0.126 C 
ATOM     15  C   UNL     1      -0.713   2.298  25.744  0.00  0.00    +0.226 C 
ATOM     16  C   UNL     1       0.032   2.522  26.018  0.00  0.00    +0.095 C 
ATOM     17  O   UNL     1      -0.931   1.502  25.745  0.00  0.00    -0.275 OA
ENDROOT
BRANCH   8   7
ATOM      7  O   UNL     1      -3.267   2.567  24.687  0.00  0.00    -0.343 OA
BRANCH   7   6
ATOM      6  C   UNL     1      -3.994   2.702  25.052  0.00  0.00    +0.227 C 
BRANCH   6   4
ATOM      1  C   UNL     1      -6.006   1.858  25.084  0.00  0.00    +0.115 C 
ATOM      2  N   UNL     1      -5.363   2.345  25.253  0.00  0.00    -0.274 N 
ATOM      3  C   UNL     1      -5.445   2.964  25.792  0.00  0.00    +0.115 C 
ATOM      4  C   UNL     1      -4.637   2.215  24.883  0.00  0.00    +0.256 C 
ATOM      5  O   UNL     1      -4.555   1.596  24.343  0.00  0.00    -0.272 OA
ENDBRANCH   6   4
ENDBRANCH   7   6
ENDBRANCH   8   7
TORSDOF 3
ENDMDL
MODEL 4
REMARK VINA RESULT:      -7.0      1.348      4.256
REMARK  Name = 
REMARK  3 active torsions:
REMARK  status: ('A' for Active; 'I' for Inactive)
REMARK    1  A    between atoms: C_4  and  C_6
REMARK    2  A    between atoms: C_6  and  O_7
REMARK    3  A    between atoms: O_7  and  C_8
REMARK                            x       y       z     vdW  Elec       q    Type
REMARK                         _______ _______ _______ _____ _____    ______ ____
ROOT
ATOM      8  C   UNL     1      -2.942  -0.116  24.941  0.00  0.00    +0.165 C 
ATOM      9  C   UNL     1      -2.160  -0.149  25.202  0.00  0.00    +0.173 C 
ATOM     10  O   UNL     1      -1.656  -0.801  25.234  0.00  0.00    -0.349 OA
ATOM     11  C   UNL     1      -1.808  -1.581  25.012  0.00  0.00    +0.164 C 
ATOM     12  C   UNL     1      -2.503  -1.901  24.704  0.00  0.00    +0.125 C 
ATOM     13  N   UNL     1      -3.217  -1.521  24.542  0.00  0.00    -0.274 N 
ATOM     14  C   UNL     1      -3.412  -0.727  24.647  0.00  0.00    +0.126 C 
ATOM     15  C   UNL     1      -3.815  -1.998  24.233  0.00  0.00    +0.226 C 
ATOM     16  C   UNL     1      -3.676  -2.802  24.106  0.00  0.00    +0.095 C 
ATOM     17  O   UNL     1      -4.550  -1.673  24.051  0.00  0.00    -0.275 OA
ENDROOT
BRANCH   8   7
ATOM      7  O   UNL     1      -3.300   0.626  24.979  0.00  0.00    -0.343 OA
BRANCH   7   6
ATOM      6  C   UNL     1      -3.146   1.190  24.398  0.00  0.00    +0.227 C 
BRANCH   6   4
ATOM      1  C   UNL     1      -3.802   3.192  23.830  0.00  0.00    +0.115 C 
ATOM      2  N   UNL     1      -3.426   2.459  23.804  0.00  0.00    -0.274 N 
ATOM      3  C   UNL     1      -2.953   2.261  23.158  0.00  0.00    +0.115 C 
ATOM      4  C   UNL     1      -3.522   1.923  24.424  0.00  0.00    +0.256 C 
ATOM      5  O   UNL     1      -3.995   2.121  25.070  0.00  0.00    -0.272 OA
ENDBRANCH   6   4
ENDBRANCH   7   6
ENDBRANCH   8   7
TORSDOF 3
ENDMDL
MODEL 5
REMARK VINA RESULT:      -6.9      2.775      4.622
REMARK  Name = 
REMARK  3 active torsions:
REMARK  status: ('A' for Active; 'I' for Inactive)
REMARK    1  A    between atoms: C_4  and  C_6
REMARK    2  A    between atoms: C_6  and  O_7
REMARK    3  A    between atoms: O_7  and  C_8
REMARK                            x       y       z     vdW  Elec       q    Type
REMARK                         _______ _______ _______ _____ _____    ______ ____
ROOT
ATOM      8  C   UNL     1      -1.819  -0.776  25.050  0.00  0.00    +0.165 C 
ATOM      9  C   UNL     1      -1.278  -1.399  25.080  0.00  0.00    +0.173 C 
ATOM     10  O   UNL     1      -1.384  -2.183  24.844  0.00  0.00    -0.349 OA
ATOM     11  C   UNL     1      -2.055  -2.537  24.520  0.00  0.00    +0.164 C 
ATOM     12  C   UNL     1      -2.786  -2.195  24.352  0.00  0.00    +0.125 C 
ATOM     13  N   UNL     1      -3.028  -1.414  24.466  0.00  0.00    -0.274 N 
ATOM     14  C   UNL     1      -2.597  -0.784  24.777  0.00  0.00    +0.126 C 
ATOM     15  C   UNL     1      -3.802  -1.242  24.240  0.00  0.00    +0.226 C 
ATOM     16  C   UNL     1      -4.280  -1.835  23.923  0.00  0.00    +0.095 C 
ATOM     17  O   UNL     1      -4.098  -0.478  24.332  0.00  0.00    -0.275 OA
ENDROOT
BRANCH   8   7
ATOM      7  O   UNL     1      -1.543  -0.051  25.331  0.00  0.00    -0.343 OA
BRANCH   7   6
ATOM      6  C   UNL     1      -0.953   0.353  24.922  0.00  0.00    +0.227 C 
BRANCH   6   4
ATOM      1  C   UNL     1       0.112   2.256  25.018  0.00  0.00    +0.115 C 
ATOM      2  N   UNL     1      -0.150   1.523  24.747  0.00  0.00    -0.274 N 
ATOM      3  C   UNL     1       0.126   1.226  24.029  0.00  0.00    +0.115 C 
ATOM      4  C   UNL     1      -0.690   1.086  25.193  0.00  0.00    +0.256 C 
ATOM      5  O   UNL     1      -0.967   1.383  25.911  0.00  0.00    -0.272 OA
ENDBRANCH   6   4
ENDBRANCH   7   6
ENDBRANCH   8   7
TORSDOF 3
ENDMDL
MODEL 6
REMARK VINA RESULT:      -6.9      2.043      2.873
REMARK  Name = 
REMARK  3 active torsions:
REMARK  status: ('A' for Active; 'I' for Inactive)
REMARK    1  A    between atoms: C_4  and  C_6
REMARK    2  A    between atoms: C_6  and  O_7
REMARK    3  A    between atoms: O_7  and  C_8
REMARK                            x       y       z     vdW  Elec       q    Type
REMARK                         _______ _______ _______ _____ _____    ______ ____
ROOT
ATOM      8  C   UNL     1      -3.268   2.556  24.531  0.00  0.00    +0.165 C 
ATOM      9  C   UNL     1      -3.111   3.337  24.749  0.00  0.00    +0.173 C 
ATOM     10  O   UNL     1      -3.592   3.862  25.165  0.00  0.00    -0.349 OA
ATOM     11  C   UNL     1      -4.350   3.736  25.467  0.00  0.00    +0.164 C 
ATOM     12  C   UNL     1      -4.813   3.055  25.427  0.00  0.00    +0.125 C 
ATOM     13  N   UNL     1      -4.633   2.331  25.075  0.00  0.00    -0.274 N 
ATOM     14  C   UNL     1      -3.946   2.109  24.677  0.00  0.00    +0.126 C 
ATOM     15  C   UNL     1      -5.218   1.751  25.129  0.00  0.00    +0.226 C 
ATOM     16  C   UNL     1      -5.927   1.916  25.516  0.00  0.00    +0.095 C 
ATOM     17  O   UNL     1      -5.093   1.007  24.795  0.00  0.00    -0.275 OA
ENDROOT
BRANCH   8   7
ATOM      7  O   UNL     1      -2.668   2.174  24.114  0.00  0.00    -0.343 OA
BRANCH   7   6
ATOM      6  C   UNL     1      -1.984   1.930  24.504  0.00  0.00    +0.227 C 
BRANCH   6   4
ATOM      1  C   UNL     1      -0.168   0.794  24.089  0.00  0.00    +0.115 C 
ATOM      2  N   UNL     1      -0.751   1.208  24.498  0.00  0.00    -0.274 N 
ATOM      3  C   UNL     1      -0.685   1.314  25.314  0.00  0.00    +0.115 C 
ATOM      4  C   UNL     1      -1.401   1.516  24.094  0.00  0.00    +0.256 C 
ATOM      5  O   UNL     1      -1.466   1.410  23.278  0.00  0.00    -0.272 OA
ENDBRANCH   6   4
ENDBRANCH   7   6
ENDBRANCH   8   7
TORSDOF 3
ENDMDL
MODEL 7
REMARK VINA RESULT:      -6.9      1.215      3.872
REMARK  Name = 
REMARK  3 active torsions:
REMARK  status: ('A' for Active; 'I' for Inactive)
REMARK    1  A    between atoms: C_4  and  C_6
REMARK    2  A    between atoms: C_6  and  O_7
REMARK    3  A    between atoms: O_7  and  C_8
REMARK                            x       y       z     vdW  Elec       q    Type
REMARK                         _______ _______ _______ _____ _____    ______ ____
ROOT
ATOM      8  C   UNL     1      -3.684  -0.215  24.234  0.00  0.00    +0.165 C 
ATOM      9  C   UNL     1      -4.359  -0.660  24.069  0.00  0.00    +0.173 C 
ATOM     10  O   UNL     1      -4.447  -1.480  24.069  0.00  0.00    -0.349 OA
ATOM     11  C   UNL     1      -3.881  -2.058  24.234  0.00  0.00    +0.164 C 
ATOM     12  C   UNL     1      -3.089  -1.958  24.439  0.00  0.00    +0.125 C 
ATOM     13  N   UNL     1      -2.666  -1.257  24.531  0.00  0.00    -0.274 N 
ATOM     14  C   UNL     1      -2.930  -0.481  24.439  0.00  0.00    +0.126 C 
ATOM     15  C   UNL     1      -1.872  -1.341  24.741  0.00  0.00    +0.226 C 
ATOM     16  C   UNL     1      -1.552  -2.094  24.847  0.00  0.00    +0.095 C 
ATOM     17  O   UNL     1      -1.400  -0.674  24.847  0.00  0.00    -0.275 OA
ENDROOT
BRANCH   8   7
ATOM      7  O   UNL     1      -3.775   0.604  24.187  0.00  0.00    -0.343 OA
BRANCH   7   6
ATOM      6  C   UNL     1      -4.332   0.985  24.660  0.00  0.00    +0.227 C 
BRANCH   6   4
ATOM      1  C   UNL     1      -4.961   3.015  25.156  0.00  0.00    +0.115 C 
ATOM      2  N   UNL     1      -4.941   2.192  25.124  0.00  0.00    -0.274 N 
ATOM      3  C   UNL     1      -5.512   1.750  25.523  0.00  0.00    +0.115 C 
ATOM      4  C   UNL     1      -4.351   1.809  24.693  0.00  0.00    +0.256 C 
ATOM      5  O   UNL     1      -3.780   2.251  24.294  0.00  0.00    -0.272 OA
ENDBRANCH   6   4
ENDBRANCH   7   6
ENDBRANCH   8   7
TORSDOF 3
ENDMDL
MODEL 8
REMARK VINA RESULT:      -6.7      2.191      2.632
REMARK  Name = 
REMARK  3 active torsions:
REMARK  status: ('A' for Active; 'I' for Inactive)
REMARK    1  A    between atoms: C_4  and  C_6
REMARK    2  A    between atoms: C_6  and  O_7
REMARK    3  A    between atoms: O_7  and  C_8
REMARK                            x       y       z     vdW  Elec       q    Type
REMARK                         _______ _______ _______ _____ _____    ______ ____
ROOT
ATOM      8  C   UNL     1      -2.074   2.127  24.602  0.00  0.00    +0.165 C 
ATOM      9  C   UNL     1      -2.885   1.997  24.682  0.00  0.00    +0.173 C 
ATOM     10  O   UNL     1      -3.471   2.533  24.906  0.00  0.00    -0.349 OA
ATOM     11  C   UNL     1      -3.392   3.329  25.106  0.00  0.00    +0.164 C 
ATOM     12  C   UNL     1      -2.706   3.787  25.131  0.00  0.00    +0.125 C 
ATOM     13  N   UNL     1      -1.931   3.562  24.962  0.00  0.00    -0.274 N 
ATOM     14  C   UNL     1      -1.650   2.823  24.727  0.00  0.00    +0.126 C 
ATOM     15  C   UNL     1      -1.361   4.154  25.039  0.00  0.00    +0.226 C 
ATOM     16  C   UNL     1      -1.585   4.913  25.271  0.00  0.00    +0.095 C 
ATOM     17  O   UNL     1      -0.569   3.986  24.883  0.00  0.00    -0.275 OA
ENDROOT
BRANCH   8   7
ATOM      7  O   UNL     1      -1.629   1.473  24.366  0.00  0.00    -0.343 OA
BRANCH   7   6
ATOM      6  C   UNL     1      -1.552   0.823  24.867  0.00  0.00    +0.227 C 
BRANCH   6   4
ATOM      1  C   UNL     1      -0.513  -1.095  24.934  0.00  0.00    +0.115 C 
ATOM      2  N   UNL     1      -1.007  -0.469  25.143  0.00  0.00    -0.274 N 
ATOM      3  C   UNL     1      -1.452  -0.508  25.837  0.00  0.00    +0.115 C 
ATOM      4  C   UNL     1      -1.058   0.197  24.658  0.00  0.00    +0.256 C 
ATOM      5  O   UNL     1      -0.614   0.236  23.964  0.00  0.00    -0.272 OA
ENDBRANCH   6   4
ENDBRANCH   7   6
ENDBRANCH   8   7
TORSDOF 3
ENDMDL
