MODEL 1
REMARK VINA RESULT:     -11.4      0.000      0.000
REMARK  Name = 
REMARK  5 active torsions:
REMARK  status: ('A' for Active; 'I' for Inactive)
REMARK    1  A    between atoms: C_2  and  C_4
REMARK    2  A    between atoms: C_5  and  C_31
REMARK    3  A    between atoms: N_6  and  C_9
REMARK    4  A    between atoms: CA_18  and  CB_19
REMARK    5  A    between atoms: CB_19  and  CG_20
REMARK                            x       y       z     vdW  Elec       q    Type
REMARK                         _______ _______ _______ _____ _____    ______ ____
ROOT
ATOM      9  C   UNK A   1      -1.780  -0.689  24.901  0.00  0.00    +0.111 C 
ATOM     10  C   UNK A   1      -1.360  -0.608  25.606  0.00  0.00    +0.046 C 
ATOM     11  C   UNK A   1      -1.073   0.131  25.834  0.00  0.00    +0.096 C 
ATOM     12  N   UNK A   1      -1.207   0.790  25.356  0.00  0.00    -0.271 N 
ATOM     13  C   UNK A   1      -1.628   0.710  24.650  0.00  0.00    +0.155 C 
ATOM     14  C   UNK A   1      -1.914  -0.030  24.424  0.00  0.00    +0.054 C 
ATOM     15  C   UNK A   1      -1.762   1.369  24.173  0.00  0.00    +0.260 C 
ATOM     16  O   UNK A   1      -2.182   1.288  23.468  0.00  0.00    -0.272 OA
ATOM     17  N   TRP A   2      -1.475   2.108  24.400  0.00  0.00    -0.196 NA
ATOM     18  CA  TRP A   2      -1.054   2.189  25.105  0.00  0.00    +0.176 C 
ATOM     29  C   TRP A   2      -0.920   1.530  25.583  0.00  0.00    +0.246 C 
ATOM     30  O   TRP A   2      -0.499   1.610  26.288  0.00  0.00    -0.273 OA
ENDROOT
BRANCH   9   6
ATOM      4  C   UNK A   1      -2.867  -2.484  24.508  0.00  0.00    +0.183 A 
ATOM      5  C   UNK A   1      -2.816  -1.730  24.840  0.00  0.00    +0.160 A 
ATOM      6  N   UNK A   1      -2.067  -1.428  24.674  0.00  0.00    -0.229 N 
ATOM      7  N   UNK A   1      -1.654  -1.995  24.239  0.00  0.00    -0.064 NA
ATOM      8  N   UNK A   1      -2.148  -2.648  24.137  0.00  0.00    -0.124 NA
BRANCH   4   2
ATOM      1  N   UNK A   1      -4.068  -2.993  23.925  0.00  0.00    -0.082 NA
ATOM      2  C   UNK A   1      -3.520  -2.986  24.542  0.00  0.00    +0.305 C 
ATOM      3  O   UNK A   1      -3.627  -3.481  25.194  0.00  0.00    -0.265 OA
ENDBRANCH   4   2
BRANCH   5  31
ATOM     31  C   UNK A   1      -3.411  -1.346  25.264  0.00  0.00    +0.303 C 
ATOM     32  N   UNK A   1      -4.004  -0.935  24.863  0.00  0.00    -0.082 NA
ATOM     33  O   UNK A   1      -3.412  -1.372  26.088  0.00  0.00    -0.265 OA
ENDBRANCH   5  31
ENDBRANCH   9   6
BRANCH  18  19
ATOM     19  CB  TRP A   2      -0.767   2.928  25.333  0.00  0.00    +0.059 C 
BRANCH  19  20
ATOM     20  CG  TRP A   2      -1.289   3.559  25.438  0.00  0.00    +0.001 A 
ATOM     21  CD1 TRP A   2      -2.016   3.527  25.825  0.00  0.00    +0.095 A 
ATOM     22  NE1 TRP A   2      -2.351   4.280  25.801  0.00  0.00    -0.244 NA
ATOM     23  CE2 TRP A   2      -1.830   4.777  25.399  0.00  0.00    +0.081 A 
ATOM     24  CD2 TRP A   2      -1.174   4.332  25.175  0.00  0.00    +0.015 A 
ATOM     25  CE3 TRP A   2      -0.556   4.688  24.760  0.00  0.00    +0.001 A 
ATOM     26  CZ3 TRP A   2      -0.595   5.489  24.569  0.00  0.00    +0.000 A 
ATOM     27  CH2 TRP A   2      -1.251   5.935  24.793  0.00  0.00    +0.002 A 
ATOM     28  CZ2 TRP A   2      -1.870   5.580  25.209  0.00  0.00    +0.019 A 
ENDBRANCH  19  20
ENDBRANCH  18  19
TORSDOF 5
ENDMDL
MODEL 2
REMARK VINA RESULT:     -10.3      1.812      6.071
REMARK  Name = 
REMARK  5 active torsions:
REMARK  status: ('A' for Active; 'I' for Inactive)
REMARK    1  A    between atoms: C_2  and  C_4
REMARK    2  A    between atoms: C_5  and  C_31
REMARK    3  A    between atoms: N_6  and  C_9
REMARK    4  A    between atoms: CA_18  and  CB_19
REMARK    5  A    between atoms: CB_19  and  CG_20
REMARK                            x       y       z     vdW  Elec       q    Type
REMARK                         _______ _______ _______ _____ _____    ______ ____
ROOT
ATOM      9  C   UNK A   1      -3.211   3.100  24.659  0.00  0.00    +0.111 C 
ATOM     10  C   UNK A   1      -3.887   3.037  25.126  0.00  0.00    +0.046 C 
ATOM     11  C   UNK A   1      -4.261   2.307  25.215  0.00  0.00    +0.096 C 
ATOM     12  N   UNK A   1      -3.958   1.640  24.836  0.00  0.00    -0.271 N 
ATOM     13  C   UNK A   1      -3.281   1.703  24.368  0.00  0.00    +0.155 C 
ATOM     14  C   UNK A   1      -2.908   2.433  24.280  0.00  0.00    +0.054 C 
ATOM     15  C   UNK A   1      -2.978   1.036  23.989  0.00  0.00    +0.260 C 
ATOM     16  O   UNK A   1      -2.301   1.099  23.522  0.00  0.00    -0.272 OA
ATOM     17  N   TRP A   2      -3.351   0.306  24.078  0.00  0.00    -0.196 NA
ATOM     18  CA  TRP A   2      -4.028   0.242  24.545  0.00  0.00    +0.176 C 
ATOM     29  C   TRP A   2      -4.331   0.909  24.924  0.00  0.00    +0.246 C 
ATOM     30  O   TRP A   2      -5.008   0.846  25.392  0.00  0.00    -0.273 OA
ENDROOT
BRANCH   9   6
ATOM      4  C   UNK A   1      -2.034   4.878  24.767  0.00  0.00    +0.183 A 
ATOM      5  C   UNK A   1      -2.247   4.137  25.058  0.00  0.00    +0.160 A 
ATOM      6  N   UNK A   1      -2.837   3.830  24.570  0.00  0.00    -0.229 N 
ATOM      7  N   UNK A   1      -2.989   4.383  23.977  0.00  0.00    -0.064 NA
ATOM      8  N   UNK A   1      -2.492   5.031  24.098  0.00  0.00    -0.124 NA
BRANCH   4   2
ATOM      1  N   UNK A   1      -0.663   5.243  24.937  0.00  0.00    -0.082 NA
ATOM      2  C   UNK A   1      -1.462   5.379  25.088  0.00  0.00    +0.305 C 
ATOM      3  O   UNK A   1      -1.690   6.016  25.560  0.00  0.00    -0.265 OA
ENDBRANCH   4   2
BRANCH   5  31
ATOM     31  C   UNK A   1      -1.927   3.765  25.722  0.00  0.00    +0.303 C 
ATOM     32  N   UNK A   1      -1.228   3.331  25.655  0.00  0.00    -0.082 NA
ATOM     33  O   UNK A   1      -2.305   3.829  26.452  0.00  0.00    -0.265 OA
ENDBRANCH   5  31
ENDBRANCH   9   6
BRANCH  18  19
ATOM     19  CB  TRP A   2      -4.402  -0.488  24.634  0.00  0.00    +0.059 C 
BRANCH  19  20
ATOM     20  CG  TRP A   2      -3.977  -1.138  24.914  0.00  0.00    +0.001 A 
ATOM     21  CD1 TRP A   2      -3.521  -1.159  25.601  0.00  0.00    +0.095 A 
ATOM     22  NE1 TRP A   2      -3.197  -1.915  25.668  0.00  0.00    -0.244 NA
ATOM     23  CE2 TRP A   2      -3.452  -2.359  25.023  0.00  0.00    +0.081 A 
ATOM     24  CD2 TRP A   2      -3.935  -1.879  24.557  0.00  0.00    +0.015 A 
ATOM     25  CE3 TRP A   2      -4.273  -2.180  23.867  0.00  0.00    +0.001 A 
ATOM     26  CZ3 TRP A   2      -4.129  -2.961  23.643  0.00  0.00    +0.000 A 
ATOM     27  CH2 TRP A   2      -3.646  -3.441  24.109  0.00  0.00    +0.002 A 
ATOM     28  CZ2 TRP A   2      -3.308  -3.141  24.799  0.00  0.00    +0.019 A 
ENDBRANCH  19  20
ENDBRANCH  18  19
TORSDOF 5
ENDMDL
MODEL 3
REMARK VINA RESULT:      -9.2      1.274      1.783
REMARK  Name = 
REMARK  5 active torsions:
REMARK  status: ('A' for Active; 'I' for Inactive)
REMARK    1  A    between atoms: C_2  and  C_4
REMARK    2  A    between atoms: C_5  and  C_31
REMARK    3  A    between atoms: N_6  and  C_9
REMARK    4  A    between atoms: CA_18  and  CB_19
REMARK    5  A    between atoms: CB_19  and  CG_20
REMARK                            x       y       z     vdW  Elec       q    Type
REMARK                         _______ _______ _______ _____ _____    ______ ____
ROOT
ATOM      9  C   UNK A   1      -3.843  -0.334  24.354  0.00  0.00    +0.111 C 
ATOM     10  C   UNK A   1      -4.344   0.003  24.916  0.00  0.00    +0.046 C 
ATOM     11  C   UNK A   1      -4.253   0.794  25.130  0.00  0.00    +0.096 C 
ATOM     12  N   UNK A   1      -3.659   1.249  24.782  0.00  0.00    -0.271 N 
ATOM     13  C   UNK A   1      -3.157   0.913  24.220  0.00  0.00    +0.155 C 
ATOM     14  C   UNK A   1      -3.249   0.122  24.007  0.00  0.00    +0.054 C 
ATOM     15  C   UNK A   1      -2.563   1.368  23.873  0.00  0.00    +0.260 C 
ATOM     16  O   UNK A   1      -2.062   1.032  23.311  0.00  0.00    -0.272 OA
ATOM     17  N   TRP A   2      -2.472   2.160  24.087  0.00  0.00    -0.196 NA
ATOM     18  CA  TRP A   2      -2.974   2.496  24.648  0.00  0.00    +0.176 C 
ATOM     29  C   TRP A   2      -3.567   2.041  24.996  0.00  0.00    +0.246 C 
ATOM     30  O   TRP A   2      -4.069   2.377  25.558  0.00  0.00    -0.273 OA
ENDROOT
BRANCH   9   6
ATOM      4  C   UNK A   1      -3.820  -2.455  24.114  0.00  0.00    +0.183 A 
ATOM      5  C   UNK A   1      -3.576  -1.772  24.506  0.00  0.00    +0.160 A 
ATOM      6  N   UNK A   1      -3.934  -1.125  24.140  0.00  0.00    -0.229 N 
ATOM      7  N   UNK A   1      -4.400  -1.409  23.522  0.00  0.00    -0.064 NA
ATOM      8  N   UNK A   1      -4.330  -2.231  23.505  0.00  0.00    -0.124 NA
BRANCH   4   2
ATOM      1  N   UNK A   1      -2.995  -3.595  23.868  0.00  0.00    -0.082 NA
ATOM      2  C   UNK A   1      -3.595  -3.226  24.298  0.00  0.00    +0.305 C 
ATOM      3  O   UNK A   1      -3.969  -3.630  24.913  0.00  0.00    -0.265 OA
ENDBRANCH   4   2
BRANCH   5  31
ATOM     31  C   UNK A   1      -3.062  -1.740  25.151  0.00  0.00    +0.303 C 
ATOM     32  N   UNK A   1      -2.246  -1.745  25.030  0.00  0.00    -0.082 NA
ATOM     33  O   UNK A   1      -3.366  -1.704  25.918  0.00  0.00    -0.265 OA
ENDBRANCH   5  31
ENDBRANCH   9   6
BRANCH  18  19
ATOM     19  CB  TRP A   2      -2.882   3.288  24.863  0.00  0.00    +0.059 C 
BRANCH  19  20
ATOM     20  CG  TRP A   2      -2.150   3.562  25.128  0.00  0.00    +0.001 A 
ATOM     21  CD1 TRP A   2      -1.592   3.124  25.549  0.00  0.00    +0.095 A 
ATOM     22  NE1 TRP A   2      -0.946   3.613  25.700  0.00  0.00    -0.244 NA
ATOM     23  CE2 TRP A   2      -1.105   4.353  25.373  0.00  0.00    +0.081 A 
ATOM     24  CD2 TRP A   2      -1.850   4.321  25.019  0.00  0.00    +0.015 A 
ATOM     25  CE3 TRP A   2      -2.157   4.989  24.644  0.00  0.00    +0.001 A 
ATOM     26  CZ3 TRP A   2      -1.720   5.688  24.623  0.00  0.00    +0.000 A 
ATOM     27  CH2 TRP A   2      -0.975   5.720  24.976  0.00  0.00    +0.002 A 
ATOM     28  CZ2 TRP A   2      -0.667   5.053  25.351  0.00  0.00    +0.019 A 
ENDBRANCH  19  20
ENDBRANCH  18  19
TORSDOF 5
ENDMDL
MODEL 4
REMARK VINA RESULT:      -8.9      1.360      5.766
REMARK  Name = 
REMARK  5 active torsions:
REMARK  status: ('A' for Active; 'I' for Inactive)
REMARK    1  A    between atoms: C_2  and  C_4
REMARK    2  A    between atoms: C_5  and  C_31
REMARK    3  A    between atoms: N_6  and  C_9
REMARK    4  A    between atoms: CA_18  and  CB_19
REMARK    5  A    between atoms: CB_19  and  CG_20
REMARK                            x       y       z     vdW  Elec       q    Type
REMARK                         _______ _______ _______ _____ _____    ______ ____
ROOT
ATOM      9  C   UNK A   1      -1.143   2.778  25.060  0.00  0.00    +0.111 C 
ATOM     10  C   UNK A   1      -0.809   2.438  25.733  0.00  0.00    +0.046 C 
ATOM     11  C   UNK A   1      -0.880   1.626  25.864  0.00  0.00    +0.096 C 
ATOM     12  N   UNK A   1      -1.284   1.155  25.321  0.00  0.00    -0.271 N 
ATOM     13  C   UNK A   1      -1.619   1.495  24.647  0.00  0.00    +0.155 C 
ATOM     14  C   UNK A   1      -1.548   2.306  24.517  0.00  0.00    +0.054 C 
ATOM     15  C   UNK A   1      -2.023   1.024  24.104  0.00  0.00    +0.260 C 
ATOM     16  O   UNK A   1      -2.357   1.364  23.432  0.00  0.00    -0.272 OA
ATOM     17  N   TRP A   2      -2.094   0.212  24.235  0.00  0.00    -0.196 NA
ATOM     18  CA  TRP A   2      -1.760  -0.128  24.908  0.00  0.00    +0.176 C 
ATOM     29  C   TRP A   2      -1.355   0.343  25.451  0.00  0.00    +0.246 C 
ATOM     30  O   TRP A   2      -1.021   0.003  26.124  0.00  0.00    -0.273 OA
ENDROOT
BRANCH   9   6
ATOM      4  C   UNK A   1      -1.333   4.898  24.901  0.00  0.00    +0.183 A 
ATOM      5  C   UNK A   1      -1.628   4.164  25.132  0.00  0.00    +0.160 A 
ATOM      6  N   UNK A   1      -1.073   3.589  24.929  0.00  0.00    -0.229 N 
ATOM      7  N   UNK A   1      -0.433   3.969  24.572  0.00  0.00    -0.064 NA
ATOM      8  N   UNK A   1      -0.594   4.778  24.554  0.00  0.00    -0.124 NA
BRANCH   4   2
ATOM      1  N   UNK A   1      -2.071   5.993  24.354  0.00  0.00    -0.082 NA
ATOM      2  C   UNK A   1      -1.710   5.625  24.999  0.00  0.00    +0.305 C 
ATOM      3  O   UNK A   1      -1.727   5.985  25.741  0.00  0.00    -0.265 OA
ENDBRANCH   4   2
BRANCH   5  31
ATOM     31  C   UNK A   1      -2.354   4.027  25.503  0.00  0.00    +0.303 C 
ATOM     32  N   UNK A   1      -3.043   3.971  25.052  0.00  0.00    -0.082 NA
ATOM     33  O   UNK A   1      -2.389   3.947  26.323  0.00  0.00    -0.265 OA
ENDBRANCH   5  31
ENDBRANCH   9   6
BRANCH  18  19
ATOM     19  CB  TRP A   2      -1.830  -0.940  25.039  0.00  0.00    +0.059 C 
BRANCH  19  20
ATOM     20  CG  TRP A   2      -2.577  -1.289  25.079  0.00  0.00    +0.001 A 
ATOM     21  CD1 TRP A   2      -3.230  -0.990  25.484  0.00  0.00    +0.095 A 
ATOM     22  NE1 TRP A   2      -3.858  -1.513  25.376  0.00  0.00    -0.244 NA
ATOM     23  CE2 TRP A   2      -3.593  -2.136  24.905  0.00  0.00    +0.081 A 
ATOM     24  CD2 TRP A   2      -2.801  -1.996  24.721  0.00  0.00    +0.015 A 
ATOM     25  CE3 TRP A   2      -2.386  -2.534  24.251  0.00  0.00    +0.001 A 
ATOM     26  CZ3 TRP A   2      -2.763  -3.209  23.965  0.00  0.00    +0.000 A 
ATOM     27  CH2 TRP A   2      -3.555  -3.348  24.149  0.00  0.00    +0.002 A 
ATOM     28  CZ2 TRP A   2      -3.971  -2.812  24.619  0.00  0.00    +0.019 A 
ENDBRANCH  19  20
ENDBRANCH  18  19
TORSDOF 5
ENDMDL
MODEL 5
REMARK VINA RESULT:      -8.6      2.922      4.281
REMARK  Name = 
REMARK  5 active torsions:
REMARK  status: ('A' for Active; 'I' for Inactive)
REMARK    1  A    between atoms: C_2  and  C_4
REMARK    2  A    between atoms: C_5  and  C_31
REMARK    3  A    between atoms: N_6  and  C_9
REMARK    4  A    between atoms: CA_18  and  CB_19
REMARK    5  A    between atoms: CB_19  and  CG_20
REMARK                            x       y       z     vdW  Elec       q    Type
REMARK                         _______ _______ _______ _____ _____    ______ ____
ROOT
ATOM      9  C   UNK A   1       0.012   0.911  23.988  0.00  0.00    +0.111 C 
ATOM     10  C   UNK A   1      -0.179   0.473  24.659  0.00  0.00    +0.046 C 
ATOM     11  C   UNK A   1      -0.955   0.464  24.940  0.00  0.00    +0.096 C 
ATOM     12  N   UNK A   1      -1.540   0.894  24.548  0.00  0.00    -0.271 N 
ATOM     13  C   UNK A   1      -1.348   1.333  23.875  0.00  0.00    +0.155 C 
ATOM     14  C   UNK A   1      -0.572   1.341  23.596  0.00  0.00    +0.054 C 
ATOM     15  C   UNK A   1      -1.933   1.763  23.483  0.00  0.00    +0.260 C 
ATOM     16  O   UNK A   1      -1.742   2.202  22.812  0.00  0.00    -0.272 OA
ATOM     17  N   TRP A   2      -2.709   1.755  23.764  0.00  0.00    -0.196 NA
ATOM     18  CA  TRP A   2      -2.900   1.317  24.435  0.00  0.00    +0.176 C 
ATOM     29  C   TRP A   2      -2.316   0.886  24.827  0.00  0.00    +0.246 C 
ATOM     30  O   TRP A   2      -2.507   0.448  25.499  0.00  0.00    -0.273 OA
ENDROOT
BRANCH   9   6
ATOM      4  C   UNK A   1       1.920   0.569  23.093  0.00  0.00    +0.183 A 
ATOM      5  C   UNK A   1       1.145   0.336  23.246  0.00  0.00    +0.160 A 
ATOM      6  N   UNK A   1       0.788   0.920  23.707  0.00  0.00    -0.229 N 
ATOM      7  N   UNK A   1       1.344   1.515  23.839  0.00  0.00    -0.064 NA
ATOM      8  N   UNK A   1       2.045   1.298  23.459  0.00  0.00    -0.124 NA
BRANCH   4   2
ATOM      1  N   UNK A   1       3.071  -0.276  23.033  0.00  0.00    -0.082 NA
ATOM      2  C   UNK A   1       2.475   0.148  22.651  0.00  0.00    +0.305 C 
ATOM      3  O   UNK A   1       2.435   0.152  21.827  0.00  0.00    -0.265 OA
ENDBRANCH   4   2
BRANCH   5  31
ATOM     31  C   UNK A   1       0.787  -0.361  22.985  0.00  0.00    +0.303 C 
ATOM     32  N   UNK A   1       0.474  -0.403  22.222  0.00  0.00    -0.082 NA
ATOM     33  O   UNK A   1       0.742  -1.014  23.486  0.00  0.00    -0.265 OA
ENDBRANCH   5  31
ENDBRANCH   9   6
BRANCH  18  19
ATOM     19  CB  TRP A   2      -3.676   1.308  24.715  0.00  0.00    +0.059 C 
BRANCH  19  20
ATOM     20  CG  TRP A   2      -4.029   2.007  24.977  0.00  0.00    +0.001 A 
ATOM     21  CD1 TRP A   2      -3.640   2.719  25.128  0.00  0.00    +0.095 A 
ATOM     22  NE1 TRP A   2      -4.203   3.268  25.377  0.00  0.00    -0.244 NA
ATOM     23  CE2 TRP A   2      -4.938   2.895  25.381  0.00  0.00    +0.081 A 
ATOM     24  CD2 TRP A   2      -4.831   2.116  25.133  0.00  0.00    +0.015 A 
ATOM     25  CE3 TRP A   2      -5.478   1.606  25.082  0.00  0.00    +0.001 A 
ATOM     26  CZ3 TRP A   2      -6.232   1.876  25.278  0.00  0.00    +0.000 A 
ATOM     27  CH2 TRP A   2      -6.340   2.656  25.526  0.00  0.00    +0.002 A 
ATOM     28  CZ2 TRP A   2      -5.693   3.166  25.577  0.00  0.00    +0.019 A 
ENDBRANCH  19  20
ENDBRANCH  18  19
TORSDOF 5
ENDMDL
MODEL 6
REMARK VINA RESULT:      -8.3      2.716      4.887
REMARK  Name = 
REMARK  5 active torsions:
REMARK  status: ('A' for Active; 'I' for Inactive)
REMARK    1  A    between atoms: C_2  and  C_4
REMARK    2  A    between atoms: C_5  and  C_31
REMARK    3  A    between atoms: N_6  and  C_9
REMARK    4  A    between atoms: CA_18  and  CB_19
REMARK    5  A    between atoms: CB_19  and  CG_20
REMARK                            x       y       z     vdW  Elec       q    Type
REMARK                         _______ _______ _______ _____ _____    ______ ____
ROOT
ATOM      9  C   UNK A   1      -2.416   3.143  25.260  0.00  0.00    +0.111 C 
ATOM     10  C   UNK A   1      -2.012   3.689  24.793  0.00  0.00    +0.046 C 
ATOM     11  C   UNK A   1      -1.277   3.495  24.472  0.00  0.00    +0.096 C 
ATOM     12  N   UNK A   1      -0.946   2.754  24.620  0.00  0.00    -0.271 N 
ATOM     13  C   UNK A   1      -1.350   2.207  25.088  0.00  0.00    +0.155 C 
ATOM     14  C   UNK A   1      -2.085   2.402  25.407  0.00  0.00    +0.054 C 
ATOM     15  C   UNK A   1      -1.019   1.466  25.235  0.00  0.00    +0.260 C 
ATOM     16  O   UNK A   1      -1.423   0.920  25.702  0.00  0.00    -0.272 OA
ATOM     17  N   TRP A   2      -0.284   1.272  24.915  0.00  0.00    -0.196 NA
ATOM     18  CA  TRP A   2       0.120   1.818  24.448  0.00  0.00    +0.176 C 
ATOM     29  C   TRP A   2      -0.211   2.559  24.300  0.00  0.00    +0.246 C 
ATOM     30  O   TRP A   2       0.194   3.106  23.832  0.00  0.00    -0.273 OA
ENDROOT
BRANCH   9   6
ATOM      4  C   UNK A   1      -4.468   3.491  25.735  0.00  0.00    +0.183 A 
ATOM      5  C   UNK A   1      -3.884   3.216  25.222  0.00  0.00    +0.160 A 
ATOM      6  N   UNK A   1      -3.151   3.338  25.580  0.00  0.00    -0.229 N 
ATOM      7  N   UNK A   1      -3.282   3.687  26.315  0.00  0.00    -0.064 NA
ATOM      8  N   UNK A   1      -4.096   3.783  26.412  0.00  0.00    -0.124 NA
BRANCH   4   2
ATOM      1  N   UNK A   1      -5.720   2.803  25.782  0.00  0.00    -0.082 NA
ATOM      2  C   UNK A   1      -5.281   3.477  25.597  0.00  0.00    +0.305 C 
ATOM      3  O   UNK A   1      -5.656   4.137  25.274  0.00  0.00    -0.265 OA
ENDBRANCH   4   2
BRANCH   5  31
ATOM     31  C   UNK A   1      -4.011   2.879  24.479  0.00  0.00    +0.303 C 
ATOM     32  N   UNK A   1      -4.005   3.353  23.804  0.00  0.00    -0.082 NA
ATOM     33  O   UNK A   1      -4.143   2.068  24.413  0.00  0.00    -0.265 OA
ENDBRANCH   5  31
ENDBRANCH   9   6
BRANCH  18  19
ATOM     19  CB  TRP A   2       0.856   1.624  24.127  0.00  0.00    +0.059 C 
BRANCH  19  20
ATOM     20  CG  TRP A   2       0.931   0.965  23.636  0.00  0.00    +0.001 A 
ATOM     21  CD1 TRP A   2       0.332   0.430  23.447  0.00  0.00    +0.095 A 
ATOM     22  NE1 TRP A   2       0.650  -0.139  22.942  0.00  0.00    -0.244 NA
ATOM     23  CE2 TRP A   2       1.444   0.045  22.818  0.00  0.00    +0.081 A 
ATOM     24  CD2 TRP A   2       1.618   0.728  23.247  0.00  0.00    +0.015 A 
ATOM     25  CE3 TRP A   2       2.380   1.044  23.227  0.00  0.00    +0.001 A 
ATOM     26  CZ3 TRP A   2       2.967   0.678  22.779  0.00  0.00    +0.000 A 
ATOM     27  CH2 TRP A   2       2.793  -0.005  22.350  0.00  0.00    +0.002 A 
ATOM     28  CZ2 TRP A   2       2.032  -0.322  22.369  0.00  0.00    +0.019 A 
ENDBRANCH  19  20
ENDBRANCH  18  19
TORSDOF 5
ENDMDL
