MODEL 1
REMARK VINA RESULT:      -9.3      0.000      0.000
REMARK  Name = 
REMARK  7 active torsions:
REMARK  status: ('A' for Active; 'I' for Inactive)
REMARK    1  A    between atoms: C_4  and  C_29
REMARK    2  A    between atoms: C_6  and  C_7
REMARK    3  A    between atoms: C_14  and  C_15
REMARK    4  A    between atoms: C_15  and  O_16
REMARK    5  A    between atoms: O_16  and  C_17
REMARK    6  A    between atoms: N_19  and  C_20
REMARK    7  A    between atoms: C_23  and  C_26
REMARK                            x       y       z     vdW  Elec       q    Type
REMARK                         _______ _______ _______ _____ _____    ______ ____
ROOT
ATOM      7  C   UNL     1      -2.277   0.889  24.337  0.00  0.00    +0.056 C 
ATOM      8  C   UNL     1      -1.830   0.484  24.828  0.00  0.00    +0.078 C 
ATOM      9  N   UNL     1      -1.578   0.863  24.140  0.00  0.00    -0.270 NA
ATOM     10  C   UNL     1      -2.420   1.315  23.709  0.00  0.00    +0.072 C 
ATOM     11  C   UNL     1      -2.693   1.672  23.235  0.00  0.00    +0.018 C 
ATOM     12  C   UNL     1      -2.022   1.259  23.663  0.00  0.00    +0.010 C 
ATOM     13  C   UNL     1      -1.230   1.322  23.291  0.00  0.00    +0.020 C 
ATOM     14  C   UNL     1      -0.757   0.933  23.747  0.00  0.00    +0.102 C 
ENDROOT
BRANCH   7   6
ATOM      1  C   UNL     1      -3.473  -0.450  24.284  0.00  0.00    +0.153 C 
ATOM      2  N   UNL     1      -3.630   0.333  24.494  0.00  0.00    -0.253 N 
ATOM      3  N   UNL     1      -4.363   0.638  24.716  0.00  0.00    -0.169 NA
ATOM      4  C   UNL     1      -4.268   1.441  24.878  0.00  0.00    +0.108 A 
ATOM      5  C   UNL     1      -3.475   1.633  24.755  0.00  0.00    +0.036 A 
ATOM      6  C   UNL     1      -3.081   0.948  24.518  0.00  0.00    +0.058 A 
BRANCH   4  29
ATOM     29  C   UNL     1      -4.862   1.960  25.119  0.00  0.00    +0.049 A 
ATOM     30  C   UNL     1      -4.748   2.684  25.499  0.00  0.00    +0.009 A 
ATOM     31  C   UNL     1      -5.490   3.018  25.638  0.00  0.00    +0.008 A 
ATOM     32  C   UNL     1      -6.061   2.500  25.343  0.00  0.00    +0.035 A 
ATOM     33  S   UNL     1      -5.674   1.847  25.023  0.00  0.00    -0.085 S 
ENDBRANCH   4  29
ENDBRANCH   7   6
BRANCH  14  15
ATOM     15  C   UNL     1       0.032   0.709  23.834  0.00  0.00    +0.226 C 
BRANCH  15  16
ATOM     16  O   UNL     1       0.533   0.702  23.179  0.00  0.00    -0.432 OA
BRANCH  16  17
ATOM     17  C   UNL     1       1.351   0.688  23.287  0.00  0.00    +0.425 C 
ATOM     18  O   UNL     1       1.693   1.111  23.906  0.00  0.00    -0.224 OA
ATOM     19  N   UNL     1       1.827   0.251  22.774  0.00  0.00    -0.142 NA
BRANCH  19  20
ATOM     20  C   UNL     1       2.645   0.237  22.881  0.00  0.00    +0.077 A 
ATOM     21  C   UNL     1       3.006  -0.427  23.213  0.00  0.00    +0.017 A 
ATOM     22  C   UNL     1       3.824  -0.441  23.319  0.00  0.00    +0.004 A 
ATOM     23  C   UNL     1       4.280   0.209  23.094  0.00  0.00    +0.035 A 
ATOM     24  C   UNL     1       3.919   0.872  22.763  0.00  0.00    +0.004 A 
ATOM     25  C   UNL     1       3.102   0.886  22.656  0.00  0.00    +0.017 A 
BRANCH  23  26
ATOM     26  C   UNL     1       5.098   0.195  23.201  0.00  0.00    +0.173 C 
ATOM     27  C   UNL     1       5.421   0.367  23.941  0.00  0.00    +0.077 C 
ATOM     28  O   UNL     1       5.593   0.008  22.568  0.00  0.00    -0.291 OA
ENDBRANCH  23  26
ENDBRANCH  19  20
ENDBRANCH  16  17
ENDBRANCH  15  16
ENDBRANCH  14  15
TORSDOF 7
ENDMDL
MODEL 2
REMARK VINA RESULT:      -7.5      2.497      7.343
REMARK  Name = 
REMARK  7 active torsions:
REMARK  status: ('A' for Active; 'I' for Inactive)
REMARK    1  A    between atoms: C_4  and  C_29
REMARK    2  A    between atoms: C_6  and  C_7
REMARK    3  A    between atoms: C_14  and  C_15
REMARK    4  A    between atoms: C_15  and  O_16
REMARK    5  A    between atoms: O_16  and  C_17
REMARK    6  A    between atoms: N_19  and  C_20
REMARK    7  A    between atoms: C_23  and  C_26
REMARK                            x       y       z     vdW  Elec       q    Type
REMARK                         _______ _______ _______ _____ _____    ______ ____
ROOT
ATOM      7  C   UNL     1       0.926   0.199  23.340  0.00  0.00    +0.056 C 
ATOM      8  C   UNL     1       0.466  -0.428  23.335  0.00  0.00    +0.078 C 
ATOM      9  N   UNL     1       0.276   0.314  23.642  0.00  0.00    -0.270 NA
ATOM     10  C   UNL     1       1.107   0.934  23.492  0.00  0.00    +0.072 C 
ATOM     11  C   UNL     1       1.401   1.515  23.550  0.00  0.00    +0.018 C 
ATOM     12  C   UNL     1       0.732   0.924  23.643  0.00  0.00    +0.010 C 
ATOM     13  C   UNL     1       0.005   1.223  24.033  0.00  0.00    +0.020 C 
ATOM     14  C   UNL     1      -0.477   0.631  24.049  0.00  0.00    +0.102 C 
ENDROOT
BRANCH   7   6
ATOM      1  C   UNL     1       1.286  -0.292  21.650  0.00  0.00    +0.153 C 
ATOM      2  N   UNL     1       1.843  -0.107  22.230  0.00  0.00    -0.253 N 
ATOM      3  N   UNL     1       2.663  -0.115  22.137  0.00  0.00    -0.169 NA
ATOM      4  C   UNL     1       3.004   0.106  22.854  0.00  0.00    +0.108 A 
ATOM      5  C   UNL     1       2.395   0.250  23.392  0.00  0.00    +0.036 A 
ATOM      6  C   UNL     1       1.678   0.119  23.007  0.00  0.00    +0.058 A 
BRANCH   4  29
ATOM     29  C   UNL     1       3.812   0.171  23.007  0.00  0.00    +0.049 A 
ATOM     30  C   UNL     1       4.271  -0.369  23.429  0.00  0.00    +0.009 A 
ATOM     31  C   UNL     1       5.046  -0.086  23.447  0.00  0.00    +0.008 A 
ATOM     32  C   UNL     1       5.065   0.629  23.035  0.00  0.00    +0.035 A 
ATOM     33  S   UNL     1       4.303   0.788  22.763  0.00  0.00    -0.085 S 
ENDBRANCH   4  29
ENDBRANCH   7   6
BRANCH  14  15
ATOM     15  C   UNL     1      -1.234   0.410  24.291  0.00  0.00    +0.226 C 
BRANCH  15  16
ATOM     16  O   UNL     1      -1.893   0.643  23.853  0.00  0.00    -0.432 OA
BRANCH  16  17
ATOM     17  C   UNL     1      -2.592   0.848  24.239  0.00  0.00    +0.425 C 
ATOM     18  O   UNL     1      -2.665   0.732  25.052  0.00  0.00    -0.224 OA
ATOM     19  N   UNL     1      -3.220   1.168  23.810  0.00  0.00    -0.142 NA
BRANCH  19  20
ATOM     20  C   UNL     1      -3.921   1.373  24.196  0.00  0.00    +0.077 A 
ATOM     21  C   UNL     1      -4.423   0.783  24.480  0.00  0.00    +0.017 A 
ATOM     22  C   UNL     1      -5.123   0.988  24.866  0.00  0.00    +0.004 A 
ATOM     23  C   UNL     1      -5.321   1.783  24.966  0.00  0.00    +0.035 A 
ATOM     24  C   UNL     1      -4.819   2.372  24.681  0.00  0.00    +0.004 A 
ATOM     25  C   UNL     1      -4.120   2.167  24.296  0.00  0.00    +0.017 A 
BRANCH  23  26
ATOM     26  C   UNL     1      -6.021   1.987  25.351  0.00  0.00    +0.173 C 
ATOM     27  C   UNL     1      -5.996   2.317  26.107  0.00  0.00    +0.077 C 
ATOM     28  O   UNL     1      -6.748   1.863  24.979  0.00  0.00    -0.291 OA
ENDBRANCH  23  26
ENDBRANCH  19  20
ENDBRANCH  16  17
ENDBRANCH  15  16
ENDBRANCH  14  15
TORSDOF 7
ENDMDL
MODEL 3
REMARK VINA RESULT:      -7.3      1.857      2.377
REMARK  Name = 
REMARK  7 active torsions:
REMARK  status: ('A' for Active; 'I' for Inactive)
REMARK    1  A    between atoms: C_4  and  C_29
REMARK    2  A    between atoms: C_6  and  C_7
REMARK    3  A    between atoms: C_14  and  C_15
REMARK    4  A    between atoms: C_15  and  O_16
REMARK    5  A    between atoms: O_16  and  C_17
REMARK    6  A    between atoms: N_19  and  C_20
REMARK    7  A    between atoms: C_23  and  C_26
REMARK                            x       y       z     vdW  Elec       q    Type
REMARK                         _______ _______ _______ _____ _____    ______ ____
ROOT
ATOM      7  C   UNL     1      -1.245  -0.079  24.486  0.00  0.00    +0.056 C 
ATOM      8  C   UNL     1      -0.533  -0.326  24.678  0.00  0.00    +0.078 C 
ATOM      9  N   UNL     1      -0.715   0.370  24.274  0.00  0.00    -0.270 NA
ATOM     10  C   UNL     1      -1.758   0.408  24.176  0.00  0.00    +0.072 C 
ATOM     11  C   UNL     1      -2.298   0.710  23.966  0.00  0.00    +0.018 C 
ATOM     12  C   UNL     1      -1.416   0.606  24.090  0.00  0.00    +0.010 C 
ATOM     13  C   UNL     1      -0.904   1.244  23.771  0.00  0.00    +0.020 C 
ATOM     14  C   UNL     1      -0.189   1.037  23.940  0.00  0.00    +0.102 C 
ENDROOT
BRANCH   7   6
ATOM      1  C   UNL     1      -1.855  -0.324  26.158  0.00  0.00    +0.153 C 
ATOM      2  N   UNL     1      -2.162  -0.668  25.474  0.00  0.00    -0.253 N 
ATOM      3  N   UNL     1      -2.804  -1.186  25.438  0.00  0.00    -0.169 NA
ATOM      4  C   UNL     1      -2.921  -1.393  24.648  0.00  0.00    +0.108 A 
ATOM      5  C   UNL     1      -2.351  -1.004  24.196  0.00  0.00    +0.036 A 
ATOM      6  C   UNL     1      -1.883  -0.556  24.706  0.00  0.00    +0.058 A 
BRANCH   4  29
ATOM     29  C   UNL     1      -3.505  -1.900  24.362  0.00  0.00    +0.049 A 
ATOM     30  C   UNL     1      -4.206  -1.674  23.991  0.00  0.00    +0.009 A 
ATOM     31  C   UNL     1      -4.624  -2.357  23.796  0.00  0.00    +0.008 A 
ATOM     32  C   UNL     1      -4.181  -3.007  24.046  0.00  0.00    +0.035 A 
ATOM     33  S   UNL     1      -3.489  -2.725  24.395  0.00  0.00    -0.085 S 
ENDBRANCH   4  29
ENDBRANCH   7   6
BRANCH  14  15
ATOM     15  C   UNL     1       0.596   1.276  23.864  0.00  0.00    +0.226 C 
BRANCH  15  16
ATOM     16  O   UNL     1       1.059   0.987  23.245  0.00  0.00    -0.432 OA
BRANCH  16  17
ATOM     17  C   UNL     1       1.875   0.914  23.340  0.00  0.00    +0.425 C 
ATOM     18  O   UNL     1       2.268   1.373  23.902  0.00  0.00    -0.224 OA
ATOM     19  N   UNL     1       2.298   0.382  22.872  0.00  0.00    -0.142 NA
BRANCH  19  20
ATOM     20  C   UNL     1       3.115   0.309  22.966  0.00  0.00    +0.077 A 
ATOM     21  C   UNL     1       3.430  -0.363  23.327  0.00  0.00    +0.017 A 
ATOM     22  C   UNL     1       4.246  -0.436  23.421  0.00  0.00    +0.004 A 
ATOM     23  C   UNL     1       4.747   0.163  23.154  0.00  0.00    +0.035 A 
ATOM     24  C   UNL     1       4.432   0.834  22.793  0.00  0.00    +0.004 A 
ATOM     25  C   UNL     1       3.616   0.907  22.699  0.00  0.00    +0.017 A 
BRANCH  23  26
ATOM     26  C   UNL     1       5.563   0.090  23.248  0.00  0.00    +0.173 C 
ATOM     27  C   UNL     1       5.921   0.331  23.951  0.00  0.00    +0.077 C 
ATOM     28  O   UNL     1       6.022  -0.226  22.638  0.00  0.00    -0.291 OA
ENDBRANCH  23  26
ENDBRANCH  19  20
ENDBRANCH  16  17
ENDBRANCH  15  16
ENDBRANCH  14  15
TORSDOF 7
ENDMDL
MODEL 4
REMARK VINA RESULT:      -5.4     17.356     18.170
REMARK  Name = 
REMARK  7 active torsions:
REMARK  status: ('A' for Active; 'I' for Inactive)
REMARK    1  A    between atoms: C_4  and  C_29
REMARK    2  A    between atoms: C_6  and  C_7
REMARK    3  A    between atoms: C_14  and  C_15
REMARK    4  A    between atoms: C_15  and  O_16
REMARK    5  A    between atoms: O_16  and  C_17
REMARK    6  A    between atoms: N_19  and  C_20
REMARK    7  A    between atoms: C_23  and  C_26
REMARK                            x       y       z     vdW  Elec       q    Type
REMARK                         _______ _______ _______ _____ _____    ______ ____
ROOT
ATOM      7  C   UNL     1      -7.987  -8.703   9.122  0.00  0.00    +0.056 C 
ATOM      8  C   UNL     1      -7.442  -8.872   8.592  0.00  0.00    +0.078 C 
ATOM      9  N   UNL     1      -7.438  -9.100   9.386  0.00  0.00    -0.270 NA
ATOM     10  C   UNL     1      -8.309  -8.713   9.823  0.00  0.00    +0.072 C 
ATOM     11  C   UNL     1      -8.697  -8.634  10.343  0.00  0.00    +0.018 C 
ATOM     12  C   UNL     1      -7.976  -8.930   9.899  0.00  0.00    +0.010 C 
ATOM     13  C   UNL     1      -7.401  -9.400  10.366  0.00  0.00    +0.020 C 
ATOM     14  C   UNL     1      -6.845  -9.588   9.878  0.00  0.00    +0.102 C 
ENDROOT
BRANCH   7   6
ATOM      1  C   UNL     1      -9.359  -9.291   8.124  0.00  0.00    +0.153 C 
ATOM      2  N   UNL     1      -9.262  -8.523   8.411  0.00  0.00    -0.253 N 
ATOM      3  N   UNL     1      -9.778  -7.891   8.290  0.00  0.00    -0.169 NA
ATOM      4  C   UNL     1      -9.467  -7.230   8.673  0.00  0.00    +0.108 A 
ATOM      5  C   UNL     1      -8.759  -7.454   9.031  0.00  0.00    +0.036 A 
ATOM      6  C   UNL     1      -8.632  -8.253   8.869  0.00  0.00    +0.058 A 
BRANCH   4  29
ATOM     29  C   UNL     1      -9.806  -6.478   8.694  0.00  0.00    +0.049 A 
ATOM     30  C   UNL     1      -9.431  -5.772   8.492  0.00  0.00    +0.009 A 
ATOM     31  C   UNL     1      -9.973  -5.158   8.594  0.00  0.00    +0.008 A 
ATOM     32  C   UNL     1     -10.681  -5.485   8.860  0.00  0.00    +0.035 A 
ATOM     33  S   UNL     1     -10.579  -6.301   8.922  0.00  0.00    -0.085 S 
ENDBRANCH   4  29
ENDBRANCH   7   6
BRANCH  14  15
ATOM     15  C   UNL     1      -6.129  -9.993   9.827  0.00  0.00    +0.226 C 
BRANCH  15  16
ATOM     16  O   UNL     1      -5.761 -10.270  10.512  0.00  0.00    -0.432 OA
BRANCH  16  17
ATOM     17  C   UNL     1      -4.939 -10.254  10.573  0.00  0.00    +0.425 C 
ATOM     18  O   UNL     1      -4.473 -10.543   9.956  0.00  0.00    -0.224 OA
ATOM     19  N   UNL     1      -4.582  -9.949  11.251  0.00  0.00    -0.142 NA
BRANCH  19  20
ATOM     20  C   UNL     1      -3.759  -9.932  11.313  0.00  0.00    +0.077 A 
ATOM     21  C   UNL     1      -3.374 -10.446  11.831  0.00  0.00    +0.017 A 
ATOM     22  C   UNL     1      -2.552 -10.430  11.893  0.00  0.00    +0.004 A 
ATOM     23  C   UNL     1      -2.115  -9.899  11.437  0.00  0.00    +0.035 A 
ATOM     24  C   UNL     1      -2.500  -9.386  10.919  0.00  0.00    +0.004 A 
ATOM     25  C   UNL     1      -3.321  -9.402  10.857  0.00  0.00    +0.017 A 
BRANCH  23  26
ATOM     26  C   UNL     1      -1.292  -9.883  11.499  0.00  0.00    +0.173 C 
ATOM     27  C   UNL     1      -0.855  -9.345  11.051  0.00  0.00    +0.077 C 
ATOM     28  O   UNL     1      -0.907 -10.405  12.009  0.00  0.00    -0.291 OA
ENDBRANCH  23  26
ENDBRANCH  19  20
ENDBRANCH  16  17
ENDBRANCH  15  16
ENDBRANCH  14  15
TORSDOF 7
ENDMDL
