MODEL 1
REMARK VINA RESULT:     -14.2      0.000      0.000
REMARK  Name = 
REMARK  2 active torsions:
REMARK  status: ('A' for Active; 'I' for Inactive)
REMARK    1  A    between atoms: C_4  and  C_8
REMARK    2  A    between atoms: C_22  and  C_27
REMARK                            x       y       z     vdW  Elec       q    Type
REMARK                         _______ _______ _______ _____ _____    ______ ____
ROOT
ATOM      8  C   UNL     1      -0.526   3.062  25.586  0.00  0.00    +0.249 C 
ATOM      9  O   UNL     1       0.210   3.046  25.959  0.00  0.00    -0.270 OA
ATOM     10  N   UNL     1      -0.929   2.358  25.439  0.00  0.00    -0.272 N 
ATOM     11  C   UNL     1      -0.597   1.637  25.665  0.00  0.00    +0.115 C 
ATOM     12  C   UNL     1      -1.000   0.932  25.518  0.00  0.00    +0.116 C 
ATOM     13  N   UNL     1      -1.736   0.948  25.145  0.00  0.00    -0.266 N 
ATOM     14  C   UNL     1      -2.068   1.669  24.919  0.00  0.00    +0.174 C 
ATOM     15  C   UNL     1      -1.665   2.373  25.066  0.00  0.00    +0.123 C 
ATOM     16  C   UNL     1      -2.790   1.807  24.543  0.00  0.00    +0.265 C 
ATOM     17  O   UNL     1      -2.967   2.597  24.389  0.00  0.00    -0.271 OA
ATOM     18  N   UNL     1      -3.357   1.259  24.301  0.00  0.00    -0.178 NA
ATOM     19  C   UNL     1      -3.342   0.437  24.374  0.00  0.00    +0.078 A 
ATOM     20  C   UNL     1      -4.023   0.094  24.058  0.00  0.00    +0.017 A 
ATOM     21  C   UNL     1      -4.119  -0.724  24.076  0.00  0.00    +0.002 A 
ATOM     22  C   UNL     1      -3.534  -1.201  24.410  0.00  0.00    +0.006 A 
ATOM     23  C   UNL     1      -2.853  -0.859  24.726  0.00  0.00    +0.006 A 
ATOM     24  C   UNL     1      -2.758  -0.039  24.708  0.00  0.00    +0.069 A 
ATOM     25  C   UNL     1      -2.043   0.189  25.051  0.00  0.00    +0.251 C 
ATOM     26  O   UNL     1      -1.572  -0.425  25.339  0.00  0.00    -0.270 OA
ENDROOT
BRANCH   8   4
ATOM      1  F   UNL     1      -2.394   5.176  26.039  0.00  0.00    -0.204 F 
ATOM      2  C   UNL     1      -1.793   4.839  25.587  0.00  0.00    +0.140 A 
ATOM      3  C   UNL     1      -1.460   4.119  25.812  0.00  0.00    +0.034 A 
ATOM      4  C   UNL     1      -0.858   3.783  25.359  0.00  0.00    +0.056 A 
ATOM      5  C   UNL     1      -0.588   4.167  24.681  0.00  0.00    +0.005 A 
ATOM      6  C   UNL     1      -0.920   4.887  24.455  0.00  0.00    +0.002 A 
ATOM      7  C   UNL     1      -1.522   5.223  24.908  0.00  0.00    +0.030 A 
ENDBRANCH   8   4
BRANCH  22  27
ATOM     27  C   UNL     1      -3.630  -2.020  24.427  0.00  0.00    +0.029 A 
ATOM     28  C   UNL     1      -3.433  -2.519  25.054  0.00  0.00    +0.007 A 
ATOM     29  C   UNL     1      -3.622  -3.292  24.835  0.00  0.00    +0.007 A 
ATOM     30  C   UNL     1      -3.936  -3.271  24.073  0.00  0.00    +0.035 A 
ATOM     31  S   UNL     1      -3.942  -2.485  23.821  0.00  0.00    -0.086 S 
ENDBRANCH  22  27
TORSDOF 2
ENDMDL
MODEL 2
REMARK VINA RESULT:     -13.9      2.311      5.702
REMARK  Name = 
REMARK  2 active torsions:
REMARK  status: ('A' for Active; 'I' for Inactive)
REMARK    1  A    between atoms: C_4  and  C_8
REMARK    2  A    between atoms: C_22  and  C_27
REMARK                            x       y       z     vdW  Elec       q    Type
REMARK                         _______ _______ _______ _____ _____    ______ ____
ROOT
ATOM      8  C   UNL     1      -4.002  -0.975  24.390  0.00  0.00    +0.249 C 
ATOM      9  O   UNL     1      -4.749  -1.038  24.045  0.00  0.00    -0.270 OA
ATOM     10  N   UNL     1      -3.647  -0.236  24.472  0.00  0.00    -0.272 N 
ATOM     11  C   UNL     1      -4.037   0.441  24.208  0.00  0.00    +0.115 C 
ATOM     12  C   UNL     1      -3.682   1.181  24.289  0.00  0.00    +0.116 C 
ATOM     13  N   UNL     1      -2.934   1.244  24.635  0.00  0.00    -0.266 N 
ATOM     14  C   UNL     1      -2.544   0.567  24.898  0.00  0.00    +0.174 C 
ATOM     15  C   UNL     1      -2.900  -0.173  24.817  0.00  0.00    +0.123 C 
ATOM     16  C   UNL     1      -1.803   0.507  25.256  0.00  0.00    +0.265 C 
ATOM     17  O   UNL     1      -1.564  -0.256  25.458  0.00  0.00    -0.271 OA
ATOM     18  N   UNL     1      -1.269   1.110  25.438  0.00  0.00    -0.178 NA
ATOM     19  C   UNL     1      -1.345   1.920  25.307  0.00  0.00    +0.078 A 
ATOM     20  C   UNL     1      -0.681   2.333  25.572  0.00  0.00    +0.017 A 
ATOM     21  C   UNL     1      -0.646   3.152  25.493  0.00  0.00    +0.002 A 
ATOM     22  C   UNL     1      -1.273   3.561  25.148  0.00  0.00    +0.006 A 
ATOM     23  C   UNL     1      -1.938   3.150  24.882  0.00  0.00    +0.006 A 
ATOM     24  C   UNL     1      -1.973   2.330  24.962  0.00  0.00    +0.069 A 
ATOM     25  C   UNL     1      -2.681   2.028  24.663  0.00  0.00    +0.251 C 
ATOM     26  O   UNL     1      -3.203   2.585  24.350  0.00  0.00    -0.270 OA
ENDROOT
BRANCH   8   4
ATOM      1  F   UNL     1      -2.249  -3.175  23.888  0.00  0.00    -0.204 F 
ATOM      2  C   UNL     1      -2.735  -2.753  24.402  0.00  0.00    +0.140 A 
ATOM      3  C   UNL     1      -3.125  -2.076  24.139  0.00  0.00    +0.034 A 
ATOM      4  C   UNL     1      -3.612  -1.653  24.654  0.00  0.00    +0.056 A 
ATOM      5  C   UNL     1      -3.708  -1.907  25.433  0.00  0.00    +0.005 A 
ATOM      6  C   UNL     1      -3.317  -2.584  25.697  0.00  0.00    +0.002 A 
ATOM      7  C   UNL     1      -2.831  -3.007  25.181  0.00  0.00    +0.030 A 
ENDBRANCH   8   4
BRANCH  22  27
ATOM     27  C   UNL     1      -1.237   4.382  25.069  0.00  0.00    +0.029 A 
ATOM     28  C   UNL     1      -1.791   4.922  25.355  0.00  0.00    +0.007 A 
ATOM     29  C   UNL     1      -1.536   5.680  25.153  0.00  0.00    +0.007 A 
ATOM     30  C   UNL     1      -0.826   5.609  24.741  0.00  0.00    +0.035 A 
ATOM     31  S   UNL     1      -0.640   4.806  24.689  0.00  0.00    -0.086 S 
ENDBRANCH  22  27
TORSDOF 2
ENDMDL
MODEL 3
REMARK VINA RESULT:     -12.5      1.168      2.032
REMARK  Name = 
REMARK  2 active torsions:
REMARK  status: ('A' for Active; 'I' for Inactive)
REMARK    1  A    between atoms: C_4  and  C_8
REMARK    2  A    between atoms: C_22  and  C_27
REMARK                            x       y       z     vdW  Elec       q    Type
REMARK                         _______ _______ _______ _____ _____    ______ ____
ROOT
ATOM      8  C   UNL     1      -3.215   3.862  24.567  0.00  0.00    +0.249 C 
ATOM      9  O   UNL     1      -3.850   4.316  24.302  0.00  0.00    -0.270 OA
ATOM     10  N   UNL     1      -3.260   3.038  24.548  0.00  0.00    -0.272 N 
ATOM     11  C   UNL     1      -3.941   2.669  24.264  0.00  0.00    +0.115 C 
ATOM     12  C   UNL     1      -3.987   1.846  24.244  0.00  0.00    +0.116 C 
ATOM     13  N   UNL     1      -3.351   1.391  24.510  0.00  0.00    -0.266 N 
ATOM     14  C   UNL     1      -2.670   1.761  24.793  0.00  0.00    +0.174 C 
ATOM     15  C   UNL     1      -2.625   2.584  24.813  0.00  0.00    +0.123 C 
ATOM     16  C   UNL     1      -1.979   1.413  25.081  0.00  0.00    +0.265 C 
ATOM     17  O   UNL     1      -1.391   1.937  25.327  0.00  0.00    -0.271 OA
ATOM     18  N   UNL     1      -1.798   0.612  25.156  0.00  0.00    -0.178 NA
ATOM     19  C   UNL     1      -2.264  -0.041  24.962  0.00  0.00    +0.078 A 
ATOM     20  C   UNL     1      -1.873  -0.749  25.124  0.00  0.00    +0.017 A 
ATOM     21  C   UNL     1      -2.244  -1.469  24.970  0.00  0.00    +0.002 A 
ATOM     22  C   UNL     1      -3.005  -1.482  24.652  0.00  0.00    +0.006 A 
ATOM     23  C   UNL     1      -3.397  -0.773  24.490  0.00  0.00    +0.006 A 
ATOM     24  C   UNL     1      -3.025  -0.053  24.645  0.00  0.00    +0.069 A 
ATOM     25  C   UNL     1      -3.509   0.585  24.443  0.00  0.00    +0.251 C 
ATOM     26  O   UNL     1      -4.249   0.389  24.135  0.00  0.00    -0.270 OA
ENDROOT
BRANCH   8   4
ATOM      1  F   UNL     1      -0.592   4.903  24.114  0.00  0.00    -0.204 F 
ATOM      2  C   UNL     1      -1.222   4.751  24.624  0.00  0.00    +0.140 A 
ATOM      3  C   UNL     1      -1.903   4.382  24.341  0.00  0.00    +0.034 A 
ATOM      4  C   UNL     1      -2.533   4.231  24.851  0.00  0.00    +0.056 A 
ATOM      5  C   UNL     1      -2.483   4.449  25.645  0.00  0.00    +0.005 A 
ATOM      6  C   UNL     1      -1.802   4.818  25.929  0.00  0.00    +0.002 A 
ATOM      7  C   UNL     1      -1.172   4.969  25.418  0.00  0.00    +0.030 A 
ENDBRANCH   8   4
BRANCH  22  27
ATOM     27  C   UNL     1      -3.376  -2.203  24.498  0.00  0.00    +0.029 A 
ATOM     28  C   UNL     1      -3.871  -2.366  23.859  0.00  0.00    +0.007 A 
ATOM     29  C   UNL     1      -4.117  -3.152  23.922  0.00  0.00    +0.007 A 
ATOM     30  C   UNL     1      -3.774  -3.473  24.599  0.00  0.00    +0.035 A 
ATOM     31  S   UNL     1      -3.316  -2.886  24.956  0.00  0.00    -0.086 S 
ENDBRANCH  22  27
TORSDOF 2
ENDMDL
MODEL 4
REMARK VINA RESULT:     -11.8      2.631      4.132
REMARK  Name = 
REMARK  2 active torsions:
REMARK  status: ('A' for Active; 'I' for Inactive)
REMARK    1  A    between atoms: C_4  and  C_8
REMARK    2  A    between atoms: C_22  and  C_27
REMARK                            x       y       z     vdW  Elec       q    Type
REMARK                         _______ _______ _______ _____ _____    ______ ____
ROOT
ATOM      8  C   UNL     1      -4.368   3.194  24.676  0.00  0.00    +0.249 C 
ATOM      9  O   UNL     1      -4.480   3.984  24.467  0.00  0.00    -0.270 OA
ATOM     10  N   UNL     1      -3.662   2.813  24.486  0.00  0.00    -0.272 N 
ATOM     11  C   UNL     1      -3.066   3.221  24.088  0.00  0.00    +0.115 C 
ATOM     12  C   UNL     1      -2.359   2.841  23.899  0.00  0.00    +0.116 C 
ATOM     13  N   UNL     1      -2.249   2.050  24.108  0.00  0.00    -0.266 N 
ATOM     14  C   UNL     1      -2.844   1.641  24.506  0.00  0.00    +0.174 C 
ATOM     15  C   UNL     1      -3.551   2.022  24.695  0.00  0.00    +0.123 C 
ATOM     16  C   UNL     1      -2.846   0.857  24.762  0.00  0.00    +0.265 C 
ATOM     17  O   UNL     1      -3.532   0.608  25.148  0.00  0.00    -0.271 OA
ATOM     18  N   UNL     1      -2.253   0.288  24.685  0.00  0.00    -0.178 NA
ATOM     19  C   UNL     1      -1.512   0.364  24.331  0.00  0.00    +0.078 A 
ATOM     20  C   UNL     1      -1.085  -0.342  24.372  0.00  0.00    +0.017 A 
ATOM     21  C   UNL     1      -0.328  -0.384  24.049  0.00  0.00    +0.002 A 
ATOM     22  C   UNL     1       0.004   0.277  23.686  0.00  0.00    +0.006 A 
ATOM     23  C   UNL     1      -0.422   0.983  23.644  0.00  0.00    +0.006 A 
ATOM     24  C   UNL     1      -1.180   1.025  23.967  0.00  0.00    +0.069 A 
ATOM     25  C   UNL     1      -1.508   1.776  23.868  0.00  0.00    +0.251 C 
ATOM     26  O   UNL     1      -1.033   2.326  23.477  0.00  0.00    -0.270 OA
ENDROOT
BRANCH   8   4
ATOM      1  F   UNL     1      -6.652   1.476  24.622  0.00  0.00    -0.204 F 
ATOM      2  C   UNL     1      -6.106   1.925  25.046  0.00  0.00    +0.140 A 
ATOM      3  C   UNL     1      -5.510   2.335  24.649  0.00  0.00    +0.034 A 
ATOM      4  C   UNL     1      -4.965   2.784  25.074  0.00  0.00    +0.056 A 
ATOM      5  C   UNL     1      -5.015   2.825  25.896  0.00  0.00    +0.005 A 
ATOM      6  C   UNL     1      -5.610   2.416  26.294  0.00  0.00    +0.002 A 
ATOM      7  C   UNL     1      -6.156   1.967  25.869  0.00  0.00    +0.030 A 
ENDBRANCH   8   4
BRANCH  22  27
ATOM     27  C   UNL     1       0.762   0.234  23.363  0.00  0.00    +0.029 A 
ATOM     28  C   UNL     1       1.418   0.671  23.605  0.00  0.00    +0.007 A 
ATOM     29  C   UNL     1       2.059   0.453  23.133  0.00  0.00    +0.007 A 
ATOM     30  C   UNL     1       1.799  -0.119  22.599  0.00  0.00    +0.035 A 
ATOM     31  S   UNL     1       0.997  -0.254  22.741  0.00  0.00    -0.086 S 
ENDBRANCH  22  27
TORSDOF 2
ENDMDL
MODEL 5
REMARK VINA RESULT:     -11.0      2.899      4.172
REMARK  Name = 
REMARK  2 active torsions:
REMARK  status: ('A' for Active; 'I' for Inactive)
REMARK    1  A    between atoms: C_4  and  C_8
REMARK    2  A    between atoms: C_22  and  C_27
REMARK                            x       y       z     vdW  Elec       q    Type
REMARK                         _______ _______ _______ _____ _____    ______ ____
ROOT
ATOM      8  C   UNL     1       0.063  -0.631  24.066  0.00  0.00    +0.249 C 
ATOM      9  O   UNL     1       0.231  -1.350  24.435  0.00  0.00    -0.270 OA
ATOM     10  N   UNL     1      -0.652  -0.249  24.213  0.00  0.00    -0.272 N 
ATOM     11  C   UNL     1      -1.201  -0.585  24.729  0.00  0.00    +0.115 C 
ATOM     12  C   UNL     1      -1.917  -0.203  24.877  0.00  0.00    +0.116 C 
ATOM     13  N   UNL     1      -2.085   0.516  24.508  0.00  0.00    -0.266 N 
ATOM     14  C   UNL     1      -1.536   0.851  23.991  0.00  0.00    +0.174 C 
ATOM     15  C   UNL     1      -0.820   0.469  23.844  0.00  0.00    +0.123 C 
ATOM     16  C   UNL     1      -1.594   1.558  23.569  0.00  0.00    +0.265 C 
ATOM     17  O   UNL     1      -0.946   1.745  23.094  0.00  0.00    -0.271 OA
ATOM     18  N   UNL     1      -2.213   2.103  23.559  0.00  0.00    -0.178 NA
ATOM     19  C   UNL     1      -2.929   2.075  23.969  0.00  0.00    +0.078 A 
ATOM     20  C   UNL     1      -3.397   2.735  23.803  0.00  0.00    +0.017 A 
ATOM     21  C   UNL     1      -4.137   2.814  24.157  0.00  0.00    +0.002 A 
ATOM     22  C   UNL     1      -4.410   2.236  24.678  0.00  0.00    +0.006 A 
ATOM     23  C   UNL     1      -3.942   1.576  24.845  0.00  0.00    +0.006 A 
ATOM     24  C   UNL     1      -3.202   1.497  24.490  0.00  0.00    +0.069 A 
ATOM     25  C   UNL     1      -2.826   0.803  24.730  0.00  0.00    +0.251 C 
ATOM     26  O   UNL     1      -3.247   0.333  25.262  0.00  0.00    -0.270 OA
ENDROOT
BRANCH   8   4
ATOM      1  F   UNL     1       1.190  -0.418  21.448  0.00  0.00    -0.204 F 
ATOM      2  C   UNL     1       1.175  -0.189  22.240  0.00  0.00    +0.140 A 
ATOM      3  C   UNL     1       0.627  -0.525  22.757  0.00  0.00    +0.034 A 
ATOM      4  C   UNL     1       0.612  -0.295  23.549  0.00  0.00    +0.056 A 
ATOM      5  C   UNL     1       1.146   0.271  23.824  0.00  0.00    +0.005 A 
ATOM      6  C   UNL     1       1.694   0.607  23.308  0.00  0.00    +0.002 A 
ATOM      7  C   UNL     1       1.709   0.377  22.516  0.00  0.00    +0.030 A 
ENDBRANCH   8   4
BRANCH  22  27
ATOM     27  C   UNL     1      -5.151   2.316  25.032  0.00  0.00    +0.029 A 
ATOM     28  C   UNL     1      -5.820   1.865  24.865  0.00  0.00    +0.007 A 
ATOM     29  C   UNL     1      -6.435   2.133  25.346  0.00  0.00    +0.007 A 
ATOM     30  C   UNL     1      -6.145   2.749  25.811  0.00  0.00    +0.035 A 
ATOM     31  S   UNL     1      -5.351   2.863  25.617  0.00  0.00    -0.086 S 
ENDBRANCH  22  27
TORSDOF 2
ENDMDL
