MODEL 1
REMARK VINA RESULT:     -12.0      0.000      0.000
REMARK  Name = 
REMARK  7 active torsions:
REMARK  status: ('A' for Active; 'I' for Inactive)
REMARK    1  A    between atoms: C_2  and  C_3
REMARK    2  A    between atoms: C_2  and  C_25
REMARK    3  A    between atoms: C_10  and  N_11
REMARK    4  A    between atoms: C_12  and  C_14
REMARK    5  A    between atoms: N_27  and  C_28
REMARK    6  A    between atoms: C_28  and  C_29
REMARK    7  A    between atoms: C_29  and  N_30
REMARK                            x       y       z     vdW  Elec       q    Type
REMARK                         _______ _______ _______ _____ _____    ______ ____
ROOT
ATOM      3  C   UNL     1      -4.060   3.239  24.747  0.00  0.00    +0.039 C 
ATOM      4  C   UNL     1      -4.707   3.333  25.250  0.00  0.00    +0.003 C 
ATOM      5  C   UNL     1      -5.153   2.677  25.477  0.00  0.00    +0.000 C 
ATOM      6  C   UNL     1      -4.951   1.927  25.201  0.00  0.00    +0.002 C 
ATOM      7  C   UNL     1      -5.598   2.021  25.703  0.00  0.00    +0.000 C 
ATOM      8  C   UNL     1      -5.397   1.270  25.427  0.00  0.00    +0.002 C 
ATOM      9  C   UNL     1      -5.196   0.519  25.151  0.00  0.00    +0.022 C 
ATOM     10  C   UNL     1      -4.548   0.424  24.647  0.00  0.00    +0.096 C 
ATOM     20  C   UNL     1      -4.103   1.081  24.421  0.00  0.00    +0.022 C 
ATOM     21  C   UNL     1      -3.456   0.987  23.918  0.00  0.00    +0.002 C 
ATOM     22  C   UNL     1      -4.304   1.832  24.697  0.00  0.00    +0.032 C 
ATOM     23  C   UNL     1      -3.858   2.488  24.471  0.00  0.00    +0.152 C 
ATOM     24  O   UNL     1      -3.211   2.394  23.968  0.00  0.00    -0.223 OA
ENDROOT
BRANCH  10  11
ATOM     11  N   UNL     1      -4.347  -0.326  24.371  0.00  0.00    -0.202 NA
ATOM     12  C   UNL     1      -4.126  -0.916  24.903  0.00  0.00    +0.284 C 
ATOM     13  O   UNL     1      -4.107  -0.755  25.713  0.00  0.00    -0.267 OA
BRANCH  12  14
ATOM     14  C   UNL     1      -3.925  -1.667  24.627  0.00  0.00    +0.155 A 
ATOM     15  C   UNL     1      -3.333  -2.100  25.003  0.00  0.00    +0.123 A 
ATOM     16  N   UNL     1      -3.131  -2.851  24.728  0.00  0.00    -0.239 NA
ATOM     17  C   UNL     1      -3.523  -3.169  24.075  0.00  0.00    +0.120 A 
ATOM     18  C   UNL     1      -4.116  -2.735  23.698  0.00  0.00    +0.120 A 
ATOM     19  N   UNL     1      -4.317  -1.985  23.974  0.00  0.00    -0.236 NA
ENDBRANCH  12  14
ENDBRANCH  10  11
BRANCH   3   2
ATOM      1  C   UNL     1      -3.800   4.299  23.825  0.00  0.00    +0.010 C 
ATOM      2  C   UNL     1      -3.614   3.895  24.520  0.00  0.00    +0.081 C 
BRANCH   2  25
ATOM     25  C   UNL     1      -2.984   4.148  24.988  0.00  0.00    +0.241 C 
ATOM     26  O   UNL     1      -3.130   4.565  25.686  0.00  0.00    -0.273 OA
ATOM     27  N   UNL     1      -2.208   3.986  24.760  0.00  0.00    -0.204 NA
BRANCH  27  28
ATOM     28  C   UNL     1      -1.578   4.239  25.228  0.00  0.00    +0.132 C 
BRANCH  28  29
ATOM     29  C   UNL     1      -0.802   4.136  24.967  0.00  0.00    +0.096 C 
BRANCH  29  30
ATOM     30  N   UNL     1      -0.389   3.449  25.160  0.00  0.00    -0.267 NA
ATOM     31  C   UNL     1      -0.280   3.241  25.951  0.00  0.00    +0.105 C 
ATOM     32  C   UNL     1       0.133   2.554  26.144  0.00  0.00    +0.159 C 
ATOM     33  O   UNL     1       0.438   2.074  25.546  0.00  0.00    -0.351 OA
ATOM     34  C   UNL     1       0.329   2.281  24.755  0.00  0.00    +0.159 C 
ATOM     35  C   UNL     1      -0.084   2.969  24.561  0.00  0.00    +0.105 C 
ENDBRANCH  29  30
ENDBRANCH  28  29
ENDBRANCH  27  28
ENDBRANCH   2  25
ENDBRANCH   3   2
TORSDOF 7
ENDMDL
MODEL 2
REMARK VINA RESULT:     -11.9      2.593      4.709
REMARK  Name = 
REMARK  7 active torsions:
REMARK  status: ('A' for Active; 'I' for Inactive)
REMARK    1  A    between atoms: C_2  and  C_3
REMARK    2  A    between atoms: C_2  and  C_25
REMARK    3  A    between atoms: C_10  and  N_11
REMARK    4  A    between atoms: C_12  and  C_14
REMARK    5  A    between atoms: N_27  and  C_28
REMARK    6  A    between atoms: C_28  and  C_29
REMARK    7  A    between atoms: C_29  and  N_30
REMARK                            x       y       z     vdW  Elec       q    Type
REMARK                         _______ _______ _______ _____ _____    ______ ____
ROOT
ATOM      3  C   UNL     1      -1.802  -1.134  24.779  0.00  0.00    +0.039 C 
ATOM      4  C   UNL     1      -2.317  -1.699  24.466  0.00  0.00    +0.003 C 
ATOM      5  C   UNL     1      -3.122  -1.531  24.400  0.00  0.00    +0.000 C 
ATOM      6  C   UNL     1      -3.412  -0.799  24.645  0.00  0.00    +0.002 C 
ATOM      7  C   UNL     1      -3.926  -1.363  24.333  0.00  0.00    +0.000 C 
ATOM      8  C   UNL     1      -4.217  -0.631  24.578  0.00  0.00    +0.002 C 
ATOM      9  C   UNL     1      -4.508   0.101  24.824  0.00  0.00    +0.022 C 
ATOM     10  C   UNL     1      -3.993   0.666  25.137  0.00  0.00    +0.096 C 
ATOM     20  C   UNL     1      -3.188   0.497  25.204  0.00  0.00    +0.022 C 
ATOM     21  C   UNL     1      -2.673   1.061  25.517  0.00  0.00    +0.002 C 
ATOM     22  C   UNL     1      -2.897  -0.235  24.958  0.00  0.00    +0.032 C 
ATOM     23  C   UNL     1      -2.093  -0.403  25.025  0.00  0.00    +0.152 C 
ATOM     24  O   UNL     1      -1.578   0.161  25.338  0.00  0.00    -0.223 OA
ENDROOT
BRANCH  10  11
ATOM     11  N   UNL     1      -4.283   1.397  25.383  0.00  0.00    -0.202 NA
ATOM     12  C   UNL     1      -4.840   1.796  24.923  0.00  0.00    +0.284 C 
ATOM     13  O   UNL     1      -5.107   1.461  24.217  0.00  0.00    -0.267 OA
BRANCH  12  14
ATOM     14  C   UNL     1      -5.131   2.528  25.169  0.00  0.00    +0.155 A 
ATOM     15  C   UNL     1      -5.804   2.567  25.643  0.00  0.00    +0.123 A 
ATOM     16  N   UNL     1      -6.095   3.299  25.889  0.00  0.00    -0.239 NA
ATOM     17  C   UNL     1      -5.712   3.992  25.659  0.00  0.00    +0.120 A 
ATOM     18  C   UNL     1      -5.038   3.954  25.184  0.00  0.00    +0.120 A 
ATOM     19  N   UNL     1      -4.748   3.221  24.939  0.00  0.00    -0.236 NA
ENDBRANCH  12  14
ENDBRANCH  10  11
BRANCH   3   2
ATOM      1  C   UNL     1      -0.679  -1.511  25.579  0.00  0.00    +0.010 C 
ATOM      2  C   UNL     1      -0.997  -1.303  24.846  0.00  0.00    +0.081 C 
BRANCH   2  25
ATOM     25  C   UNL     1      -0.511  -1.264  24.182  0.00  0.00    +0.241 C 
ATOM     26  O   UNL     1      -0.567  -1.842  23.595  0.00  0.00    -0.273 OA
ATOM     27  N   UNL     1       0.033  -0.648  24.103  0.00  0.00    -0.204 NA
BRANCH  27  28
ATOM     28  C   UNL     1       0.519  -0.609  23.438  0.00  0.00    +0.132 C 
BRANCH  28  29
ATOM     29  C   UNL     1       0.834   0.115  23.198  0.00  0.00    +0.096 C 
BRANCH  29  30
ATOM     30  N   UNL     1       1.566   0.141  22.820  0.00  0.00    -0.267 NA
ATOM     31  C   UNL     1       1.664  -0.218  22.083  0.00  0.00    +0.105 C 
ATOM     32  C   UNL     1       2.396  -0.191  21.705  0.00  0.00    +0.159 C 
ATOM     33  O   UNL     1       3.031   0.196  22.063  0.00  0.00    -0.351 OA
ATOM     34  C   UNL     1       2.934   0.555  22.798  0.00  0.00    +0.159 C 
ATOM     35  C   UNL     1       2.202   0.529  23.177  0.00  0.00    +0.105 C 
ENDBRANCH  29  30
ENDBRANCH  28  29
ENDBRANCH  27  28
ENDBRANCH   2  25
ENDBRANCH   3   2
TORSDOF 7
ENDMDL
MODEL 3
REMARK VINA RESULT:     -11.2      3.271      4.979
REMARK  Name = 
REMARK  7 active torsions:
REMARK  status: ('A' for Active; 'I' for Inactive)
REMARK    1  A    between atoms: C_2  and  C_3
REMARK    2  A    between atoms: C_2  and  C_25
REMARK    3  A    between atoms: C_10  and  N_11
REMARK    4  A    between atoms: C_12  and  C_14
REMARK    5  A    between atoms: N_27  and  C_28
REMARK    6  A    between atoms: C_28  and  C_29
REMARK    7  A    between atoms: C_29  and  N_30
REMARK                            x       y       z     vdW  Elec       q    Type
REMARK                         _______ _______ _______ _____ _____    ______ ____
ROOT
ATOM      3  C   UNL     1       0.036  -0.050  23.598  0.00  0.00    +0.039 C 
ATOM      4  C   UNL     1       0.114  -0.655  24.155  0.00  0.00    +0.003 C 
ATOM      5  C   UNL     1      -0.452  -0.744  24.747  0.00  0.00    +0.000 C 
ATOM      6  C   UNL     1      -1.095  -0.230  24.784  0.00  0.00    +0.002 C 
ATOM      7  C   UNL     1      -1.017  -0.834  25.340  0.00  0.00    +0.000 C 
ATOM      8  C   UNL     1      -1.662  -0.320  25.378  0.00  0.00    +0.002 C 
ATOM      9  C   UNL     1      -2.306   0.194  25.415  0.00  0.00    +0.022 C 
ATOM     10  C   UNL     1      -2.384   0.799  24.858  0.00  0.00    +0.096 C 
ATOM     20  C   UNL     1      -1.817   0.888  24.265  0.00  0.00    +0.022 C 
ATOM     21  C   UNL     1      -1.895   1.493  23.708  0.00  0.00    +0.002 C 
ATOM     22  C   UNL     1      -1.173   0.374  24.227  0.00  0.00    +0.032 C 
ATOM     23  C   UNL     1      -0.607   0.464  23.635  0.00  0.00    +0.152 C 
ATOM     24  O   UNL     1      -0.685   1.068  23.078  0.00  0.00    -0.223 OA
ENDROOT
BRANCH  10  11
ATOM     11  N   UNL     1      -3.028   1.313  24.895  0.00  0.00    -0.202 NA
ATOM     12  C   UNL     1      -3.778   1.022  25.074  0.00  0.00    +0.284 C 
ATOM     13  O   UNL     1      -3.885   0.216  25.217  0.00  0.00    -0.267 OA
BRANCH  12  14
ATOM     14  C   UNL     1      -4.422   1.536  25.111  0.00  0.00    +0.155 A 
ATOM     15  C   UNL     1      -5.158   1.298  24.825  0.00  0.00    +0.123 A 
ATOM     16  N   UNL     1      -5.802   1.812  24.862  0.00  0.00    -0.239 NA
ATOM     17  C   UNL     1      -5.710   2.565  25.186  0.00  0.00    +0.120 A 
ATOM     18  C   UNL     1      -4.974   2.804  25.473  0.00  0.00    +0.120 A 
ATOM     19  N   UNL     1      -4.330   2.289  25.436  0.00  0.00    -0.236 NA
ENDBRANCH  12  14
ENDBRANCH  10  11
BRANCH   3   2
ATOM      1  C   UNL     1       0.422  -0.169  22.227  0.00  0.00    +0.010 C 
ATOM      2  C   UNL     1       0.603   0.039  23.004  0.00  0.00    +0.081 C 
BRANCH   2  25
ATOM     25  C   UNL     1       1.350   0.336  23.188  0.00  0.00    +0.241 C 
ATOM     26  O   UNL     1       1.421   1.016  23.651  0.00  0.00    -0.273 OA
ATOM     27  N   UNL     1       2.026  -0.045  22.909  0.00  0.00    -0.204 NA
BRANCH  27  28
ATOM     28  C   UNL     1       2.773   0.252  23.092  0.00  0.00    +0.132 C 
BRANCH  28  29
ATOM     29  C   UNL     1       3.444  -0.063  22.729  0.00  0.00    +0.096 C 
BRANCH  29  30
ATOM     30  N   UNL     1       4.163  -0.077  23.131  0.00  0.00    -0.267 NA
ATOM     31  C   UNL     1       4.379  -0.742  23.569  0.00  0.00    +0.105 C 
ATOM     32  C   UNL     1       5.098  -0.756  23.971  0.00  0.00    +0.159 C 
ATOM     33  O   UNL     1       5.604  -0.104  23.935  0.00  0.00    -0.351 OA
ATOM     34  C   UNL     1       5.389   0.561  23.498  0.00  0.00    +0.159 C 
ATOM     35  C   UNL     1       4.669   0.575  23.095  0.00  0.00    +0.105 C 
ENDBRANCH  29  30
ENDBRANCH  28  29
ENDBRANCH  27  28
ENDBRANCH   2  25
ENDBRANCH   3   2
TORSDOF 7
ENDMDL
MODEL 4
REMARK VINA RESULT:     -10.7      2.429      4.748
REMARK  Name = 
REMARK  7 active torsions:
REMARK  status: ('A' for Active; 'I' for Inactive)
REMARK    1  A    between atoms: C_2  and  C_3
REMARK    2  A    between atoms: C_2  and  C_25
REMARK    3  A    between atoms: C_10  and  N_11
REMARK    4  A    between atoms: C_12  and  C_14
REMARK    5  A    between atoms: N_27  and  C_28
REMARK    6  A    between atoms: C_28  and  C_29
REMARK    7  A    between atoms: C_29  and  N_30
REMARK                            x       y       z     vdW  Elec       q    Type
REMARK                         _______ _______ _______ _____ _____    ______ ____
ROOT
ATOM      3  C   UNL     1      -1.533   3.751  25.533  0.00  0.00    +0.039 C 
ATOM      4  C   UNL     1      -1.348   3.502  26.298  0.00  0.00    +0.003 C 
ATOM      5  C   UNL     1      -0.791   2.905  26.413  0.00  0.00    +0.000 C 
ATOM      6  C   UNL     1      -0.419   2.557  25.764  0.00  0.00    +0.002 C 
ATOM      7  C   UNL     1      -0.234   2.308  26.528  0.00  0.00    +0.000 C 
ATOM      8  C   UNL     1       0.138   1.959  25.879  0.00  0.00    +0.002 C 
ATOM      9  C   UNL     1       0.510   1.610  25.230  0.00  0.00    +0.022 C 
ATOM     10  C   UNL     1       0.324   1.860  24.465  0.00  0.00    +0.096 C 
ATOM     20  C   UNL     1      -0.233   2.457  24.350  0.00  0.00    +0.022 C 
ATOM     21  C   UNL     1      -0.419   2.707  23.586  0.00  0.00    +0.002 C 
ATOM     22  C   UNL     1      -0.605   2.806  24.999  0.00  0.00    +0.032 C 
ATOM     23  C   UNL     1      -1.162   3.403  24.884  0.00  0.00    +0.152 C 
ATOM     24  O   UNL     1      -1.347   3.652  24.120  0.00  0.00    -0.223 OA
ENDROOT
BRANCH  10  11
ATOM     11  N   UNL     1       0.696   1.512  23.817  0.00  0.00    -0.202 NA
ATOM     12  C   UNL     1       0.742   0.691  23.760  0.00  0.00    +0.284 C 
ATOM     13  O   UNL     1       0.417   0.217  24.352  0.00  0.00    -0.267 OA
BRANCH  12  14
ATOM     14  C   UNL     1       1.114   0.342  23.111  0.00  0.00    +0.155 A 
ATOM     15  C   UNL     1       0.675  -0.105  22.574  0.00  0.00    +0.123 A 
ATOM     16  N   UNL     1       1.047  -0.453  21.925  0.00  0.00    -0.239 NA
ATOM     17  C   UNL     1       1.859  -0.355  21.814  0.00  0.00    +0.120 A 
ATOM     18  C   UNL     1       2.298   0.092  22.351  0.00  0.00    +0.120 A 
ATOM     19  N   UNL     1       1.926   0.440  22.999  0.00  0.00    -0.236 NA
ENDBRANCH  12  14
ENDBRANCH  10  11
BRANCH   3   2
ATOM      1  C   UNL     1      -1.870   5.052  25.047  0.00  0.00    +0.010 C 
ATOM      2  C   UNL     1      -2.091   4.349  25.418  0.00  0.00    +0.081 C 
BRANCH   2  25
ATOM     25  C   UNL     1      -2.867   4.244  25.674  0.00  0.00    +0.241 C 
ATOM     26  O   UNL     1      -3.091   4.496  26.428  0.00  0.00    -0.273 OA
ATOM     27  N   UNL     1      -3.421   3.887  25.177  0.00  0.00    -0.204 NA
BRANCH  27  28
ATOM     28  C   UNL     1      -4.198   3.782  25.432  0.00  0.00    +0.132 C 
BRANCH  28  29
ATOM     29  C   UNL     1      -4.767   3.484  24.914  0.00  0.00    +0.096 C 
BRANCH  29  30
ATOM     30  N   UNL     1      -5.229   2.838  25.136  0.00  0.00    -0.267 NA
ATOM     31  C   UNL     1      -5.167   2.125  24.724  0.00  0.00    +0.105 C 
ATOM     32  C   UNL     1      -5.630   1.479  24.946  0.00  0.00    +0.159 C 
ATOM     33  O   UNL     1      -6.155   1.546  25.580  0.00  0.00    -0.351 OA
ATOM     34  C   UNL     1      -6.217   2.258  25.991  0.00  0.00    +0.159 C 
ATOM     35  C   UNL     1      -5.754   2.904  25.770  0.00  0.00    +0.105 C 
ENDBRANCH  29  30
ENDBRANCH  28  29
ENDBRANCH  27  28
ENDBRANCH   2  25
ENDBRANCH   3   2
TORSDOF 7
ENDMDL
MODEL 5
REMARK VINA RESULT:     -10.4      1.461      4.936
REMARK  Name = 
REMARK  7 active torsions:
REMARK  status: ('A' for Active; 'I' for Inactive)
REMARK    1  A    between atoms: C_2  and  C_3
REMARK    2  A    between atoms: C_2  and  C_25
REMARK    3  A    between atoms: C_10  and  N_11
REMARK    4  A    between atoms: C_12  and  C_14
REMARK    5  A    between atoms: N_27  and  C_28
REMARK    6  A    between atoms: C_28  and  C_29
REMARK    7  A    between atoms: C_29  and  N_30
REMARK                            x       y       z     vdW  Elec       q    Type
REMARK                         _______ _______ _______ _____ _____    ______ ____
ROOT
ATOM      3  C   UNL     1      -4.429   0.303  24.635  0.00  0.00    +0.039 C 
ATOM      4  C   UNL     1      -5.103   0.505  25.068  0.00  0.00    +0.003 C 
ATOM      5  C   UNL     1      -5.203   1.276  25.341  0.00  0.00    +0.000 C 
ATOM      6  C   UNL     1      -4.630   1.847  25.181  0.00  0.00    +0.002 C 
ATOM      7  C   UNL     1      -5.302   2.048  25.613  0.00  0.00    +0.000 C 
ATOM      8  C   UNL     1      -4.729   2.620  25.454  0.00  0.00    +0.002 C 
ATOM      9  C   UNL     1      -4.155   3.191  25.295  0.00  0.00    +0.022 C 
ATOM     10  C   UNL     1      -3.481   2.990  24.862  0.00  0.00    +0.096 C 
ATOM     20  C   UNL     1      -3.382   2.218  24.589  0.00  0.00    +0.022 C 
ATOM     21  C   UNL     1      -2.709   2.017  24.157  0.00  0.00    +0.002 C 
ATOM     22  C   UNL     1      -3.956   1.646  24.748  0.00  0.00    +0.032 C 
ATOM     23  C   UNL     1      -3.856   0.874  24.476  0.00  0.00    +0.152 C 
ATOM     24  O   UNL     1      -3.183   0.673  24.043  0.00  0.00    -0.223 OA
ENDROOT
BRANCH  10  11
ATOM     11  N   UNL     1      -2.908   3.561  24.702  0.00  0.00    -0.202 NA
ATOM     12  C   UNL     1      -2.511   3.931  25.323  0.00  0.00    +0.284 C 
ATOM     13  O   UNL     1      -2.687   3.729  26.104  0.00  0.00    -0.267 OA
BRANCH  12  14
ATOM     14  C   UNL     1      -1.937   4.502  25.164  0.00  0.00    +0.155 A 
ATOM     15  C   UNL     1      -2.137   5.302  25.175  0.00  0.00    +0.123 A 
ATOM     16  N   UNL     1      -1.563   5.873  25.016  0.00  0.00    -0.239 NA
ATOM     17  C   UNL     1      -0.789   5.644  24.845  0.00  0.00    +0.120 A 
ATOM     18  C   UNL     1      -0.589   4.843  24.834  0.00  0.00    +0.120 A 
ATOM     19  N   UNL     1      -1.163   4.273  24.993  0.00  0.00    -0.236 NA
ENDBRANCH  12  14
ENDBRANCH  10  11
BRANCH   3   2
ATOM      1  C   UNL     1      -4.693  -0.708  23.661  0.00  0.00    +0.010 C 
ATOM      2  C   UNL     1      -4.330  -0.469  24.363  0.00  0.00    +0.081 C 
BRANCH   2  25
ATOM     25  C   UNL     1      -3.869  -1.002  24.790  0.00  0.00    +0.241 C 
ATOM     26  O   UNL     1      -4.034  -1.144  25.587  0.00  0.00    -0.273 OA
ATOM     27  N   UNL     1      -3.243  -1.394  24.423  0.00  0.00    -0.204 NA
BRANCH  27  28
ATOM     28  C   UNL     1      -2.782  -1.927  24.851  0.00  0.00    +0.132 C 
BRANCH  28  29
ATOM     29  C   UNL     1      -2.130  -2.288  24.496  0.00  0.00    +0.096 C 
BRANCH  29  30
ATOM     30  N   UNL     1      -1.368  -2.020  24.664  0.00  0.00    -0.267 NA
ATOM     31  C   UNL     1      -0.955  -1.572  24.107  0.00  0.00    +0.105 C 
ATOM     32  C   UNL     1      -0.194  -1.305  24.275  0.00  0.00    +0.159 C 
ATOM     33  O   UNL     1       0.157  -1.486  25.000  0.00  0.00    -0.351 OA
ATOM     34  C   UNL     1      -0.255  -1.934  25.557  0.00  0.00    +0.159 C 
ATOM     35  C   UNL     1      -1.017  -2.202  25.389  0.00  0.00    +0.105 C 
ENDBRANCH  29  30
ENDBRANCH  28  29
ENDBRANCH  27  28
ENDBRANCH   2  25
ENDBRANCH   3   2
TORSDOF 7
ENDMDL
MODEL 6
REMARK VINA RESULT:     -10.3      2.430      5.060
REMARK  Name = 
REMARK  7 active torsions:
REMARK  status: ('A' for Active; 'I' for Inactive)
REMARK    1  A    between atoms: C_2  and  C_3
REMARK    2  A    between atoms: C_2  and  C_25
REMARK    3  A    between atoms: C_10  and  N_11
REMARK    4  A    between atoms: C_12  and  C_14
REMARK    5  A    between atoms: N_27  and  C_28
REMARK    6  A    between atoms: C_28  and  C_29
REMARK    7  A    between atoms: C_29  and  N_30
REMARK                            x       y       z     vdW  Elec       q    Type
REMARK                         _______ _______ _______ _____ _____    ______ ____
ROOT
ATOM      3  C   UNL     1      -3.207  -0.684  24.698  0.00  0.00    +0.039 C 
ATOM      4  C   UNL     1      -3.041  -1.248  25.278  0.00  0.00    +0.003 C 
ATOM      5  C   UNL     1      -2.259  -1.440  25.454  0.00  0.00    +0.000 C 
ATOM      6  C   UNL     1      -1.642  -1.069  25.051  0.00  0.00    +0.002 C 
ATOM      7  C   UNL     1      -1.476  -1.632  25.630  0.00  0.00    +0.000 C 
ATOM      8  C   UNL     1      -0.859  -1.260  25.227  0.00  0.00    +0.002 C 
ATOM      9  C   UNL     1      -0.242  -0.889  24.825  0.00  0.00    +0.022 C 
ATOM     10  C   UNL     1      -0.408  -0.325  24.245  0.00  0.00    +0.096 C 
ATOM     20  C   UNL     1      -1.191  -0.133  24.069  0.00  0.00    +0.022 C 
ATOM     21  C   UNL     1      -1.357   0.430  23.490  0.00  0.00    +0.002 C 
ATOM     22  C   UNL     1      -1.809  -0.504  24.472  0.00  0.00    +0.032 C 
ATOM     23  C   UNL     1      -2.591  -0.313  24.296  0.00  0.00    +0.152 C 
ATOM     24  O   UNL     1      -2.757   0.251  23.716  0.00  0.00    -0.223 OA
ENDROOT
BRANCH  10  11
ATOM     11  N   UNL     1       0.208   0.046  23.842  0.00  0.00    -0.202 NA
ATOM     12  C   UNL     1       0.859  -0.393  23.589  0.00  0.00    +0.284 C 
ATOM     13  O   UNL     1       0.893  -1.204  23.738  0.00  0.00    -0.267 OA
BRANCH  12  14
ATOM     14  C   UNL     1       1.476  -0.022  23.186  0.00  0.00    +0.155 A 
ATOM     15  C   UNL     1       1.747  -0.330  22.471  0.00  0.00    +0.123 A 
ATOM     16  N   UNL     1       2.364   0.041  22.068  0.00  0.00    -0.239 NA
ATOM     17  C   UNL     1       2.710   0.721  22.381  0.00  0.00    +0.120 A 
ATOM     18  C   UNL     1       2.439   1.031  23.097  0.00  0.00    +0.120 A 
ATOM     19  N   UNL     1       1.822   0.659  23.499  0.00  0.00    -0.236 NA
ENDBRANCH  12  14
ENDBRANCH  10  11
BRANCH   3   2
ATOM      1  C   UNL     1      -4.374  -0.863  23.893  0.00  0.00    +0.010 C 
ATOM      2  C   UNL     1      -3.990  -0.492  24.522  0.00  0.00    +0.081 C 
BRANCH   2  25
ATOM     25  C   UNL     1      -4.389   0.070  24.975  0.00  0.00    +0.241 C 
ATOM     26  O   UNL     1      -4.535  -0.072  25.775  0.00  0.00    -0.273 OA
ATOM     27  N   UNL     1      -4.644   0.775  24.628  0.00  0.00    -0.204 NA
BRANCH  27  28
ATOM     28  C   UNL     1      -5.043   1.336  25.081  0.00  0.00    +0.132 C 
BRANCH  28  29
ATOM     29  C   UNL     1      -5.361   2.007  24.720  0.00  0.00    +0.096 C 
BRANCH  29  30
ATOM     30  N   UNL     1      -5.164   2.758  24.998  0.00  0.00    -0.267 NA
ATOM     31  C   UNL     1      -4.496   3.145  24.708  0.00  0.00    +0.105 C 
ATOM     32  C   UNL     1      -4.299   3.895  24.986  0.00  0.00    +0.159 C 
ATOM     33  O   UNL     1      -4.772   4.261  25.556  0.00  0.00    -0.351 OA
ATOM     34  C   UNL     1      -5.440   3.875  25.847  0.00  0.00    +0.159 C 
ATOM     35  C   UNL     1      -5.637   3.124  25.569  0.00  0.00    +0.105 C 
ENDBRANCH  29  30
ENDBRANCH  28  29
ENDBRANCH  27  28
ENDBRANCH   2  25
ENDBRANCH   3   2
TORSDOF 7
ENDMDL
MODEL 7
REMARK VINA RESULT:      -9.9      2.456      4.214
REMARK  Name = 
REMARK  7 active torsions:
REMARK  status: ('A' for Active; 'I' for Inactive)
REMARK    1  A    between atoms: C_2  and  C_3
REMARK    2  A    between atoms: C_2  and  C_25
REMARK    3  A    between atoms: C_10  and  N_11
REMARK    4  A    between atoms: C_12  and  C_14
REMARK    5  A    between atoms: N_27  and  C_28
REMARK    6  A    between atoms: C_28  and  C_29
REMARK    7  A    between atoms: C_29  and  N_30
REMARK                            x       y       z     vdW  Elec       q    Type
REMARK                         _______ _______ _______ _____ _____    ______ ____
ROOT
ATOM      3  C   UNL     1      -0.569   2.946  25.268  0.00  0.00    +0.039 C 
ATOM      4  C   UNL     1      -0.548   3.772  25.244  0.00  0.00    +0.003 C 
ATOM      5  C   UNL     1      -1.249   4.201  25.182  0.00  0.00    +0.000 C 
ATOM      6  C   UNL     1      -1.972   3.806  25.144  0.00  0.00    +0.002 C 
ATOM      7  C   UNL     1      -1.950   4.629  25.120  0.00  0.00    +0.000 C 
ATOM      8  C   UNL     1      -2.674   4.235  25.082  0.00  0.00    +0.002 C 
ATOM      9  C   UNL     1      -3.398   3.840  25.044  0.00  0.00    +0.022 C 
ATOM     10  C   UNL     1      -3.419   3.015  25.068  0.00  0.00    +0.096 C 
ATOM     20  C   UNL     1      -2.717   2.586  25.130  0.00  0.00    +0.022 C 
ATOM     21  C   UNL     1      -2.738   1.762  25.154  0.00  0.00    +0.002 C 
ATOM     22  C   UNL     1      -1.993   2.981  25.168  0.00  0.00    +0.032 C 
ATOM     23  C   UNL     1      -1.292   2.552  25.230  0.00  0.00    +0.152 C 
ATOM     24  O   UNL     1      -1.313   1.727  25.254  0.00  0.00    -0.223 OA
ENDROOT
BRANCH  10  11
ATOM     11  N   UNL     1      -4.142   2.620  25.030  0.00  0.00    -0.202 NA
ATOM     12  C   UNL     1      -4.767   2.856  25.514  0.00  0.00    +0.284 C 
ATOM     13  O   UNL     1      -4.668   3.488  26.037  0.00  0.00    -0.267 OA
BRANCH  12  14
ATOM     14  C   UNL     1      -5.490   2.461  25.476  0.00  0.00    +0.155 A 
ATOM     15  C   UNL     1      -5.903   2.289  26.168  0.00  0.00    +0.123 A 
ATOM     16  N   UNL     1      -6.627   1.895  26.131  0.00  0.00    -0.239 NA
ATOM     17  C   UNL     1      -6.937   1.672  25.399  0.00  0.00    +0.120 A 
ATOM     18  C   UNL     1      -6.524   1.844  24.706  0.00  0.00    +0.120 A 
ATOM     19  N   UNL     1      -5.801   2.239  24.745  0.00  0.00    -0.236 NA
ENDBRANCH  12  14
ENDBRANCH  10  11
BRANCH   3   2
ATOM      1  C   UNL     1       0.422   2.304  26.073  0.00  0.00    +0.010 C 
ATOM      2  C   UNL     1       0.133   2.517  25.330  0.00  0.00    +0.081 C 
BRANCH   2  25
ATOM     25  C   UNL     1       0.547   2.302  24.650  0.00  0.00    +0.241 C 
ATOM     26  O   UNL     1       0.785   2.881  24.111  0.00  0.00    -0.273 OA
ATOM     27  N   UNL     1       0.723   1.509  24.508  0.00  0.00    -0.204 NA
BRANCH  27  28
ATOM     28  C   UNL     1       1.137   1.293  23.828  0.00  0.00    +0.132 C 
BRANCH  28  29
ATOM     29  C   UNL     1       1.281   0.497  23.667  0.00  0.00    +0.096 C 
BRANCH  29  30
ATOM     30  N   UNL     1       1.700   0.282  22.990  0.00  0.00    -0.267 NA
ATOM     31  C   UNL     1       2.508   0.440  22.936  0.00  0.00    +0.105 C 
ATOM     32  C   UNL     1       2.927   0.225  22.259  0.00  0.00    +0.159 C 
ATOM     33  O   UNL     1       2.537  -0.150  21.635  0.00  0.00    -0.351 OA
ATOM     34  C   UNL     1       1.730  -0.309  21.688  0.00  0.00    +0.159 C 
ATOM     35  C   UNL     1       1.311  -0.093  22.365  0.00  0.00    +0.105 C 
ENDBRANCH  29  30
ENDBRANCH  28  29
ENDBRANCH  27  28
ENDBRANCH   2  25
ENDBRANCH   3   2
TORSDOF 7
ENDMDL
MODEL 8
REMARK VINA RESULT:      -9.8      1.702      3.662
REMARK  Name = 
REMARK  7 active torsions:
REMARK  status: ('A' for Active; 'I' for Inactive)
REMARK    1  A    between atoms: C_2  and  C_3
REMARK    2  A    between atoms: C_2  and  C_25
REMARK    3  A    between atoms: C_10  and  N_11
REMARK    4  A    between atoms: C_12  and  C_14
REMARK    5  A    between atoms: N_27  and  C_28
REMARK    6  A    between atoms: C_28  and  C_29
REMARK    7  A    between atoms: C_29  and  N_30
REMARK                            x       y       z     vdW  Elec       q    Type
REMARK                         _______ _______ _______ _____ _____    ______ ____
ROOT
ATOM      3  C   UNL     1      -1.851   3.378  25.358  0.00  0.00    +0.039 C 
ATOM      4  C   UNL     1      -1.211   3.479  25.870  0.00  0.00    +0.003 C 
ATOM      5  C   UNL     1      -0.716   2.843  26.042  0.00  0.00    +0.000 C 
ATOM      6  C   UNL     1      -0.860   2.105  25.704  0.00  0.00    +0.002 C 
ATOM      7  C   UNL     1      -0.221   2.206  26.214  0.00  0.00    +0.000 C 
ATOM      8  C   UNL     1      -0.365   1.468  25.876  0.00  0.00    +0.002 C 
ATOM      9  C   UNL     1      -0.509   0.729  25.537  0.00  0.00    +0.022 C 
ATOM     10  C   UNL     1      -1.149   0.628  25.025  0.00  0.00    +0.096 C 
ATOM     20  C   UNL     1      -1.644   1.265  24.853  0.00  0.00    +0.022 C 
ATOM     21  C   UNL     1      -2.284   1.164  24.342  0.00  0.00    +0.002 C 
ATOM     22  C   UNL     1      -1.500   2.004  25.192  0.00  0.00    +0.032 C 
ATOM     23  C   UNL     1      -1.995   2.640  25.020  0.00  0.00    +0.152 C 
ATOM     24  O   UNL     1      -2.634   2.539  24.508  0.00  0.00    -0.223 OA
ENDROOT
BRANCH  10  11
ATOM     11  N   UNL     1      -1.293  -0.110  24.686  0.00  0.00    -0.202 NA
ATOM     12  C   UNL     1      -1.416  -0.768  25.168  0.00  0.00    +0.284 C 
ATOM     13  O   UNL     1      -1.394  -0.688  25.990  0.00  0.00    -0.267 OA
BRANCH  12  14
ATOM     14  C   UNL     1      -1.560  -1.507  24.829  0.00  0.00    +0.155 A 
ATOM     15  C   UNL     1      -0.941  -1.934  24.492  0.00  0.00    +0.123 A 
ATOM     16  N   UNL     1      -1.085  -2.673  24.154  0.00  0.00    -0.239 NA
ATOM     17  C   UNL     1      -1.850  -2.984  24.153  0.00  0.00    +0.120 A 
ATOM     18  C   UNL     1      -2.470  -2.555  24.491  0.00  0.00    +0.120 A 
ATOM     19  N   UNL     1      -2.324  -1.817  24.829  0.00  0.00    -0.236 NA
ENDBRANCH  12  14
ENDBRANCH  10  11
BRANCH   3   2
ATOM      1  C   UNL     1      -2.138   4.550  24.593  0.00  0.00    +0.010 C 
ATOM      2  C   UNL     1      -2.346   4.016  25.186  0.00  0.00    +0.081 C 
BRANCH   2  25
ATOM     25  C   UNL     1      -3.047   4.119  25.606  0.00  0.00    +0.241 C 
ATOM     26  O   UNL     1      -3.032   4.459  26.359  0.00  0.00    -0.273 OA
ATOM     27  N   UNL     1      -3.766   3.883  25.276  0.00  0.00    -0.204 NA
BRANCH  27  28
ATOM     28  C   UNL     1      -4.467   3.986  25.696  0.00  0.00    +0.132 C 
BRANCH  28  29
ATOM     29  C   UNL     1      -5.192   3.818  25.339  0.00  0.00    +0.096 C 
BRANCH  29  30
ATOM     30  N   UNL     1      -5.565   3.097  25.483  0.00  0.00    -0.267 NA
ATOM     31  C   UNL     1      -5.781   2.889  26.252  0.00  0.00    +0.105 C 
ATOM     32  C   UNL     1      -6.155   2.168  26.395  0.00  0.00    +0.159 C 
ATOM     33  O   UNL     1      -6.313   1.654  25.769  0.00  0.00    -0.351 OA
ATOM     34  C   UNL     1      -6.097   1.861  25.001  0.00  0.00    +0.159 C 
ATOM     35  C   UNL     1      -5.724   2.582  24.857  0.00  0.00    +0.105 C 
ENDBRANCH  29  30
ENDBRANCH  28  29
ENDBRANCH  27  28
ENDBRANCH   2  25
ENDBRANCH   3   2
TORSDOF 7
ENDMDL
