MODEL 1
REMARK VINA RESULT:      -9.5      0.000      0.000
REMARK  Name = 
REMARK  6 active torsions:
REMARK  status: ('A' for Active; 'I' for Inactive)
REMARK    1  A    between atoms: C_3  and  C_4
REMARK    2  A    between atoms: C_4  and  N_5
REMARK    3  A    between atoms: C_6  and  C_8
REMARK    4  A    between atoms: C_15  and  N_16
REMARK    5  A    between atoms: N_16  and  C_17
REMARK    6  A    between atoms: C_17  and  C_18
REMARK                            x       y       z     vdW  Elec       q    Type
REMARK                         _______ _______ _______ _____ _____    ______ ____
ROOT
ATOM      1  O   UNL     1      -1.167   0.336  25.212  0.00  0.00    -0.219 OA
ATOM      2  C   UNL     1      -1.865   0.740  25.039  0.00  0.00    +0.199 C 
ATOM      3  C   UNL     1      -1.973   1.557  25.067  0.00  0.00    +0.169 C 
ATOM     13  O   UNL     1      -2.753   1.719  24.853  0.00  0.00    -0.350 OA
ATOM     14  C   UNL     1      -3.127   1.001  24.692  0.00  0.00    +0.162 C 
ATOM     15  C   UNL     1      -2.579   0.396  24.807  0.00  0.00    +0.135 C 
ENDROOT
BRANCH   3   4
ATOM      4  C   UNL     1      -1.401   2.115  25.274  0.00  0.00    +0.147 C 
BRANCH   4   5
ATOM      5  N   UNL     1      -1.520   2.912  25.098  0.00  0.00    -0.203 NA
ATOM      6  C   UNL     1      -0.985   3.479  25.371  0.00  0.00    +0.241 C 
ATOM      7  O   UNL     1      -0.333   3.248  25.819  0.00  0.00    -0.273 OA
BRANCH   6   8
ATOM      8  C   UNL     1      -1.104   4.276  25.195  0.00  0.00    +0.078 C 
ATOM      9  C   UNL     1      -1.754   4.731  25.421  0.00  0.00    +0.009 C 
ATOM     10  C   UNL     1      -1.645   5.494  25.127  0.00  0.00    +0.001 C 
ATOM     11  C   UNL     1      -0.928   5.511  24.720  0.00  0.00    +0.001 C 
ATOM     12  C   UNL     1      -0.593   4.759  24.761  0.00  0.00    +0.009 C 
ENDBRANCH   6   8
ENDBRANCH   4   5
ENDBRANCH   3   4
BRANCH  15  16
ATOM     16  N   UNL     1      -2.719  -0.410  24.707  0.00  0.00    -0.208 NA
BRANCH  16  17
ATOM     17  C   UNL     1      -3.490  -0.702  24.737  0.00  0.00    +0.134 C 
BRANCH  17  18
ATOM     18  C   UNL     1      -3.639  -1.495  24.566  0.00  0.00    +0.077 A 
ATOM     19  N   UNL     1      -3.308  -2.087  25.036  0.00  0.00    -0.247 NA
ATOM     20  C   UNL     1      -3.456  -2.881  24.864  0.00  0.00    +0.098 A 
ATOM     21  C   UNL     1      -3.935  -3.081  24.223  0.00  0.00    +0.021 A 
ATOM     22  C   UNL     1      -4.266  -2.489  23.753  0.00  0.00    +0.003 A 
ATOM     23  C   UNL     1      -4.117  -1.696  23.925  0.00  0.00    +0.016 A 
ENDBRANCH  17  18
ENDBRANCH  16  17
ENDBRANCH  15  16
TORSDOF 6
ENDMDL
MODEL 2
REMARK VINA RESULT:      -9.5      1.005      5.969
REMARK  Name = 
REMARK  6 active torsions:
REMARK  status: ('A' for Active; 'I' for Inactive)
REMARK    1  A    between atoms: C_3  and  C_4
REMARK    2  A    between atoms: C_4  and  N_5
REMARK    3  A    between atoms: C_6  and  C_8
REMARK    4  A    between atoms: C_15  and  N_16
REMARK    5  A    between atoms: N_16  and  C_17
REMARK    6  A    between atoms: C_17  and  C_18
REMARK                            x       y       z     vdW  Elec       q    Type
REMARK                         _______ _______ _______ _____ _____    ______ ____
ROOT
ATOM      1  O   UNL     1      -3.846   2.097  24.188  0.00  0.00    -0.219 OA
ATOM      2  C   UNL     1      -3.197   1.719  24.531  0.00  0.00    +0.199 C 
ATOM      3  C   UNL     1      -3.123   0.908  24.663  0.00  0.00    +0.169 C 
ATOM     13  O   UNL     1      -2.390   0.774  25.016  0.00  0.00    -0.350 OA
ATOM     14  C   UNL     1      -2.011   1.502  25.102  0.00  0.00    +0.162 C 
ATOM     15  C   UNL     1      -2.510   2.086  24.802  0.00  0.00    +0.135 C 
ENDROOT
BRANCH   3   4
ATOM      4  C   UNL     1      -3.683   0.332  24.475  0.00  0.00    +0.147 C 
BRANCH   4   5
ATOM      5  N   UNL     1      -3.486  -0.467  24.525  0.00  0.00    -0.203 NA
ATOM      6  C   UNL     1      -4.053  -1.043  24.358  0.00  0.00    +0.241 C 
ATOM      7  O   UNL     1      -4.817  -0.819  24.143  0.00  0.00    -0.273 OA
BRANCH   6   8
ATOM      8  C   UNL     1      -3.856  -1.842  24.408  0.00  0.00    +0.078 C 
ATOM      9  C   UNL     1      -4.009  -2.416  23.835  0.00  0.00    +0.009 C 
ATOM     10  C   UNL     1      -3.719  -3.137  24.112  0.00  0.00    +0.001 C 
ATOM     11  C   UNL     1      -3.386  -3.009  24.856  0.00  0.00    +0.001 C 
ATOM     12  C   UNL     1      -3.471  -2.209  25.039  0.00  0.00    +0.009 C 
ENDBRANCH   6   8
ENDBRANCH   4   5
ENDBRANCH   3   4
BRANCH  15  16
ATOM     16  N   UNL     1      -2.350   2.894  24.778  0.00  0.00    -0.208 NA
BRANCH  16  17
ATOM     17  C   UNL     1      -1.737   3.207  25.233  0.00  0.00    +0.134 C 
BRANCH  17  18
ATOM     18  C   UNL     1      -1.516   3.997  25.140  0.00  0.00    +0.077 A 
ATOM     19  N   UNL     1      -2.036   4.599  25.359  0.00  0.00    -0.247 NA
ATOM     20  C   UNL     1      -1.815   5.389  25.267  0.00  0.00    +0.098 A 
ATOM     21  C   UNL     1      -1.075   5.576  24.954  0.00  0.00    +0.021 A 
ATOM     22  C   UNL     1      -0.555   4.974  24.735  0.00  0.00    +0.003 A 
ATOM     23  C   UNL     1      -0.776   4.184  24.828  0.00  0.00    +0.016 A 
ENDBRANCH  17  18
ENDBRANCH  16  17
ENDBRANCH  15  16
TORSDOF 6
ENDMDL
MODEL 3
REMARK VINA RESULT:      -7.5      2.862      4.443
REMARK  Name = 
REMARK  6 active torsions:
REMARK  status: ('A' for Active; 'I' for Inactive)
REMARK    1  A    between atoms: C_3  and  C_4
REMARK    2  A    between atoms: C_4  and  N_5
REMARK    3  A    between atoms: C_6  and  C_8
REMARK    4  A    between atoms: C_15  and  N_16
REMARK    5  A    between atoms: N_16  and  C_17
REMARK    6  A    between atoms: C_17  and  C_18
REMARK                            x       y       z     vdW  Elec       q    Type
REMARK                         _______ _______ _______ _____ _____    ______ ____
ROOT
ATOM      1  O   UNL     1      -2.083   0.408  25.241  0.00  0.00    -0.219 OA
ATOM      2  C   UNL     1      -1.950   0.925  24.612  0.00  0.00    +0.199 C 
ATOM      3  C   UNL     1      -1.328   0.885  24.073  0.00  0.00    +0.169 C 
ATOM     13  O   UNL     1      -1.410   1.508  23.540  0.00  0.00    -0.350 OA
ATOM     14  C   UNL     1      -2.085   1.935  23.750  0.00  0.00    +0.162 C 
ATOM     15  C   UNL     1      -2.419   1.575  24.412  0.00  0.00    +0.135 C 
ENDROOT
BRANCH   3   4
ATOM      4  C   UNL     1      -0.727   0.319  24.068  0.00  0.00    +0.147 C 
BRANCH   4   5
ATOM      5  N   UNL     1      -0.066   0.423  23.585  0.00  0.00    -0.203 NA
ATOM      6  C   UNL     1       0.481  -0.189  23.497  0.00  0.00    +0.241 C 
ATOM      7  O   UNL     1       0.367  -0.904  23.893  0.00  0.00    -0.273 OA
BRANCH   6   8
ATOM      8  C   UNL     1       1.141  -0.085  23.013  0.00  0.00    +0.078 C 
ATOM      9  C   UNL     1       1.829   0.324  23.212  0.00  0.00    +0.009 C 
ATOM     10  C   UNL     1       2.342   0.289  22.568  0.00  0.00    +0.001 C 
ATOM     11  C   UNL     1       1.972  -0.142  21.970  0.00  0.00    +0.001 C 
ATOM     12  C   UNL     1       1.230  -0.373  22.245  0.00  0.00    +0.009 C 
ENDBRANCH   6   8
ENDBRANCH   4   5
ENDBRANCH   3   4
BRANCH  15  16
ATOM     16  N   UNL     1      -3.100   1.821  24.805  0.00  0.00    -0.208 NA
BRANCH  16  17
ATOM     17  C   UNL     1      -3.668   2.267  24.407  0.00  0.00    +0.134 C 
BRANCH  17  18
ATOM     18  C   UNL     1      -4.352   2.510  24.799  0.00  0.00    +0.077 A 
ATOM     19  N   UNL     1      -4.344   3.197  25.256  0.00  0.00    -0.247 NA
ATOM     20  C   UNL     1      -5.028   3.440  25.649  0.00  0.00    +0.098 A 
ATOM     21  C   UNL     1      -5.720   2.995  25.584  0.00  0.00    +0.021 A 
ATOM     22  C   UNL     1      -5.729   2.309  25.127  0.00  0.00    +0.003 A 
ATOM     23  C   UNL     1      -5.044   2.065  24.735  0.00  0.00    +0.016 A 
ENDBRANCH  17  18
ENDBRANCH  16  17
ENDBRANCH  15  16
TORSDOF 6
ENDMDL
MODEL 4
REMARK VINA RESULT:      -7.4      3.736      4.491
REMARK  Name = 
REMARK  6 active torsions:
REMARK  status: ('A' for Active; 'I' for Inactive)
REMARK    1  A    between atoms: C_3  and  C_4
REMARK    2  A    between atoms: C_4  and  N_5
REMARK    3  A    between atoms: C_6  and  C_8
REMARK    4  A    between atoms: C_15  and  N_16
REMARK    5  A    between atoms: N_16  and  C_17
REMARK    6  A    between atoms: C_17  and  C_18
REMARK                            x       y       z     vdW  Elec       q    Type
REMARK                         _______ _______ _______ _____ _____    ______ ____
ROOT
ATOM      1  O   UNL     1      -0.060  -1.116  23.380  0.00  0.00    -0.219 OA
ATOM      2  C   UNL     1       0.006  -0.337  23.645  0.00  0.00    +0.199 C 
ATOM      3  C   UNL     1       0.582   0.206  23.414  0.00  0.00    +0.169 C 
ATOM     13  O   UNL     1       0.440   0.913  23.813  0.00  0.00    -0.350 OA
ATOM     14  C   UNL     1      -0.224   0.807  24.291  0.00  0.00    +0.162 C 
ATOM     15  C   UNL     1      -0.492   0.035  24.188  0.00  0.00    +0.135 C 
ENDROOT
BRANCH   3   4
ATOM      4  C   UNL     1       1.193   0.066  22.877  0.00  0.00    +0.147 C 
BRANCH   4   5
ATOM      5  N   UNL     1       1.974   0.221  23.092  0.00  0.00    -0.203 NA
ATOM      6  C   UNL     1       2.575   0.167  22.529  0.00  0.00    +0.241 C 
ATOM      7  O   UNL     1       2.395  -0.042  21.752  0.00  0.00    -0.273 OA
BRANCH   6   8
ATOM      8  C   UNL     1       3.357   0.322  22.743  0.00  0.00    +0.078 C 
ATOM      9  C   UNL     1       3.882  -0.214  23.086  0.00  0.00    +0.009 C 
ATOM     10  C   UNL     1       4.599   0.173  23.207  0.00  0.00    +0.001 C 
ATOM     11  C   UNL     1       4.518   0.950  22.940  0.00  0.00    +0.001 C 
ATOM     12  C   UNL     1       3.751   1.042  22.654  0.00  0.00    +0.009 C 
ENDBRANCH   6   8
ENDBRANCH   4   5
ENDBRANCH   3   4
BRANCH  15  16
ATOM     16  N   UNL     1      -1.144  -0.307  24.560  0.00  0.00    -0.208 NA
BRANCH  16  17
ATOM     17  C   UNL     1      -1.741   0.173  24.868  0.00  0.00    +0.134 C 
BRANCH  17  18
ATOM     18  C   UNL     1      -2.473  -0.154  25.063  0.00  0.00    +0.077 A 
ATOM     19  N   UNL     1      -3.152   0.089  24.663  0.00  0.00    -0.247 NA
ATOM     20  C   UNL     1      -3.885  -0.238  24.858  0.00  0.00    +0.098 A 
ATOM     21  C   UNL     1      -3.937  -0.808  25.453  0.00  0.00    +0.021 A 
ATOM     22  C   UNL     1      -3.257  -1.050  25.853  0.00  0.00    +0.003 A 
ATOM     23  C   UNL     1      -2.525  -0.724  25.658  0.00  0.00    +0.016 A 
ENDBRANCH  17  18
ENDBRANCH  16  17
ENDBRANCH  15  16
TORSDOF 6
ENDMDL
MODEL 5
REMARK VINA RESULT:      -7.3      2.957      4.360
REMARK  Name = 
REMARK  6 active torsions:
REMARK  status: ('A' for Active; 'I' for Inactive)
REMARK    1  A    between atoms: C_3  and  C_4
REMARK    2  A    between atoms: C_4  and  N_5
REMARK    3  A    between atoms: C_6  and  C_8
REMARK    4  A    between atoms: C_15  and  N_16
REMARK    5  A    between atoms: N_16  and  C_17
REMARK    6  A    between atoms: C_17  and  C_18
REMARK                            x       y       z     vdW  Elec       q    Type
REMARK                         _______ _______ _______ _____ _____    ______ ____
ROOT
ATOM      1  O   UNL     1      -1.754   2.405  23.135  0.00  0.00    -0.219 OA
ATOM      2  C   UNL     1      -1.768   1.939  23.816  0.00  0.00    +0.199 C 
ATOM      3  C   UNL     1      -2.339   1.967  24.411  0.00  0.00    +0.169 C 
ATOM     13  O   UNL     1      -2.137   1.408  24.983  0.00  0.00    -0.350 OA
ATOM     14  C   UNL     1      -1.442   1.035  24.742  0.00  0.00    +0.162 C 
ATOM     15  C   UNL     1      -1.214   1.363  24.021  0.00  0.00    +0.135 C 
ENDROOT
BRANCH   3   4
ATOM      4  C   UNL     1      -2.996   2.465  24.430  0.00  0.00    +0.147 C 
BRANCH   4   5
ATOM      5  N   UNL     1      -3.704   2.202  24.761  0.00  0.00    -0.203 NA
ATOM      6  C   UNL     1      -4.353   2.711  24.805  0.00  0.00    +0.241 C 
ATOM      7  O   UNL     1      -4.293   3.481  24.518  0.00  0.00    -0.273 OA
BRANCH   6   8
ATOM      8  C   UNL     1      -5.061   2.447  25.137  0.00  0.00    +0.078 C 
ATOM      9  C   UNL     1      -5.394   2.711  25.844  0.00  0.00    +0.009 C 
ATOM     10  C   UNL     1      -6.099   2.301  25.963  0.00  0.00    +0.001 C 
ATOM     11  C   UNL     1      -6.203   1.783  25.329  0.00  0.00    +0.001 C 
ATOM     12  C   UNL     1      -5.562   1.873  24.819  0.00  0.00    +0.009 C 
ENDBRANCH   6   8
ENDBRANCH   4   5
ENDBRANCH   3   4
BRANCH  15  16
ATOM     16  N   UNL     1      -0.548   1.153  23.582  0.00  0.00    -0.208 NA
BRANCH  16  17
ATOM     17  C   UNL     1      -0.018   0.595  23.878  0.00  0.00    +0.134 C 
BRANCH  17  18
ATOM     18  C   UNL     1       0.671   0.417  23.460  0.00  0.00    +0.077 A 
ATOM     19  N   UNL     1       1.346   0.880  23.562  0.00  0.00    -0.247 NA
ATOM     20  C   UNL     1       2.035   0.702  23.143  0.00  0.00    +0.098 A 
ATOM     21  C   UNL     1       2.048   0.062  22.624  0.00  0.00    +0.021 A 
ATOM     22  C   UNL     1       1.373  -0.401  22.522  0.00  0.00    +0.003 A 
ATOM     23  C   UNL     1       0.684  -0.223  22.940  0.00  0.00    +0.016 A 
ENDBRANCH  17  18
ENDBRANCH  16  17
ENDBRANCH  15  16
TORSDOF 6
ENDMDL
MODEL 6
REMARK VINA RESULT:      -6.6     17.209     19.234
REMARK  Name = 
REMARK  6 active torsions:
REMARK  status: ('A' for Active; 'I' for Inactive)
REMARK    1  A    between atoms: C_3  and  C_4
REMARK    2  A    between atoms: C_4  and  N_5
REMARK    3  A    between atoms: C_6  and  C_8
REMARK    4  A    between atoms: C_15  and  N_16
REMARK    5  A    between atoms: N_16  and  C_17
REMARK    6  A    between atoms: C_17  and  C_18
REMARK                            x       y       z     vdW  Elec       q    Type
REMARK                         _______ _______ _______ _____ _____    ______ ____
ROOT
ATOM      1  O   UNL     1      14.169   7.004  17.187  0.00  0.00    -0.219 OA
ATOM      2  C   UNL     1      14.133   7.578  17.777  0.00  0.00    +0.199 C 
ATOM      3  C   UNL     1      14.627   7.629  18.435  0.00  0.00    +0.169 C 
ATOM     13  O   UNL     1      14.396   8.285  18.878  0.00  0.00    -0.350 OA
ATOM     14  C   UNL     1      13.758   8.640  18.493  0.00  0.00    +0.162 C 
ATOM     15  C   UNL     1      13.595   8.204  17.813  0.00  0.00    +0.135 C 
ENDROOT
BRANCH   3   4
ATOM      4  C   UNL     1      15.245   7.114  18.618  0.00  0.00    +0.147 C 
BRANCH   4   5
ATOM      5  N   UNL     1      15.650   7.192  19.333  0.00  0.00    -0.203 NA
ATOM      6  C   UNL     1      16.263   6.671  19.520  0.00  0.00    +0.241 C 
ATOM      7  O   UNL     1      16.470   6.073  18.991  0.00  0.00    -0.273 OA
BRANCH   6   8
ATOM      8  C   UNL     1      16.667   6.750  20.234  0.00  0.00    +0.078 C 
ATOM      9  C   UNL     1      17.092   7.413  20.481  0.00  0.00    +0.009 C 
ATOM     10  C   UNL     1      17.405   7.252  21.226  0.00  0.00    +0.001 C 
ATOM     11  C   UNL     1      17.174   6.490  21.441  0.00  0.00    +0.001 C 
ATOM     12  C   UNL     1      16.719   6.179  20.828  0.00  0.00    +0.009 C 
ENDBRANCH   6   8
ENDBRANCH   4   5
ENDBRANCH   3   4
BRANCH  15  16
ATOM     16  N   UNL     1      13.000   8.364  17.265  0.00  0.00    -0.208 NA
BRANCH  16  17
ATOM     17  C   UNL     1      12.289   8.700  17.515  0.00  0.00    +0.134 C 
BRANCH  17  18
ATOM     18  C   UNL     1      11.637   8.708  17.009  0.00  0.00    +0.077 A 
ATOM     19  N   UNL     1      10.934   8.341  17.236  0.00  0.00    -0.247 NA
ATOM     20  C   UNL     1      10.282   8.350  16.731  0.00  0.00    +0.098 A 
ATOM     21  C   UNL     1      10.333   8.726  15.998  0.00  0.00    +0.021 A 
ATOM     22  C   UNL     1      11.036   9.094  15.771  0.00  0.00    +0.003 A 
ATOM     23  C   UNL     1      11.689   9.085  16.277  0.00  0.00    +0.016 A 
ENDBRANCH  17  18
ENDBRANCH  16  17
ENDBRANCH  15  16
TORSDOF 6
ENDMDL
MODEL 7
REMARK VINA RESULT:      -6.2     14.633     16.670
REMARK  Name = 
REMARK  6 active torsions:
REMARK  status: ('A' for Active; 'I' for Inactive)
REMARK    1  A    between atoms: C_3  and  C_4
REMARK    2  A    between atoms: C_4  and  N_5
REMARK    3  A    between atoms: C_6  and  C_8
REMARK    4  A    between atoms: C_15  and  N_16
REMARK    5  A    between atoms: N_16  and  C_17
REMARK    6  A    between atoms: C_17  and  C_18
REMARK                            x       y       z     vdW  Elec       q    Type
REMARK                         _______ _______ _______ _____ _____    ______ ____
ROOT
ATOM      1  O   UNL     1      -2.968 -10.761  14.217  0.00  0.00    -0.219 OA
ATOM      2  C   UNL     1      -3.738 -10.611  13.961  0.00  0.00    +0.199 C 
ATOM      3  C   UNL     1      -3.973 -10.478  13.182  0.00  0.00    +0.169 C 
ATOM     13  O   UNL     1      -4.788 -10.353  13.180  0.00  0.00    -0.350 OA
ATOM     14  C   UNL     1      -5.057 -10.408  13.958  0.00  0.00    +0.162 C 
ATOM     15  C   UNL     1      -4.408 -10.568  14.441  0.00  0.00    +0.135 C 
ENDROOT
BRANCH   3   4
ATOM      4  C   UNL     1      -3.479 -10.472  12.521  0.00  0.00    +0.147 C 
BRANCH   4   5
ATOM      5  N   UNL     1      -3.748 -10.154  11.808  0.00  0.00    -0.203 NA
ATOM      6  C   UNL     1      -3.262 -10.166  11.142  0.00  0.00    +0.241 C 
ATOM      7  O   UNL     1      -2.507 -10.496  11.188  0.00  0.00    -0.273 OA
BRANCH   6   8
ATOM      8  C   UNL     1      -3.531  -9.849  10.429  0.00  0.00    +0.078 C 
ATOM      9  C   UNL     1      -3.445  -9.066  10.184  0.00  0.00    +0.009 C 
ATOM     10  C   UNL     1      -3.794  -8.992   9.441  0.00  0.00    +0.001 C 
ATOM     11  C   UNL     1      -4.095  -9.730   9.226  0.00  0.00    +0.001 C 
ATOM     12  C   UNL     1      -3.933 -10.259   9.836  0.00  0.00    +0.009 C 
ENDBRANCH   6   8
ENDBRANCH   4   5
ENDBRANCH   3   4
BRANCH  15  16
ATOM     16  N   UNL     1      -4.426 -10.667  15.259  0.00  0.00    -0.208 NA
BRANCH  16  17
ATOM     17  C   UNL     1      -4.999 -10.280  15.709  0.00  0.00    +0.134 C 
BRANCH  17  18
ATOM     18  C   UNL     1      -5.062 -10.434  16.518  0.00  0.00    +0.077 A 
ATOM     19  N   UNL     1      -4.383 -10.566  16.967  0.00  0.00    -0.247 NA
ATOM     20  C   UNL     1      -4.446 -10.720  17.775  0.00  0.00    +0.098 A 
ATOM     21  C   UNL     1      -5.188 -10.741  18.134  0.00  0.00    +0.021 A 
ATOM     22  C   UNL     1      -5.868 -10.609  17.685  0.00  0.00    +0.003 A 
ATOM     23  C   UNL     1      -5.804 -10.455  16.876  0.00  0.00    +0.016 A 
ENDBRANCH  17  18
ENDBRANCH  16  17
ENDBRANCH  15  16
TORSDOF 6
ENDMDL
MODEL 8
REMARK VINA RESULT:      -5.8     14.189     14.976
REMARK  Name = 
REMARK  6 active torsions:
REMARK  status: ('A' for Active; 'I' for Inactive)
REMARK    1  A    between atoms: C_3  and  C_4
REMARK    2  A    between atoms: C_4  and  N_5
REMARK    3  A    between atoms: C_6  and  C_8
REMARK    4  A    between atoms: C_15  and  N_16
REMARK    5  A    between atoms: N_16  and  C_17
REMARK    6  A    between atoms: C_17  and  C_18
REMARK                            x       y       z     vdW  Elec       q    Type
REMARK                         _______ _______ _______ _____ _____    ______ ____
ROOT
ATOM      1  O   UNL     1      -5.002 -10.346  17.716  0.00  0.00    -0.219 OA
ATOM      2  C   UNL     1      -5.249 -10.247  16.935  0.00  0.00    +0.199 C 
ATOM      3  C   UNL     1      -6.011 -10.047  16.690  0.00  0.00    +0.169 C 
ATOM     13  O   UNL     1      -6.011 -10.008  15.866  0.00  0.00    -0.350 OA
ATOM     14  C   UNL     1      -5.249 -10.184  15.602  0.00  0.00    +0.162 C 
ATOM     15  C   UNL     1      -4.778 -10.332  16.263  0.00  0.00    +0.135 C 
ENDROOT
BRANCH   3   4
ATOM      4  C   UNL     1      -6.659  -9.910  17.182  0.00  0.00    +0.147 C 
BRANCH   4   5
ATOM      5  N   UNL     1      -7.323  -9.518  16.890  0.00  0.00    -0.203 NA
ATOM      6  C   UNL     1      -7.991  -9.425  17.366  0.00  0.00    +0.241 C 
ATOM      7  O   UNL     1      -7.993  -9.726  18.135  0.00  0.00    -0.273 OA
BRANCH   6   8
ATOM      8  C   UNL     1      -8.655  -9.033  17.074  0.00  0.00    +0.078 C 
ATOM      9  C   UNL     1      -9.126  -9.279  16.444  0.00  0.00    +0.009 C 
ATOM     10  C   UNL     1      -9.726  -8.723  16.341  0.00  0.00    +0.001 C 
ATOM     11  C   UNL     1      -9.627  -8.133  16.909  0.00  0.00    +0.001 C 
ATOM     12  C   UNL     1      -8.965  -8.324  17.362  0.00  0.00    +0.009 C 
ENDBRANCH   6   8
ENDBRANCH   4   5
ENDBRANCH   3   4
BRANCH  15  16
ATOM     16  N   UNL     1      -3.978 -10.530  16.254  0.00  0.00    -0.208 NA
BRANCH  16  17
ATOM     17  C   UNL     1      -3.537 -10.431  15.563  0.00  0.00    +0.134 C 
BRANCH  17  18
ATOM     18  C   UNL     1      -2.720 -10.547  15.576  0.00  0.00    +0.077 A 
ATOM     19  N   UNL     1      -2.331 -10.666  16.293  0.00  0.00    -0.247 NA
ATOM     20  C   UNL     1      -1.514 -10.781  16.305  0.00  0.00    +0.098 A 
ATOM     21  C   UNL     1      -1.086 -10.777  15.600  0.00  0.00    +0.021 A 
ATOM     22  C   UNL     1      -1.475 -10.657  14.882  0.00  0.00    +0.003 A 
ATOM     23  C   UNL     1      -2.293 -10.542  14.870  0.00  0.00    +0.016 A 
ENDBRANCH  17  18
ENDBRANCH  16  17
ENDBRANCH  15  16
TORSDOF 6
ENDMDL
MODEL 9
REMARK VINA RESULT:      -5.8     15.266     17.518
REMARK  Name = 
REMARK  6 active torsions:
REMARK  status: ('A' for Active; 'I' for Inactive)
REMARK    1  A    between atoms: C_3  and  C_4
REMARK    2  A    between atoms: C_4  and  N_5
REMARK    3  A    between atoms: C_6  and  C_8
REMARK    4  A    between atoms: C_15  and  N_16
REMARK    5  A    between atoms: N_16  and  C_17
REMARK    6  A    between atoms: C_17  and  C_18
REMARK                            x       y       z     vdW  Elec       q    Type
REMARK                         _______ _______ _______ _____ _____    ______ ____
ROOT
ATOM      1  O   UNL     1      -1.709  -9.772  11.974  0.00  0.00    -0.219 OA
ATOM      2  C   UNL     1      -2.442 -10.123  12.115  0.00  0.00    +0.199 C 
ATOM      3  C   UNL     1      -3.067 -10.173  11.580  0.00  0.00    +0.169 C 
ATOM     13  O   UNL     1      -3.690 -10.567  11.950  0.00  0.00    -0.350 OA
ATOM     14  C   UNL     1      -3.449 -10.760  12.716  0.00  0.00    +0.162 C 
ATOM     15  C   UNL     1      -2.679 -10.486  12.818  0.00  0.00    +0.135 C 
ENDROOT
BRANCH   3   4
ATOM      4  C   UNL     1      -3.069  -9.881  10.808  0.00  0.00    +0.147 C 
BRANCH   4   5
ATOM      5  N   UNL     1      -3.780  -9.813  10.394  0.00  0.00    -0.203 NA
ATOM      6  C   UNL     1      -3.813  -9.365   9.701  0.00  0.00    +0.241 C 
ATOM      7  O   UNL     1      -3.136  -8.986   9.423  0.00  0.00    -0.273 OA
BRANCH   6   8
ATOM      8  C   UNL     1      -4.524  -9.298   9.288  0.00  0.00    +0.078 C 
ATOM      9  C   UNL     1      -4.698  -9.650   8.563  0.00  0.00    +0.009 C 
ATOM     10  C   UNL     1      -5.467  -9.436   8.354  0.00  0.00    +0.001 C 
ATOM     11  C   UNL     1      -5.767  -8.951   8.950  0.00  0.00    +0.001 C 
ATOM     12  C   UNL     1      -5.185  -8.866   9.527  0.00  0.00    +0.009 C 
ENDBRANCH   6   8
ENDBRANCH   4   5
ENDBRANCH   3   4
BRANCH  15  16
ATOM     16  N   UNL     1      -2.224 -10.561  13.501  0.00  0.00    -0.208 NA
BRANCH  16  17
ATOM     17  C   UNL     1      -2.585 -10.532  14.242  0.00  0.00    +0.134 C 
BRANCH  17  18
ATOM     18  C   UNL     1      -2.123 -10.513  14.926  0.00  0.00    +0.077 A 
ATOM     19  N   UNL     1      -1.351 -10.225  14.894  0.00  0.00    -0.247 NA
ATOM     20  C   UNL     1      -0.889 -10.206  15.578  0.00  0.00    +0.098 A 
ATOM     21  C   UNL     1      -1.201 -10.474  16.293  0.00  0.00    +0.021 A 
ATOM     22  C   UNL     1      -1.973 -10.762  16.325  0.00  0.00    +0.003 A 
ATOM     23  C   UNL     1      -2.435 -10.781  15.641  0.00  0.00    +0.016 A 
ENDBRANCH  17  18
ENDBRANCH  16  17
ENDBRANCH  15  16
TORSDOF 6
ENDMDL
MODEL 10
REMARK VINA RESULT:      -5.7     14.613     16.611
REMARK  Name = 
REMARK  6 active torsions:
REMARK  status: ('A' for Active; 'I' for Inactive)
REMARK    1  A    between atoms: C_3  and  C_4
REMARK    2  A    between atoms: C_4  and  N_5
REMARK    3  A    between atoms: C_6  and  C_8
REMARK    4  A    between atoms: C_15  and  N_16
REMARK    5  A    between atoms: N_16  and  C_17
REMARK    6  A    between atoms: C_17  and  C_18
REMARK                            x       y       z     vdW  Elec       q    Type
REMARK                         _______ _______ _______ _____ _____    ______ ____
ROOT
ATOM      1  O   UNL     1      -3.968 -10.608  14.583  0.00  0.00    -0.219 OA
ATOM      2  C   UNL     1      -4.647 -10.407  14.160  0.00  0.00    +0.199 C 
ATOM      3  C   UNL     1      -4.700 -10.318  13.342  0.00  0.00    +0.169 C 
ATOM     13  O   UNL     1      -5.478 -10.116  13.158  0.00  0.00    -0.350 OA
ATOM     14  C   UNL     1      -5.906 -10.079  13.862  0.00  0.00    +0.162 C 
ATOM     15  C   UNL     1      -5.393 -10.259  14.482  0.00  0.00    +0.135 C 
ENDROOT
BRANCH   3   4
ATOM      4  C   UNL     1      -4.083 -10.416  12.802  0.00  0.00    +0.147 C 
BRANCH   4   5
ATOM      5  N   UNL     1      -4.167 -10.146  12.027  0.00  0.00    -0.203 NA
ATOM      6  C   UNL     1      -3.541 -10.220  11.494  0.00  0.00    +0.241 C 
ATOM      7  O   UNL     1      -2.832 -10.564  11.738  0.00  0.00    -0.273 OA
BRANCH   6   8
ATOM      8  C   UNL     1      -3.625  -9.951  10.719  0.00  0.00    +0.078 C 
ATOM      9  C   UNL     1      -3.347  -9.233  10.422  0.00  0.00    +0.009 C 
ATOM     10  C   UNL     1      -3.551  -9.191   9.625  0.00  0.00    +0.001 C 
ATOM     11  C   UNL     1      -3.956  -9.883   9.428  0.00  0.00    +0.001 C 
ATOM     12  C   UNL     1      -4.001 -10.352  10.104  0.00  0.00    +0.009 C 
ENDBRANCH   6   8
ENDBRANCH   4   5
ENDBRANCH   3   4
BRANCH  15  16
ATOM     16  N   UNL     1      -5.589 -10.286  15.282  0.00  0.00    -0.208 NA
BRANCH  16  17
ATOM     17  C   UNL     1      -6.363 -10.132  15.522  0.00  0.00    +0.134 C 
BRANCH  17  18
ATOM     18  C   UNL     1      -6.556 -10.142  16.324  0.00  0.00    +0.077 A 
ATOM     19  N   UNL     1      -6.315 -10.772  16.799  0.00  0.00    -0.247 NA
ATOM     20  C   UNL     1      -6.508 -10.781  17.601  0.00  0.00    +0.098 A 
ATOM     21  C   UNL     1      -6.943 -10.161  17.928  0.00  0.00    +0.021 A 
ATOM     22  C   UNL     1      -7.184  -9.531  17.453  0.00  0.00    +0.003 A 
ATOM     23  C   UNL     1      -6.991  -9.521  16.651  0.00  0.00    +0.016 A 
ENDBRANCH  17  18
ENDBRANCH  16  17
ENDBRANCH  15  16
TORSDOF 6
ENDMDL
