MODEL 1
REMARK VINA RESULT:     -12.4      0.000      0.000
REMARK  Name = 
REMARK  5 active torsions:
REMARK  status: ('A' for Active; 'I' for Inactive)
REMARK    1  A    between atoms: C_2  and  C_3
REMARK    2  A    between atoms: C_3  and  O_4
REMARK    3  A    between atoms: O_4  and  C_5
REMARK    4  A    between atoms: C_12  and  C_17
REMARK    5  A    between atoms: C_17  and  C_19
REMARK                            x       y       z     vdW  Elec       q    Type
REMARK                         _______ _______ _______ _____ _____    ______ ____
ROOT
ATOM      5  C   UNL     1      -2.853   3.237  24.806  0.00  0.00    +0.134 A 
ATOM      6  C   UNL     1      -3.514   3.653  25.076  0.00  0.00    +0.032 A 
ATOM      7  C   UNL     1      -4.223   3.256  25.212  0.00  0.00    -0.023 A 
ATOM      8  C   UNL     1      -4.883   3.671  25.481  0.00  0.00    +0.031 C 
ATOM      9  C   UNL     1      -4.274   2.444  25.078  0.00  0.00    -0.030 A 
ATOM     10  C   UNL     1      -4.984   2.046  25.214  0.00  0.00    +0.026 C 
ATOM     11  C   UNL     1      -5.035   1.234  25.080  0.00  0.00    +0.005 C 
ATOM     12  C   UNL     1      -4.374   0.818  24.810  0.00  0.00    +0.013 C 
ATOM     13  C   UNL     1      -3.664   1.215  24.675  0.00  0.00    +0.026 C 
ATOM     14  C   UNL     1      -3.613   2.028  24.808  0.00  0.00    -0.027 A 
ATOM     15  C   UNL     1      -2.904   2.425  24.673  0.00  0.00    +0.008 A 
ATOM     16  C   UNL     1      -2.244   2.009  24.404  0.00  0.00    +0.034 C 
ENDROOT
BRANCH  12  17
ATOM     17  C   UNL     1      -4.425   0.005  24.677  0.00  0.00    +0.077 C 
ATOM     18  C   UNL     1      -4.787  -0.277  23.992  0.00  0.00    +0.010 C 
BRANCH  17  19
ATOM     19  C   UNL     1      -4.115  -0.524  25.228  0.00  0.00    +0.225 C 
ATOM     20  O   UNL     1      -4.063  -0.309  26.023  0.00  0.00    -0.275 OA
ATOM     21  N   UNL     1      -3.856  -1.269  24.984  0.00  0.00    -0.279 N 
ATOM     22  C   UNL     1      -3.545  -1.798  25.535  0.00  0.00    +0.096 C 
ATOM     23  C   UNL     1      -3.286  -2.543  25.292  0.00  0.00    +0.054 C 
ATOM     24  C   UNL     1      -3.338  -2.758  24.497  0.00  0.00    +0.155 C 
ATOM     25  O   UNL     1      -3.079  -3.502  24.253  0.00  0.00    -0.223 OA
ATOM     26  C   UNL     1      -3.649  -2.228  23.945  0.00  0.00    +0.054 C 
ATOM     27  C   UNL     1      -3.907  -1.484  24.190  0.00  0.00    +0.096 C 
ENDBRANCH  17  19
ENDBRANCH  12  17
BRANCH   5   4
ATOM      4  O   UNL     1      -2.143   3.635  24.671  0.00  0.00    -0.476 OA
BRANCH   4   3
ATOM      3  C   UNL     1      -1.985   4.344  25.061  0.00  0.00    +0.205 C 
BRANCH   3   2
ATOM      1  C   UNL     1      -1.139   5.493  24.992  0.00  0.00    +0.004 C 
ATOM      2  C   UNL     1      -1.230   4.674  25.029  0.00  0.00    +0.047 C 
ENDBRANCH   3   2
ENDBRANCH   4   3
ENDBRANCH   5   4
TORSDOF 5
ENDMDL
MODEL 2
REMARK VINA RESULT:     -11.2      1.668      4.883
REMARK  Name = 
REMARK  5 active torsions:
REMARK  status: ('A' for Active; 'I' for Inactive)
REMARK    1  A    between atoms: C_2  and  C_3
REMARK    2  A    between atoms: C_3  and  O_4
REMARK    3  A    between atoms: O_4  and  C_5
REMARK    4  A    between atoms: C_12  and  C_17
REMARK    5  A    between atoms: C_17  and  C_19
REMARK                            x       y       z     vdW  Elec       q    Type
REMARK                         _______ _______ _______ _____ _____    ______ ____
ROOT
ATOM      5  C   UNL     1      -2.566  -0.643  24.367  0.00  0.00    +0.134 A 
ATOM      6  C   UNL     1      -3.289  -1.037  24.438  0.00  0.00    +0.032 A 
ATOM      7  C   UNL     1      -3.988  -0.605  24.501  0.00  0.00    -0.023 A 
ATOM      8  C   UNL     1      -4.710  -0.999  24.571  0.00  0.00    +0.031 C 
ATOM      9  C   UNL     1      -3.967   0.219  24.495  0.00  0.00    -0.030 A 
ATOM     10  C   UNL     1      -4.667   0.651  24.559  0.00  0.00    +0.026 C 
ATOM     11  C   UNL     1      -4.645   1.475  24.553  0.00  0.00    +0.005 C 
ATOM     12  C   UNL     1      -3.922   1.869  24.483  0.00  0.00    +0.013 C 
ATOM     13  C   UNL     1      -3.223   1.437  24.419  0.00  0.00    +0.026 C 
ATOM     14  C   UNL     1      -3.244   0.612  24.425  0.00  0.00    -0.027 A 
ATOM     15  C   UNL     1      -2.544   0.181  24.361  0.00  0.00    +0.008 A 
ATOM     16  C   UNL     1      -1.822   0.574  24.291  0.00  0.00    +0.034 C 
ENDROOT
BRANCH  12  17
ATOM     17  C   UNL     1      -3.901   2.693  24.476  0.00  0.00    +0.077 C 
ATOM     18  C   UNL     1      -4.010   3.103  23.769  0.00  0.00    +0.010 C 
BRANCH  17  19
ATOM     19  C   UNL     1      -3.772   3.109  25.177  0.00  0.00    +0.225 C 
ATOM     20  O   UNL     1      -4.248   2.965  25.836  0.00  0.00    -0.275 OA
ATOM     21  N   UNL     1      -3.167   3.668  25.220  0.00  0.00    -0.279 N 
ATOM     22  C   UNL     1      -3.037   4.083  25.921  0.00  0.00    +0.096 C 
ATOM     23  C   UNL     1      -2.432   4.642  25.964  0.00  0.00    +0.054 C 
ATOM     24  C   UNL     1      -1.956   4.786  25.305  0.00  0.00    +0.155 C 
ATOM     25  O   UNL     1      -1.351   5.345  25.347  0.00  0.00    -0.223 OA
ATOM     26  C   UNL     1      -2.086   4.370  24.604  0.00  0.00    +0.054 C 
ATOM     27  C   UNL     1      -2.691   3.812  24.562  0.00  0.00    +0.096 C 
ENDBRANCH  17  19
ENDBRANCH  12  17
BRANCH   5   4
ATOM      4  O   UNL     1      -1.866  -1.075  24.304  0.00  0.00    -0.476 OA
BRANCH   4   3
ATOM      3  C   UNL     1      -1.758  -1.758  24.754  0.00  0.00    +0.205 C 
BRANCH   3   2
ATOM      1  C   UNL     1      -0.676  -2.575  25.202  0.00  0.00    +0.004 C 
ATOM      2  C   UNL     1      -1.133  -2.269  24.588  0.00  0.00    +0.047 C 
ENDBRANCH   3   2
ENDBRANCH   4   3
ENDBRANCH   5   4
TORSDOF 5
ENDMDL
MODEL 3
REMARK VINA RESULT:     -11.0      2.643      4.259
REMARK  Name = 
REMARK  5 active torsions:
REMARK  status: ('A' for Active; 'I' for Inactive)
REMARK    1  A    between atoms: C_2  and  C_3
REMARK    2  A    between atoms: C_3  and  O_4
REMARK    3  A    between atoms: O_4  and  C_5
REMARK    4  A    between atoms: C_12  and  C_17
REMARK    5  A    between atoms: C_17  and  C_19
REMARK                            x       y       z     vdW  Elec       q    Type
REMARK                         _______ _______ _______ _____ _____    ______ ____
ROOT
ATOM      5  C   UNL     1      -0.556   1.329  24.297  0.00  0.00    +0.134 A 
ATOM      6  C   UNL     1      -0.058   1.651  24.873  0.00  0.00    +0.032 A 
ATOM      7  C   UNL     1      -0.319   2.279  25.338  0.00  0.00    -0.023 A 
ATOM      8  C   UNL     1       0.178   2.600  25.913  0.00  0.00    +0.031 C 
ATOM      9  C   UNL     1      -1.075   2.588  25.229  0.00  0.00    -0.030 A 
ATOM     10  C   UNL     1      -1.336   3.217  25.695  0.00  0.00    +0.026 C 
ATOM     11  C   UNL     1      -2.093   3.525  25.586  0.00  0.00    +0.005 C 
ATOM     12  C   UNL     1      -2.591   3.204  25.010  0.00  0.00    +0.013 C 
ATOM     13  C   UNL     1      -2.331   2.575  24.545  0.00  0.00    +0.026 C 
ATOM     14  C   UNL     1      -1.573   2.266  24.653  0.00  0.00    -0.027 A 
ATOM     15  C   UNL     1      -1.313   1.638  24.188  0.00  0.00    +0.008 A 
ATOM     16  C   UNL     1      -1.810   1.317  23.613  0.00  0.00    +0.034 C 
ENDROOT
BRANCH  12  17
ATOM     17  C   UNL     1      -3.348   3.513  24.902  0.00  0.00    +0.077 C 
ATOM     18  C   UNL     1      -3.545   3.881  24.190  0.00  0.00    +0.010 C 
BRANCH  17  19
ATOM     19  C   UNL     1      -3.909   3.454  25.503  0.00  0.00    +0.225 C 
ATOM     20  O   UNL     1      -3.782   3.837  26.224  0.00  0.00    -0.275 OA
ATOM     21  N   UNL     1      -4.596   3.012  25.386  0.00  0.00    -0.279 N 
ATOM     22  C   UNL     1      -5.156   2.953  25.988  0.00  0.00    +0.096 C 
ATOM     23  C   UNL     1      -5.843   2.512  25.871  0.00  0.00    +0.054 C 
ATOM     24  C   UNL     1      -5.970   2.129  25.151  0.00  0.00    +0.155 C 
ATOM     25  O   UNL     1      -6.656   1.687  25.033  0.00  0.00    -0.223 OA
ATOM     26  C   UNL     1      -5.409   2.188  24.548  0.00  0.00    +0.054 C 
ATOM     27  C   UNL     1      -4.722   2.630  24.667  0.00  0.00    +0.096 C 
ENDBRANCH  17  19
ENDBRANCH  12  17
BRANCH   5   4
ATOM      4  O   UNL     1      -0.295   0.700  23.831  0.00  0.00    -0.476 OA
BRANCH   4   3
ATOM      3  C   UNL     1       0.506   0.624  23.649  0.00  0.00    +0.205 C 
BRANCH   3   2
ATOM      1  C   UNL     1       1.512   0.002  22.849  0.00  0.00    +0.004 C 
ATOM      2  C   UNL     1       0.770  -0.020  23.208  0.00  0.00    +0.047 C 
ENDBRANCH   3   2
ENDBRANCH   4   3
ENDBRANCH   5   4
TORSDOF 5
ENDMDL
MODEL 4
REMARK VINA RESULT:     -10.9      1.460      5.003
REMARK  Name = 
REMARK  5 active torsions:
REMARK  status: ('A' for Active; 'I' for Inactive)
REMARK    1  A    between atoms: C_2  and  C_3
REMARK    2  A    between atoms: C_3  and  O_4
REMARK    3  A    between atoms: O_4  and  C_5
REMARK    4  A    between atoms: C_12  and  C_17
REMARK    5  A    between atoms: C_17  and  C_19
REMARK                            x       y       z     vdW  Elec       q    Type
REMARK                         _______ _______ _______ _____ _____    ______ ____
ROOT
ATOM      5  C   UNL     1      -3.913  -0.110  24.411  0.00  0.00    +0.134 A 
ATOM      6  C   UNL     1      -4.670  -0.159  24.739  0.00  0.00    +0.032 A 
ATOM      7  C   UNL     1      -5.074   0.528  24.947  0.00  0.00    -0.023 A 
ATOM      8  C   UNL     1      -5.829   0.479  25.275  0.00  0.00    +0.031 C 
ATOM      9  C   UNL     1      -4.724   1.265  24.829  0.00  0.00    -0.030 A 
ATOM     10  C   UNL     1      -5.128   1.953  25.037  0.00  0.00    +0.026 C 
ATOM     11  C   UNL     1      -4.778   2.690  24.918  0.00  0.00    +0.005 C 
ATOM     12  C   UNL     1      -4.021   2.739  24.590  0.00  0.00    +0.013 C 
ATOM     13  C   UNL     1      -3.617   2.052  24.382  0.00  0.00    +0.026 C 
ATOM     14  C   UNL     1      -3.967   1.314  24.500  0.00  0.00    -0.027 A 
ATOM     15  C   UNL     1      -3.563   0.627  24.292  0.00  0.00    +0.008 A 
ATOM     16  C   UNL     1      -2.808   0.676  23.964  0.00  0.00    +0.034 C 
ENDROOT
BRANCH  12  17
ATOM     17  C   UNL     1      -3.671   3.477  24.471  0.00  0.00    +0.077 C 
ATOM     18  C   UNL     1      -3.681   3.822  23.722  0.00  0.00    +0.010 C 
BRANCH  17  19
ATOM     19  C   UNL     1      -3.312   3.870  25.101  0.00  0.00    +0.225 C 
ATOM     20  O   UNL     1      -3.724   3.980  25.808  0.00  0.00    -0.275 OA
ATOM     21  N   UNL     1      -2.540   4.153  25.025  0.00  0.00    -0.279 N 
ATOM     22  C   UNL     1      -2.181   4.545  25.654  0.00  0.00    +0.096 C 
ATOM     23  C   UNL     1      -1.409   4.829  25.579  0.00  0.00    +0.054 C 
ATOM     24  C   UNL     1      -0.998   4.718  24.872  0.00  0.00    +0.155 C 
ATOM     25  O   UNL     1      -0.227   5.001  24.795  0.00  0.00    -0.223 OA
ATOM     26  C   UNL     1      -1.357   4.325  24.242  0.00  0.00    +0.054 C 
ATOM     27  C   UNL     1      -2.129   4.043  24.319  0.00  0.00    +0.096 C 
ENDBRANCH  17  19
ENDBRANCH  12  17
BRANCH   5   4
ATOM      4  O   UNL     1      -3.509  -0.798  24.202  0.00  0.00    -0.476 OA
BRANCH   4   3
ATOM      3  C   UNL     1      -3.717  -1.520  24.543  0.00  0.00    +0.205 C 
BRANCH   3   2
ATOM      1  C   UNL     1      -3.446  -2.909  24.736  0.00  0.00    +0.004 C 
ATOM      2  C   UNL     1      -3.340  -2.213  24.306  0.00  0.00    +0.047 C 
ENDBRANCH   3   2
ENDBRANCH   4   3
ENDBRANCH   5   4
TORSDOF 5
ENDMDL
MODEL 5
REMARK VINA RESULT:     -10.5      1.606      2.685
REMARK  Name = 
REMARK  5 active torsions:
REMARK  status: ('A' for Active; 'I' for Inactive)
REMARK    1  A    between atoms: C_2  and  C_3
REMARK    2  A    between atoms: C_3  and  O_4
REMARK    3  A    between atoms: O_4  and  C_5
REMARK    4  A    between atoms: C_12  and  C_17
REMARK    5  A    between atoms: C_17  and  C_19
REMARK                            x       y       z     vdW  Elec       q    Type
REMARK                         _______ _______ _______ _____ _____    ______ ____
ROOT
ATOM      5  C   UNL     1      -1.353   2.668  24.783  0.00  0.00    +0.134 A 
ATOM      6  C   UNL     1      -0.568   2.572  24.546  0.00  0.00    +0.032 A 
ATOM      7  C   UNL     1      -0.226   1.822  24.547  0.00  0.00    -0.023 A 
ATOM      8  C   UNL     1       0.558   1.726  24.310  0.00  0.00    +0.031 C 
ATOM      9  C   UNL     1      -0.668   1.167  24.783  0.00  0.00    -0.030 A 
ATOM     10  C   UNL     1      -0.327   0.416  24.784  0.00  0.00    +0.026 C 
ATOM     11  C   UNL     1      -0.769  -0.238  25.021  0.00  0.00    +0.005 C 
ATOM     12  C   UNL     1      -1.554  -0.142  25.258  0.00  0.00    +0.013 C 
ATOM     13  C   UNL     1      -1.896   0.608  25.257  0.00  0.00    +0.026 C 
ATOM     14  C   UNL     1      -1.454   1.263  25.020  0.00  0.00    -0.027 A 
ATOM     15  C   UNL     1      -1.795   2.014  25.020  0.00  0.00    +0.008 A 
ATOM     16  C   UNL     1      -2.580   2.110  25.256  0.00  0.00    +0.034 C 
ENDROOT
BRANCH  12  17
ATOM     17  C   UNL     1      -1.996  -0.797  25.495  0.00  0.00    +0.077 C 
ATOM     18  C   UNL     1      -2.453  -0.760  26.181  0.00  0.00    +0.010 C 
BRANCH  17  19
ATOM     19  C   UNL     1      -1.982  -1.489  25.046  0.00  0.00    +0.225 C 
ATOM     20  O   UNL     1      -1.272  -1.896  24.938  0.00  0.00    -0.275 OA
ATOM     21  N   UNL     1      -2.677  -1.775  24.705  0.00  0.00    -0.279 N 
ATOM     22  C   UNL     1      -2.663  -2.466  24.257  0.00  0.00    +0.096 C 
ATOM     23  C   UNL     1      -3.359  -2.752  23.916  0.00  0.00    +0.054 C 
ATOM     24  C   UNL     1      -4.068  -2.345  24.024  0.00  0.00    +0.155 C 
ATOM     25  O   UNL     1      -4.763  -2.630  23.684  0.00  0.00    -0.223 OA
ATOM     26  C   UNL     1      -4.082  -1.653  24.474  0.00  0.00    +0.054 C 
ATOM     27  C   UNL     1      -3.387  -1.368  24.814  0.00  0.00    +0.096 C 
ENDBRANCH  17  19
ENDBRANCH  12  17
BRANCH   5   4
ATOM      4  O   UNL     1      -1.695   3.419  24.782  0.00  0.00    -0.476 OA
BRANCH   4   3
ATOM      3  C   UNL     1      -1.244   4.079  24.990  0.00  0.00    +0.205 C 
BRANCH   3   2
ATOM      1  C   UNL     1      -1.153   5.504  24.989  0.00  0.00    +0.004 C 
ATOM      2  C   UNL     1      -1.603   4.817  25.063  0.00  0.00    +0.047 C 
ENDBRANCH   3   2
ENDBRANCH   4   3
ENDBRANCH   5   4
TORSDOF 5
ENDMDL
MODEL 6
REMARK VINA RESULT:     -10.5      1.866      5.306
REMARK  Name = 
REMARK  5 active torsions:
REMARK  status: ('A' for Active; 'I' for Inactive)
REMARK    1  A    between atoms: C_2  and  C_3
REMARK    2  A    between atoms: C_3  and  O_4
REMARK    3  A    between atoms: O_4  and  C_5
REMARK    4  A    between atoms: C_12  and  C_17
REMARK    5  A    between atoms: C_17  and  C_19
REMARK                            x       y       z     vdW  Elec       q    Type
REMARK                         _______ _______ _______ _____ _____    ______ ____
ROOT
ATOM      5  C   UNL     1      -2.212  -1.148  25.018  0.00  0.00    +0.134 A 
ATOM      6  C   UNL     1      -1.436  -1.312  24.789  0.00  0.00    +0.032 A 
ATOM      7  C   UNL     1      -0.908  -0.693  24.654  0.00  0.00    -0.023 A 
ATOM      8  C   UNL     1      -0.132  -0.856  24.425  0.00  0.00    +0.031 C 
ATOM      9  C   UNL     1      -1.154   0.088  24.748  0.00  0.00    -0.030 A 
ATOM     10  C   UNL     1      -0.626   0.707  24.613  0.00  0.00    +0.026 C 
ATOM     11  C   UNL     1      -0.872   1.488  24.707  0.00  0.00    +0.005 C 
ATOM     12  C   UNL     1      -1.649   1.651  24.936  0.00  0.00    +0.013 C 
ATOM     13  C   UNL     1      -2.177   1.033  25.071  0.00  0.00    +0.026 C 
ATOM     14  C   UNL     1      -1.931   0.251  24.977  0.00  0.00    -0.027 A 
ATOM     15  C   UNL     1      -2.459  -0.367  25.112  0.00  0.00    +0.008 A 
ATOM     16  C   UNL     1      -3.235  -0.205  25.342  0.00  0.00    +0.034 C 
ENDROOT
BRANCH  12  17
ATOM     17  C   UNL     1      -1.895   2.433  25.030  0.00  0.00    +0.077 C 
ATOM     18  C   UNL     1      -1.635   2.872  25.679  0.00  0.00    +0.010 C 
BRANCH  17  19
ATOM     19  C   UNL     1      -2.401   2.776  24.477  0.00  0.00    +0.225 C 
ATOM     20  O   UNL     1      -2.208   2.757  23.674  0.00  0.00    -0.275 OA
ATOM     21  N   UNL     1      -3.100   3.138  24.724  0.00  0.00    -0.279 N 
ATOM     22  C   UNL     1      -3.605   3.481  24.170  0.00  0.00    +0.096 C 
ATOM     23  C   UNL     1      -4.304   3.844  24.418  0.00  0.00    +0.054 C 
ATOM     24  C   UNL     1      -4.497   3.862  25.219  0.00  0.00    +0.155 C 
ATOM     25  O   UNL     1      -5.196   4.224  25.468  0.00  0.00    -0.223 OA
ATOM     26  C   UNL     1      -3.991   3.519  25.774  0.00  0.00    +0.054 C 
ATOM     27  C   UNL     1      -3.293   3.157  25.526  0.00  0.00    +0.096 C 
ENDBRANCH  17  19
ENDBRANCH  12  17
BRANCH   5   4
ATOM      4  O   UNL     1      -2.741  -1.768  25.154  0.00  0.00    -0.476 OA
BRANCH   4   3
ATOM      3  C   UNL     1      -2.861  -2.343  24.574  0.00  0.00    +0.205 C 
BRANCH   3   2
ATOM      1  C   UNL     1      -3.808  -3.267  24.037  0.00  0.00    +0.004 C 
ATOM      2  C   UNL     1      -3.428  -2.930  24.687  0.00  0.00    +0.047 C 
ENDBRANCH   3   2
ENDBRANCH   4   3
ENDBRANCH   5   4
TORSDOF 5
ENDMDL
MODEL 7
REMARK VINA RESULT:     -10.3      1.848      3.035
REMARK  Name = 
REMARK  5 active torsions:
REMARK  status: ('A' for Active; 'I' for Inactive)
REMARK    1  A    between atoms: C_2  and  C_3
REMARK    2  A    between atoms: C_3  and  O_4
REMARK    3  A    between atoms: O_4  and  C_5
REMARK    4  A    between atoms: C_12  and  C_17
REMARK    5  A    between atoms: C_17  and  C_19
REMARK                            x       y       z     vdW  Elec       q    Type
REMARK                         _______ _______ _______ _____ _____    ______ ____
ROOT
ATOM      5  C   UNL     1      -3.410   3.381  24.897  0.00  0.00    +0.134 A 
ATOM      6  C   UNL     1      -2.963   4.044  25.104  0.00  0.00    +0.032 A 
ATOM      7  C   UNL     1      -2.146   3.980  25.193  0.00  0.00    -0.023 A 
ATOM      8  C   UNL     1      -1.700   4.642  25.400  0.00  0.00    +0.031 C 
ATOM      9  C   UNL     1      -1.775   3.253  25.077  0.00  0.00    -0.030 A 
ATOM     10  C   UNL     1      -0.957   3.188  25.167  0.00  0.00    +0.026 C 
ATOM     11  C   UNL     1      -0.585   2.461  25.051  0.00  0.00    +0.005 C 
ATOM     12  C   UNL     1      -1.032   1.797  24.845  0.00  0.00    +0.013 C 
ATOM     13  C   UNL     1      -1.849   1.862  24.755  0.00  0.00    +0.026 C 
ATOM     14  C   UNL     1      -2.221   2.589  24.871  0.00  0.00    -0.027 A 
ATOM     15  C   UNL     1      -3.038   2.654  24.781  0.00  0.00    +0.008 A 
ATOM     16  C   UNL     1      -3.484   1.991  24.575  0.00  0.00    +0.034 C 
ENDROOT
BRANCH  12  17
ATOM     17  C   UNL     1      -0.660   1.070  24.729  0.00  0.00    +0.077 C 
ATOM     18  C   UNL     1      -0.234   0.931  24.036  0.00  0.00    +0.010 C 
BRANCH  17  19
ATOM     19  C   UNL     1      -0.713   0.482  25.304  0.00  0.00    +0.225 C 
ATOM     20  O   UNL     1      -0.576   0.668  26.097  0.00  0.00    -0.275 OA
ATOM     21  N   UNL     1      -0.903  -0.291  25.089  0.00  0.00    -0.279 N 
ATOM     22  C   UNL     1      -0.956  -0.879  25.664  0.00  0.00    +0.096 C 
ATOM     23  C   UNL     1      -1.146  -1.653  25.448  0.00  0.00    +0.054 C 
ATOM     24  C   UNL     1      -1.283  -1.838  24.656  0.00  0.00    +0.155 C 
ATOM     25  O   UNL     1      -1.473  -2.610  24.439  0.00  0.00    -0.223 OA
ATOM     26  C   UNL     1      -1.230  -1.249  24.080  0.00  0.00    +0.054 C 
ATOM     27  C   UNL     1      -1.040  -0.476  24.296  0.00  0.00    +0.096 C 
ENDBRANCH  17  19
ENDBRANCH  12  17
BRANCH   5   4
ATOM      4  O   UNL     1      -4.227   3.446  24.807  0.00  0.00    -0.476 OA
BRANCH   4   3
ATOM      3  C   UNL     1      -4.675   3.846  25.374  0.00  0.00    +0.205 C 
BRANCH   3   2
ATOM      1  C   UNL     1      -5.963   4.375  25.688  0.00  0.00    +0.004 C 
ATOM      2  C   UNL     1      -5.496   3.771  25.379  0.00  0.00    +0.047 C 
ENDBRANCH   3   2
ENDBRANCH   4   3
ENDBRANCH   5   4
TORSDOF 5
ENDMDL
