MODEL 1
REMARK VINA RESULT:     -11.5      0.000      0.000
REMARK  Name = 
REMARK  2 active torsions:
REMARK  status: ('A' for Active; 'I' for Inactive)
REMARK    1  A    between atoms: C_7  and  C_9
REMARK    2  A    between atoms: N_12  and  C_14
REMARK                            x       y       z     vdW  Elec       q    Type
REMARK                         _______ _______ _______ _____ _____    ______ ____
ROOT
ATOM      9  C   UNL     1      -4.002   1.076  24.801  0.00  0.00    +0.076 C 
ATOM     10  C   UNL     1      -4.675   1.531  24.661  0.00  0.00    +0.026 C 
ATOM     11  C   UNL     1      -4.480   2.322  24.787  0.00  0.00    +0.073 C 
ATOM     12  N   UNL     1      -3.686   2.357  25.005  0.00  0.00    -0.273 NA
ATOM     13  C   UNL     1      -3.390   1.586  25.014  0.00  0.00    +0.080 C 
ENDROOT
BRANCH   9   7
ATOM      1  F   UNL     1      -3.425  -3.179  25.248  0.00  0.00    -0.204 F 
ATOM      2  C   UNL     1      -3.624  -2.449  24.920  0.00  0.00    +0.142 A 
ATOM      3  C   UNL     1      -3.516  -1.758  25.355  0.00  0.00    +0.050 A 
ATOM      4  C   UNL     1      -3.715  -1.027  25.027  0.00  0.00    +0.102 A 
ATOM      5  C   UNL     1      -4.023  -0.989  24.262  0.00  0.00    +0.100 A 
ATOM      6  N   UNL     1      -4.167  -0.197  24.085  0.00  0.00    -0.229 NA
ATOM      7  C   UNL     1      -3.949   0.255  24.739  0.00  0.00    +0.140 A 
ATOM      8  N   UNL     1      -3.670  -0.259  25.321  0.00  0.00    -0.229 NA
ATOM     20  C   UNL     1      -4.131  -1.682  23.826  0.00  0.00    +0.023 A 
ATOM     21  C   UNL     1      -3.932  -2.411  24.155  0.00  0.00    +0.031 A 
ENDBRANCH   9   7
BRANCH  12  14
ATOM     14  C   UNL     1      -3.261   3.041  25.183  0.00  0.00    +0.063 C 
ATOM     15  C   UNL     1      -2.617   3.260  24.716  0.00  0.00    +0.048 C 
ATOM     16  C   UNL     1      -2.192   3.944  24.894  0.00  0.00    +0.144 C 
ATOM     17  O   UNL     1      -2.410   4.409  25.539  0.00  0.00    -0.354 OA
ATOM     18  C   UNL     1      -3.053   4.191  26.006  0.00  0.00    +0.144 C 
ATOM     19  C   UNL     1      -3.479   3.507  25.829  0.00  0.00    +0.048 C 
ENDBRANCH  12  14
TORSDOF 2
ENDMDL
MODEL 2
REMARK VINA RESULT:     -11.2      2.547      4.952
REMARK  Name = 
REMARK  2 active torsions:
REMARK  status: ('A' for Active; 'I' for Inactive)
REMARK    1  A    between atoms: C_7  and  C_9
REMARK    2  A    between atoms: N_12  and  C_14
REMARK                            x       y       z     vdW  Elec       q    Type
REMARK                         _______ _______ _______ _____ _____    ______ ____
ROOT
ATOM      9  C   UNL     1      -3.377   1.669  24.853  0.00  0.00    +0.076 C 
ATOM     10  C   UNL     1      -4.198   1.680  24.783  0.00  0.00    +0.026 C 
ATOM     11  C   UNL     1      -4.462   0.899  24.737  0.00  0.00    +0.073 C 
ATOM     12  N   UNL     1      -3.802   0.406  24.779  0.00  0.00    -0.273 NA
ATOM     13  C   UNL     1      -3.131   0.882  24.851  0.00  0.00    +0.080 C 
ENDROOT
BRANCH   9   7
ATOM      1  F   UNL     1      -1.491   5.504  25.462  0.00  0.00    -0.204 F 
ATOM      2  C   UNL     1      -1.599   4.711  25.263  0.00  0.00    +0.142 A 
ATOM      3  C   UNL     1      -2.339   4.360  25.355  0.00  0.00    +0.050 A 
ATOM      4  C   UNL     1      -2.449   3.567  25.156  0.00  0.00    +0.102 A 
ATOM      5  C   UNL     1      -1.816   3.125  24.863  0.00  0.00    +0.100 A 
ATOM      6  N   UNL     1      -2.087   2.361  24.714  0.00  0.00    -0.229 NA
ATOM      7  C   UNL     1      -2.886   2.330  24.915  0.00  0.00    +0.140 A 
ATOM      8  N   UNL     1      -3.109   3.075  25.187  0.00  0.00    -0.229 NA
ATOM     20  C   UNL     1      -1.075   3.476  24.770  0.00  0.00    +0.023 A 
ATOM     21  C   UNL     1      -0.967   4.269  24.970  0.00  0.00    +0.031 A 
ENDBRANCH   9   7
BRANCH  12  14
ATOM     14  C   UNL     1      -3.810  -0.419  24.754  0.00  0.00    +0.063 C 
ATOM     15  C   UNL     1      -3.563  -0.854  25.409  0.00  0.00    +0.048 C 
ATOM     16  C   UNL     1      -3.572  -1.678  25.384  0.00  0.00    +0.144 C 
ATOM     17  O   UNL     1      -3.827  -2.068  24.704  0.00  0.00    -0.354 OA
ATOM     18  C   UNL     1      -4.075  -1.634  24.048  0.00  0.00    +0.144 C 
ATOM     19  C   UNL     1      -4.066  -0.809  24.073  0.00  0.00    +0.048 C 
ENDBRANCH  12  14
TORSDOF 2
ENDMDL
