MODEL 1
REMARK VINA RESULT:     -11.2      0.000      0.000
REMARK  Name = 
REMARK  6 active torsions:
REMARK  status: ('A' for Active; 'I' for Inactive)
REMARK    1  A    between atoms: N_2  and  C_4
REMARK    2  A    between atoms: C_7  and  C_10
REMARK    3  A    between atoms: C_13  and  C_15
REMARK    4  A    between atoms: N_19  and  C_20
REMARK    5  A    between atoms: C_20  and  C_21
REMARK    6  A    between atoms: C_25  and  C_27
REMARK                            x       y       z     vdW  Elec       q    Type
REMARK                         _______ _______ _______ _____ _____    ______ ____
ROOT
ATOM     10  C   UNL     1      -4.204   0.539  24.861  0.00  0.00    +0.205 A 
ATOM     11  N   UNL     1      -4.745   0.834  25.410  0.00  0.00    -0.056 NA
ATOM     12  O   UNL     1      -4.784   1.653  25.315  0.00  0.00    -0.336 OA
ATOM     13  C   UNL     1      -4.267   1.864  24.708  0.00  0.00    +0.251 A 
ATOM     14  N   UNL     1      -3.908   1.176  24.427  0.00  0.00    -0.190 NA
ENDROOT
BRANCH  10   7
ATOM      4  C   UNL     1      -3.578  -1.837  24.568  0.00  0.00    +0.132 A 
ATOM      5  C   UNL     1      -3.979  -1.439  23.967  0.00  0.00    +0.034 A 
ATOM      6  C   UNL     1      -4.188  -0.647  24.064  0.00  0.00    +0.008 A 
ATOM      7  C   UNL     1      -3.995  -0.253  24.763  0.00  0.00    +0.058 A 
ATOM      8  C   UNL     1      -3.594  -0.650  25.364  0.00  0.00    +0.103 A 
ATOM      9  N   UNL     1      -3.385  -1.442  25.266  0.00  0.00    -0.229 NA
BRANCH   4   2
ATOM      1  C   UNL     1      -2.585  -2.864  24.572  0.00  0.00    +0.114 C 
ATOM      2  N   UNL     1      -3.369  -2.629  24.470  0.00  0.00    -0.290 N 
ATOM      3  C   UNL     1      -3.945  -3.186  24.271  0.00  0.00    +0.114 C 
ENDBRANCH   4   2
ENDBRANCH  10   7
BRANCH  13  15
ATOM     15  C   UNL     1      -4.132   2.629  24.430  0.00  0.00    +0.138 C 
ATOM     16  C   UNL     1      -4.535   2.998  23.811  0.00  0.00    +0.027 C 
ATOM     17  C   UNL     1      -4.222   3.757  23.720  0.00  0.00    +0.019 C 
ATOM     18  C   UNL     1      -3.626   3.856  24.282  0.00  0.00    +0.073 C 
ATOM     19  N   UNL     1      -3.570   3.159  24.721  0.00  0.00    -0.263 NA
BRANCH  19  20
ATOM     20  C   UNL     1      -3.046   3.017  25.341  0.00  0.00    +0.099 C 
BRANCH  20  21
ATOM     21  C   UNL     1      -2.297   3.363  25.335  0.00  0.00    -0.005 A 
ATOM     22  C   UNL     1      -2.217   4.176  25.456  0.00  0.00    -0.003 A 
ATOM     23  C   UNL     1      -1.469   4.522  25.450  0.00  0.00    +0.000 A 
ATOM     24  C   UNL     1      -0.800   4.056  25.324  0.00  0.00    +0.010 A 
ATOM     25  C   UNL     1      -0.879   3.244  25.204  0.00  0.00    +0.068 A 
ATOM     26  C   UNL     1      -1.628   2.898  25.210  0.00  0.00    +0.007 A 
BRANCH  25  27
ATOM     27  C   UNL     1      -0.209   2.777  25.078  0.00  0.00    +0.100 C 
ATOM     28  N   UNL     1       0.459   2.312  24.953  0.00  0.00    -0.191 NA
ENDBRANCH  25  27
ENDBRANCH  20  21
ENDBRANCH  19  20
ENDBRANCH  13  15
TORSDOF 6
ENDMDL
MODEL 2
REMARK VINA RESULT:     -10.6      1.646      2.925
REMARK  Name = 
REMARK  6 active torsions:
REMARK  status: ('A' for Active; 'I' for Inactive)
REMARK    1  A    between atoms: N_2  and  C_4
REMARK    2  A    between atoms: C_7  and  C_10
REMARK    3  A    between atoms: C_13  and  C_15
REMARK    4  A    between atoms: N_19  and  C_20
REMARK    5  A    between atoms: C_20  and  C_21
REMARK    6  A    between atoms: C_25  and  C_27
REMARK                            x       y       z     vdW  Elec       q    Type
REMARK                         _______ _______ _______ _____ _____    ______ ____
ROOT
ATOM     10  C   UNL     1      -1.378   0.099  24.645  0.00  0.00    +0.205 A 
ATOM     11  N   UNL     1      -0.810   0.293  24.079  0.00  0.00    -0.056 NA
ATOM     12  O   UNL     1      -0.387   0.946  24.356  0.00  0.00    -0.336 OA
ATOM     13  C   UNL     1      -0.694   1.155  25.092  0.00  0.00    +0.251 A 
ATOM     14  N   UNL     1      -1.307   0.631  25.271  0.00  0.00    -0.190 NA
ENDROOT
BRANCH  10   7
ATOM      4  C   UNL     1      -3.011  -1.754  24.490  0.00  0.00    +0.132 A 
ATOM      5  C   UNL     1      -3.274  -0.972  24.495  0.00  0.00    +0.034 A 
ATOM      6  C   UNL     1      -2.730  -0.354  24.547  0.00  0.00    +0.008 A 
ATOM      7  C   UNL     1      -1.922  -0.519  24.593  0.00  0.00    +0.058 A 
ATOM      8  C   UNL     1      -1.659  -1.300  24.588  0.00  0.00    +0.103 A 
ATOM      9  N   UNL     1      -2.204  -1.918  24.536  0.00  0.00    -0.229 NA
BRANCH   4   2
ATOM      1  C   UNL     1      -3.494  -3.019  24.946  0.00  0.00    +0.114 C 
ATOM      2  N   UNL     1      -3.555  -2.372  24.438  0.00  0.00    -0.290 N 
ATOM      3  C   UNL     1      -4.160  -2.343  23.878  0.00  0.00    +0.114 C 
ENDBRANCH   4   2
ENDBRANCH  10   7
BRANCH  13  15
ATOM     15  C   UNL     1      -0.434   1.777  25.567  0.00  0.00    +0.138 C 
ATOM     16  C   UNL     1       0.081   1.715  26.208  0.00  0.00    +0.027 C 
ATOM     17  C   UNL     1       0.190   2.471  26.522  0.00  0.00    +0.019 C 
ATOM     18  C   UNL     1      -0.259   2.999  26.075  0.00  0.00    +0.073 C 
ATOM     19  N   UNL     1      -0.644   2.571  25.484  0.00  0.00    -0.263 NA
BRANCH  19  20
ATOM     20  C   UNL     1      -1.151   2.881  24.912  0.00  0.00    +0.099 C 
BRANCH  20  21
ATOM     21  C   UNL     1      -1.632   3.526  25.093  0.00  0.00    -0.005 A 
ATOM     22  C   UNL     1      -1.322   4.290  25.078  0.00  0.00    -0.003 A 
ATOM     23  C   UNL     1      -1.804   4.934  25.259  0.00  0.00    +0.000 A 
ATOM     24  C   UNL     1      -2.596   4.815  25.456  0.00  0.00    +0.010 A 
ATOM     25  C   UNL     1      -2.907   4.051  25.472  0.00  0.00    +0.068 A 
ATOM     26  C   UNL     1      -2.424   3.406  25.290  0.00  0.00    +0.007 A 
BRANCH  25  27
ATOM     27  C   UNL     1      -3.699   3.932  25.669  0.00  0.00    +0.100 C 
ATOM     28  N   UNL     1      -4.491   3.813  25.866  0.00  0.00    -0.191 NA
ENDBRANCH  25  27
ENDBRANCH  20  21
ENDBRANCH  19  20
ENDBRANCH  13  15
TORSDOF 6
ENDMDL
MODEL 3
REMARK VINA RESULT:      -9.7      1.861      3.237
REMARK  Name = 
REMARK  6 active torsions:
REMARK  status: ('A' for Active; 'I' for Inactive)
REMARK    1  A    between atoms: N_2  and  C_4
REMARK    2  A    between atoms: C_7  and  C_10
REMARK    3  A    between atoms: C_13  and  C_15
REMARK    4  A    between atoms: N_19  and  C_20
REMARK    5  A    between atoms: C_20  and  C_21
REMARK    6  A    between atoms: C_25  and  C_27
REMARK                            x       y       z     vdW  Elec       q    Type
REMARK                         _______ _______ _______ _____ _____    ______ ____
ROOT
ATOM     10  C   UNL     1      -1.426   1.263  24.350  0.00  0.00    +0.205 A 
ATOM     11  N   UNL     1      -1.284   1.669  23.645  0.00  0.00    -0.056 NA
ATOM     12  O   UNL     1      -1.447   2.467  23.773  0.00  0.00    -0.336 OA
ATOM     13  C   UNL     1      -1.690   2.556  24.557  0.00  0.00    +0.251 A 
ATOM     14  N   UNL     1      -1.677   1.811  24.913  0.00  0.00    -0.190 NA
ENDROOT
BRANCH  10   7
ATOM      4  C   UNL     1      -1.147  -1.169  24.711  0.00  0.00    +0.132 A 
ATOM      5  C   UNL     1      -1.879  -0.813  24.848  0.00  0.00    +0.034 A 
ATOM      6  C   UNL     1      -1.972  -0.002  24.728  0.00  0.00    +0.008 A 
ATOM      7  C   UNL     1      -1.333   0.452  24.471  0.00  0.00    +0.058 A 
ATOM      8  C   UNL     1      -0.602   0.097  24.333  0.00  0.00    +0.103 A 
ATOM      9  N   UNL     1      -0.509  -0.714  24.454  0.00  0.00    -0.229 NA
BRANCH   4   2
ATOM      1  C   UNL     1      -0.420  -2.261  25.277  0.00  0.00    +0.114 C 
ATOM      2  N   UNL     1      -1.054  -1.980  24.831  0.00  0.00    -0.290 N 
ATOM      3  C   UNL     1      -1.597  -2.510  24.505  0.00  0.00    +0.114 C 
ENDBRANCH   4   2
ENDBRANCH  10   7
BRANCH  13  15
ATOM     15  C   UNL     1      -1.908   3.263  24.920  0.00  0.00    +0.138 C 
ATOM     16  C   UNL     1      -1.413   3.753  25.363  0.00  0.00    +0.027 C 
ATOM     17  C   UNL     1      -1.858   4.399  25.622  0.00  0.00    +0.019 C 
ATOM     18  C   UNL     1      -2.627   4.307  25.339  0.00  0.00    +0.073 C 
ATOM     19  N   UNL     1      -2.658   3.606  24.905  0.00  0.00    -0.263 NA
BRANCH  19  20
ATOM     20  C   UNL     1      -3.323   3.300  24.524  0.00  0.00    +0.099 C 
BRANCH  20  21
ATOM     21  C   UNL     1      -4.070   3.390  24.862  0.00  0.00    -0.005 A 
ATOM     22  C   UNL     1      -4.405   4.142  24.929  0.00  0.00    -0.003 A 
ATOM     23  C   UNL     1      -5.151   4.232  25.267  0.00  0.00    +0.000 A 
ATOM     24  C   UNL     1      -5.564   3.571  25.537  0.00  0.00    +0.010 A 
ATOM     25  C   UNL     1      -5.231   2.820  25.470  0.00  0.00    +0.068 A 
ATOM     26  C   UNL     1      -4.483   2.730  25.132  0.00  0.00    +0.007 A 
BRANCH  25  27
ATOM     27  C   UNL     1      -5.643   2.158  25.741  0.00  0.00    +0.100 C 
ATOM     28  N   UNL     1      -6.056   1.497  26.010  0.00  0.00    -0.191 NA
ENDBRANCH  25  27
ENDBRANCH  20  21
ENDBRANCH  19  20
ENDBRANCH  13  15
TORSDOF 6
ENDMDL
MODEL 4
REMARK VINA RESULT:      -9.7      2.424      4.180
REMARK  Name = 
REMARK  6 active torsions:
REMARK  status: ('A' for Active; 'I' for Inactive)
REMARK    1  A    between atoms: N_2  and  C_4
REMARK    2  A    between atoms: C_7  and  C_10
REMARK    3  A    between atoms: C_13  and  C_15
REMARK    4  A    between atoms: N_19  and  C_20
REMARK    5  A    between atoms: C_20  and  C_21
REMARK    6  A    between atoms: C_25  and  C_27
REMARK                            x       y       z     vdW  Elec       q    Type
REMARK                         _______ _______ _______ _____ _____    ______ ____
ROOT
ATOM     10  C   UNL     1      -0.955   0.007  24.490  0.00  0.00    +0.205 A 
ATOM     11  N   UNL     1      -0.989  -0.079  25.311  0.00  0.00    -0.056 NA
ATOM     12  O   UNL     1      -1.783  -0.062  25.536  0.00  0.00    -0.336 OA
ATOM     13  C   UNL     1      -2.239   0.034  24.855  0.00  0.00    +0.251 A 
ATOM     14  N   UNL     1      -1.728   0.076  24.209  0.00  0.00    -0.190 NA
ENDROOT
BRANCH  10   7
ATOM      4  C   UNL     1       1.103   0.047  23.116  0.00  0.00    +0.132 A 
ATOM      5  C   UNL     1       0.761   0.755  23.369  0.00  0.00    +0.034 A 
ATOM      6  C   UNL     1       0.075   0.742  23.827  0.00  0.00    +0.008 A 
ATOM      7  C   UNL     1      -0.269   0.020  24.032  0.00  0.00    +0.058 A 
ATOM      8  C   UNL     1       0.072  -0.687  23.780  0.00  0.00    +0.103 A 
ATOM      9  N   UNL     1       0.758  -0.673  23.322  0.00  0.00    -0.229 NA
BRANCH   4   2
ATOM      1  C   UNL     1       1.787  -0.271  21.904  0.00  0.00    +0.114 C 
ATOM      2  N   UNL     1       1.789   0.061  22.658  0.00  0.00    -0.290 N 
ATOM      3  C   UNL     1       2.476   0.407  22.956  0.00  0.00    +0.114 C 
ENDBRANCH   4   2
ENDBRANCH  10   7
BRANCH  13  15
ATOM     15  C   UNL     1      -3.062   0.079  24.826  0.00  0.00    +0.138 C 
ATOM     16  C   UNL     1      -3.580  -0.558  24.737  0.00  0.00    +0.027 C 
ATOM     17  C   UNL     1      -4.350  -0.261  24.736  0.00  0.00    +0.019 C 
ATOM     18  C   UNL     1      -4.309   0.558  24.823  0.00  0.00    +0.073 C 
ATOM     19  N   UNL     1      -3.512   0.768  24.879  0.00  0.00    -0.263 NA
BRANCH  19  20
ATOM     20  C   UNL     1      -3.219   1.533  24.971  0.00  0.00    +0.099 C 
BRANCH  20  21
ATOM     21  C   UNL     1      -3.654   2.178  24.696  0.00  0.00    -0.005 A 
ATOM     22  C   UNL     1      -3.558   2.439  23.919  0.00  0.00    -0.003 A 
ATOM     23  C   UNL     1      -3.993   3.084  23.645  0.00  0.00    +0.000 A 
ATOM     24  C   UNL     1      -4.523   3.468  24.146  0.00  0.00    +0.010 A 
ATOM     25  C   UNL     1      -4.619   3.208  24.923  0.00  0.00    +0.068 A 
ATOM     26  C   UNL     1      -4.183   2.562  25.198  0.00  0.00    +0.007 A 
BRANCH  25  27
ATOM     27  C   UNL     1      -5.149   3.592  25.426  0.00  0.00    +0.100 C 
ATOM     28  N   UNL     1      -5.679   3.976  25.927  0.00  0.00    -0.191 NA
ENDBRANCH  25  27
ENDBRANCH  20  21
ENDBRANCH  19  20
ENDBRANCH  13  15
TORSDOF 6
ENDMDL
MODEL 5
REMARK VINA RESULT:      -9.6      1.928      5.725
REMARK  Name = 
REMARK  6 active torsions:
REMARK  status: ('A' for Active; 'I' for Inactive)
REMARK    1  A    between atoms: N_2  and  C_4
REMARK    2  A    between atoms: C_7  and  C_10
REMARK    3  A    between atoms: C_13  and  C_15
REMARK    4  A    between atoms: N_19  and  C_20
REMARK    5  A    between atoms: C_20  and  C_21
REMARK    6  A    between atoms: C_25  and  C_27
REMARK                            x       y       z     vdW  Elec       q    Type
REMARK                         _______ _______ _______ _____ _____    ______ ____
ROOT
ATOM     10  C   UNL     1      -1.071   1.879  24.206  0.00  0.00    +0.205 A 
ATOM     11  N   UNL     1      -0.954   1.649  23.422  0.00  0.00    -0.056 NA
ATOM     12  O   UNL     1      -0.815   0.836  23.414  0.00  0.00    -0.336 OA
ATOM     13  C   UNL     1      -0.845   0.564  24.192  0.00  0.00    +0.251 A 
ATOM     14  N   UNL     1      -1.003   1.209  24.682  0.00  0.00    -0.190 NA
ENDROOT
BRANCH  10   7
ATOM      4  C   UNL     1      -1.541   4.179  24.992  0.00  0.00    +0.132 A 
ATOM      5  C   UNL     1      -0.780   3.867  25.059  0.00  0.00    +0.034 A 
ATOM      6  C   UNL     1      -0.623   3.101  24.797  0.00  0.00    +0.008 A 
ATOM      7  C   UNL     1      -1.228   2.646  24.468  0.00  0.00    +0.058 A 
ATOM      8  C   UNL     1      -1.988   2.957  24.401  0.00  0.00    +0.103 A 
ATOM      9  N   UNL     1      -2.145   3.723  24.663  0.00  0.00    -0.229 NA
BRANCH   4   2
ATOM      1  C   UNL     1      -1.218   5.570  25.010  0.00  0.00    +0.114 C 
ATOM      2  N   UNL     1      -1.698   4.946  25.253  0.00  0.00    -0.290 N 
ATOM      3  C   UNL     1      -2.335   5.086  25.759  0.00  0.00    +0.114 C 
ENDBRANCH   4   2
ENDBRANCH  10   7
BRANCH  13  15
ATOM     15  C   UNL     1      -0.736  -0.216  24.438  0.00  0.00    +0.138 C 
ATOM     16  C   UNL     1      -0.021  -0.628  24.441  0.00  0.00    +0.027 C 
ATOM     17  C   UNL     1      -0.166  -1.388  24.729  0.00  0.00    +0.019 C 
ATOM     18  C   UNL     1      -0.970  -1.445  24.905  0.00  0.00    +0.073 C 
ATOM     19  N   UNL     1      -1.322  -0.721  24.725  0.00  0.00    -0.263 NA
BRANCH  19  20
ATOM     20  C   UNL     1      -2.121  -0.534  24.816  0.00  0.00    +0.099 C 
BRANCH  20  21
ATOM     21  C   UNL     1      -2.666  -1.128  24.990  0.00  0.00    -0.005 A 
ATOM     22  C   UNL     1      -2.778  -1.370  25.771  0.00  0.00    -0.003 A 
ATOM     23  C   UNL     1      -3.323  -1.964  25.945  0.00  0.00    +0.000 A 
ATOM     24  C   UNL     1      -3.756  -2.316  25.338  0.00  0.00    +0.010 A 
ATOM     25  C   UNL     1      -3.645  -2.075  24.557  0.00  0.00    +0.068 A 
ATOM     26  C   UNL     1      -3.099  -1.481  24.383  0.00  0.00    +0.007 A 
BRANCH  25  27
ATOM     27  C   UNL     1      -4.079  -2.428  23.949  0.00  0.00    +0.100 C 
ATOM     28  N   UNL     1      -4.512  -2.779  23.342  0.00  0.00    -0.191 NA
ENDBRANCH  25  27
ENDBRANCH  20  21
ENDBRANCH  19  20
ENDBRANCH  13  15
TORSDOF 6
ENDMDL
MODEL 6
REMARK VINA RESULT:      -9.5      1.129      5.086
REMARK  Name = 
REMARK  6 active torsions:
REMARK  status: ('A' for Active; 'I' for Inactive)
REMARK    1  A    between atoms: N_2  and  C_4
REMARK    2  A    between atoms: C_7  and  C_10
REMARK    3  A    between atoms: C_13  and  C_15
REMARK    4  A    between atoms: N_19  and  C_20
REMARK    5  A    between atoms: C_20  and  C_21
REMARK    6  A    between atoms: C_25  and  C_27
REMARK                            x       y       z     vdW  Elec       q    Type
REMARK                         _______ _______ _______ _____ _____    ______ ____
ROOT
ATOM     10  C   UNL     1      -3.375   3.083  24.478  0.00  0.00    +0.205 A 
ATOM     11  N   UNL     1      -3.884   3.180  23.836  0.00  0.00    -0.056 NA
ATOM     12  O   UNL     1      -4.526   2.671  23.939  0.00  0.00    -0.336 OA
ATOM     13  C   UNL     1      -4.413   2.259  24.645  0.00  0.00    +0.251 A 
ATOM     14  N   UNL     1      -3.702   2.514  24.978  0.00  0.00    -0.190 NA
ENDROOT
BRANCH  10   7
ATOM      4  C   UNL     1      -1.244   4.288  24.840  0.00  0.00    +0.132 A 
ATOM      5  C   UNL     1      -1.943   4.576  25.173  0.00  0.00    +0.034 A 
ATOM      6  C   UNL     1      -2.653   4.174  25.052  0.00  0.00    +0.008 A 
ATOM      7  C   UNL     1      -2.665   3.485  24.599  0.00  0.00    +0.058 A 
ATOM      8  C   UNL     1      -1.967   3.197  24.267  0.00  0.00    +0.103 A 
ATOM      9  N   UNL     1      -1.257   3.598  24.388  0.00  0.00    -0.229 NA
BRANCH   4   2
ATOM      1  C   UNL     1       0.123   4.286  25.256  0.00  0.00    +0.114 C 
ATOM      2  N   UNL     1      -0.533   4.689  24.961  0.00  0.00    -0.290 N 
ATOM      3  C   UNL     1      -0.480   5.494  24.787  0.00  0.00    +0.114 C 
ENDBRANCH   4   2
ENDBRANCH  10   7
BRANCH  13  15
ATOM     15  C   UNL     1      -4.921   1.693  24.963  0.00  0.00    +0.138 C 
ATOM     16  C   UNL     1      -5.635   1.843  25.349  0.00  0.00    +0.027 C 
ATOM     17  C   UNL     1      -5.960   1.119  25.575  0.00  0.00    +0.019 C 
ATOM     18  C   UNL     1      -5.447   0.521  25.329  0.00  0.00    +0.073 C 
ATOM     19  N   UNL     1      -4.805   0.876  24.950  0.00  0.00    -0.263 NA
BRANCH  19  20
ATOM     20  C   UNL     1      -4.161   0.482  24.618  0.00  0.00    +0.099 C 
BRANCH  20  21
ATOM     21  C   UNL     1      -3.978  -0.285  24.857  0.00  0.00    -0.005 A 
ATOM     22  C   UNL     1      -3.661  -0.419  25.608  0.00  0.00    -0.003 A 
ATOM     23  C   UNL     1      -3.478  -1.187  25.847  0.00  0.00    +0.000 A 
ATOM     24  C   UNL     1      -3.612  -1.821  25.337  0.00  0.00    +0.010 A 
ATOM     25  C   UNL     1      -3.929  -1.688  24.587  0.00  0.00    +0.068 A 
ATOM     26  C   UNL     1      -4.112  -0.920  24.348  0.00  0.00    +0.007 A 
BRANCH  25  27
ATOM     27  C   UNL     1      -4.063  -2.323  24.077  0.00  0.00    +0.100 C 
ATOM     28  N   UNL     1      -4.197  -2.957  23.567  0.00  0.00    -0.191 NA
ENDBRANCH  25  27
ENDBRANCH  20  21
ENDBRANCH  19  20
ENDBRANCH  13  15
TORSDOF 6
ENDMDL
MODEL 7
REMARK VINA RESULT:      -9.5      1.887      5.099
REMARK  Name = 
REMARK  6 active torsions:
REMARK  status: ('A' for Active; 'I' for Inactive)
REMARK    1  A    between atoms: N_2  and  C_4
REMARK    2  A    between atoms: C_7  and  C_10
REMARK    3  A    between atoms: C_13  and  C_15
REMARK    4  A    between atoms: N_19  and  C_20
REMARK    5  A    between atoms: C_20  and  C_21
REMARK    6  A    between atoms: C_25  and  C_27
REMARK                            x       y       z     vdW  Elec       q    Type
REMARK                         _______ _______ _______ _____ _____    ______ ____
ROOT
ATOM     10  C   UNL     1      -2.026   2.196  25.171  0.00  0.00    +0.205 A 
ATOM     11  N   UNL     1      -1.366   2.344  25.644  0.00  0.00    -0.056 NA
ATOM     12  O   UNL     1      -0.762   1.835  25.404  0.00  0.00    -0.336 OA
ATOM     13  C   UNL     1      -1.049   1.373  24.784  0.00  0.00    +0.251 A 
ATOM     14  N   UNL     1      -1.830   1.596  24.640  0.00  0.00    -0.190 NA
ENDROOT
BRANCH  10   7
ATOM      4  C   UNL     1      -4.210   3.351  25.321  0.00  0.00    +0.132 A 
ATOM      5  C   UNL     1      -4.148   2.636  24.913  0.00  0.00    +0.034 A 
ATOM      6  C   UNL     1      -3.420   2.251  24.863  0.00  0.00    +0.008 A 
ATOM      7  C   UNL     1      -2.754   2.581  25.221  0.00  0.00    +0.058 A 
ATOM      8  C   UNL     1      -2.815   3.295  25.629  0.00  0.00    +0.103 A 
ATOM      9  N   UNL     1      -3.543   3.680  25.679  0.00  0.00    -0.229 NA
BRANCH   4   2
ATOM      1  C   UNL     1      -5.007   4.520  25.127  0.00  0.00    +0.114 C 
ATOM      2  N   UNL     1      -4.938   3.736  25.371  0.00  0.00    -0.290 N 
ATOM      3  C   UNL     1      -5.596   3.336  25.667  0.00  0.00    +0.114 C 
ENDBRANCH   4   2
ENDBRANCH  10   7
BRANCH  13  15
ATOM     15  C   UNL     1      -0.629   0.790  24.378  0.00  0.00    +0.138 C 
ATOM     16  C   UNL     1      -0.084   0.918  23.771  0.00  0.00    +0.027 C 
ATOM     17  C   UNL     1       0.202   0.184  23.526  0.00  0.00    +0.019 C 
ATOM     18  C   UNL     1      -0.166  -0.397  23.981  0.00  0.00    +0.073 C 
ATOM     19  N   UNL     1      -0.679  -0.023  24.508  0.00  0.00    -0.263 NA
BRANCH  19  20
ATOM     20  C   UNL     1      -1.159  -0.396  25.066  0.00  0.00    +0.099 C 
BRANCH  20  21
ATOM     21  C   UNL     1      -1.471  -1.143  24.908  0.00  0.00    -0.005 A 
ATOM     22  C   UNL     1      -0.997  -1.814  24.986  0.00  0.00    -0.003 A 
ATOM     23  C   UNL     1      -1.310  -2.560  24.828  0.00  0.00    +0.000 A 
ATOM     24  C   UNL     1      -2.096  -2.637  24.591  0.00  0.00    +0.010 A 
ATOM     25  C   UNL     1      -2.571  -1.966  24.512  0.00  0.00    +0.068 A 
ATOM     26  C   UNL     1      -2.257  -1.219  24.671  0.00  0.00    +0.007 A 
BRANCH  25  27
ATOM     27  C   UNL     1      -3.358  -2.042  24.275  0.00  0.00    +0.100 C 
ATOM     28  N   UNL     1      -4.144  -2.118  24.038  0.00  0.00    -0.191 NA
ENDBRANCH  25  27
ENDBRANCH  20  21
ENDBRANCH  19  20
ENDBRANCH  13  15
TORSDOF 6
ENDMDL
MODEL 8
REMARK VINA RESULT:      -9.4      1.996      4.131
REMARK  Name = 
REMARK  6 active torsions:
REMARK  status: ('A' for Active; 'I' for Inactive)
REMARK    1  A    between atoms: N_2  and  C_4
REMARK    2  A    between atoms: C_7  and  C_10
REMARK    3  A    between atoms: C_13  and  C_15
REMARK    4  A    between atoms: N_19  and  C_20
REMARK    5  A    between atoms: C_20  and  C_21
REMARK    6  A    between atoms: C_25  and  C_27
REMARK                            x       y       z     vdW  Elec       q    Type
REMARK                         _______ _______ _______ _____ _____    ______ ____
ROOT
ATOM     10  C   UNL     1      -3.077   2.811  24.930  0.00  0.00    +0.205 A 
ATOM     11  N   UNL     1      -2.801   3.420  24.446  0.00  0.00    -0.056 NA
ATOM     12  O   UNL     1      -1.976   3.414  24.475  0.00  0.00    -0.336 OA
ATOM     13  C   UNL     1      -1.742   2.803  24.976  0.00  0.00    +0.251 A 
ATOM     14  N   UNL     1      -2.423   2.430  25.258  0.00  0.00    -0.190 NA
ENDROOT
BRANCH  10   7
ATOM      4  C   UNL     1      -5.450   2.233  25.329  0.00  0.00    +0.132 A 
ATOM      5  C   UNL     1      -4.951   1.693  24.954  0.00  0.00    +0.034 A 
ATOM      6  C   UNL     1      -4.160   1.886  24.821  0.00  0.00    +0.008 A 
ATOM      7  C   UNL     1      -3.868   2.619  25.063  0.00  0.00    +0.058 A 
ATOM      8  C   UNL     1      -4.366   3.158  25.438  0.00  0.00    +0.103 A 
ATOM      9  N   UNL     1      -5.157   2.965  25.571  0.00  0.00    -0.229 NA
BRANCH   4   2
ATOM      1  C   UNL     1      -6.522   1.962  26.233  0.00  0.00    +0.114 C 
ATOM      2  N   UNL     1      -6.241   2.040  25.462  0.00  0.00    -0.290 N 
ATOM      3  C   UNL     1      -6.751   1.927  24.823  0.00  0.00    +0.114 C 
ENDBRANCH   4   2
ENDBRANCH  10   7
BRANCH  13  15
ATOM     15  C   UNL     1      -0.966   2.599  25.164  0.00  0.00    +0.138 C 
ATOM     16  C   UNL     1      -0.508   2.933  25.764  0.00  0.00    +0.027 C 
ATOM     17  C   UNL     1       0.231   2.565  25.756  0.00  0.00    +0.019 C 
ATOM     18  C   UNL     1       0.230   2.005  25.151  0.00  0.00    +0.073 C 
ATOM     19  N   UNL     1      -0.509   2.025  24.785  0.00  0.00    -0.263 NA
BRANCH  19  20
ATOM     20  C   UNL     1      -0.750   1.555  24.151  0.00  0.00    +0.099 C 
BRANCH  20  21
ATOM     21  C   UNL     1      -0.413   0.811  24.038  0.00  0.00    -0.005 A 
ATOM     22  C   UNL     1       0.252   0.728  23.556  0.00  0.00    -0.003 A 
ATOM     23  C   UNL     1       0.589  -0.016  23.443  0.00  0.00    +0.000 A 
ATOM     24  C   UNL     1       0.262  -0.677  23.812  0.00  0.00    +0.010 A 
ATOM     25  C   UNL     1      -0.402  -0.595  24.294  0.00  0.00    +0.068 A 
ATOM     26  C   UNL     1      -0.739   0.150  24.407  0.00  0.00    +0.007 A 
BRANCH  25  27
ATOM     27  C   UNL     1      -0.729  -1.257  24.664  0.00  0.00    +0.100 C 
ATOM     28  N   UNL     1      -1.056  -1.918  25.033  0.00  0.00    -0.191 NA
ENDBRANCH  25  27
ENDBRANCH  20  21
ENDBRANCH  19  20
ENDBRANCH  13  15
TORSDOF 6
ENDMDL
