MODEL 1
REMARK VINA RESULT:     -10.5      0.000      0.000
REMARK  Name = 
REMARK  6 active torsions:
REMARK  status: ('A' for Active; 'I' for Inactive)
REMARK    1  A    between atoms: N_2  and  C_3
REMARK    2  A    between atoms: C_6  and  C_9
REMARK    3  A    between atoms: C_12  and  C_14
REMARK    4  A    between atoms: N_18  and  C_19
REMARK    5  A    between atoms: C_19  and  C_20
REMARK    6  A    between atoms: C_23  and  N_26
REMARK                            x       y       z     vdW  Elec       q    Type
REMARK                         _______ _______ _______ _____ _____    ______ ____
ROOT
ATOM     14  C   UNL     1      -4.839   1.754  24.941  0.00  0.00    +0.138 C 
ATOM     15  C   UNL     1      -5.561   1.871  25.323  0.00  0.00    +0.027 C 
ATOM     16  C   UNL     1      -5.871   1.132  25.515  0.00  0.00    +0.019 C 
ATOM     17  C   UNL     1      -5.340   0.556  25.252  0.00  0.00    +0.073 C 
ATOM     18  N   UNL     1      -4.702   0.942  24.897  0.00  0.00    -0.263 NA
ENDROOT
BRANCH  14  12
ATOM      9  C   UNL     1      -3.339   3.222  24.549  0.00  0.00    +0.205 A 
ATOM     10  N   UNL     1      -3.809   3.290  23.874  0.00  0.00    -0.056 NA
ATOM     11  O   UNL     1      -4.428   2.748  23.938  0.00  0.00    -0.336 OA
ATOM     12  C   UNL     1      -4.341   2.345  24.653  0.00  0.00    +0.251 A 
ATOM     13  N   UNL     1      -3.668   2.639  25.031  0.00  0.00    -0.190 NA
BRANCH   9   6
ATOM      3  C   UNL     1      -1.303   4.540  25.043  0.00  0.00    +0.148 A 
ATOM      4  C   UNL     1      -2.037   4.793  25.323  0.00  0.00    +0.036 A 
ATOM      5  C   UNL     1      -2.715   4.354  25.158  0.00  0.00    +0.008 A 
ATOM      6  C   UNL     1      -2.661   3.661  24.714  0.00  0.00    +0.058 A 
ATOM      7  C   UNL     1      -1.927   3.407  24.433  0.00  0.00    +0.103 A 
ATOM      8  N   UNL     1      -1.249   3.847  24.598  0.00  0.00    -0.228 NA
BRANCH   3   2
ATOM      1  C   UNL     1      -0.276   5.437  24.615  0.00  0.00    +0.137 C 
ATOM      2  N   UNL     1      -0.624   4.979  25.207  0.00  0.00    -0.218 NA
ENDBRANCH   3   2
ENDBRANCH   9   6
ENDBRANCH  14  12
BRANCH  18  19
ATOM     19  C   UNL     1      -4.044   0.578  24.558  0.00  0.00    +0.099 C 
BRANCH  19  20
ATOM     20  C   UNL     1      -3.955  -0.241  24.606  0.00  0.00    -0.006 A 
ATOM     21  C   UNL     1      -3.618  -0.581  25.277  0.00  0.00    -0.001 A 
ATOM     22  C   UNL     1      -3.528  -1.400  25.325  0.00  0.00    +0.024 A 
ATOM     23  C   UNL     1      -3.777  -1.878  24.700  0.00  0.00    +0.143 A 
ATOM     24  C   UNL     1      -4.114  -1.538  24.029  0.00  0.00    +0.024 A 
ATOM     25  C   UNL     1      -4.203  -0.720  23.981  0.00  0.00    -0.001 A 
BRANCH  23  26
ATOM     26  N   UNL     1      -3.687  -2.698  24.748  0.00  0.00    +0.058 N 
ATOM     27  O   UNL     1      -3.331  -3.036  25.412  0.00  0.00    -0.126 OA
ATOM     28  O   UNL     1      -3.954  -3.178  24.133  0.00  0.00    -0.126 OA
ENDBRANCH  23  26
ENDBRANCH  19  20
ENDBRANCH  18  19
TORSDOF 6
ENDMDL
MODEL 2
REMARK VINA RESULT:     -10.1      1.548      5.360
REMARK  Name = 
REMARK  6 active torsions:
REMARK  status: ('A' for Active; 'I' for Inactive)
REMARK    1  A    between atoms: N_2  and  C_3
REMARK    2  A    between atoms: C_6  and  C_9
REMARK    3  A    between atoms: C_12  and  C_14
REMARK    4  A    between atoms: N_18  and  C_19
REMARK    5  A    between atoms: C_19  and  C_20
REMARK    6  A    between atoms: C_23  and  N_26
REMARK                            x       y       z     vdW  Elec       q    Type
REMARK                         _______ _______ _______ _____ _____    ______ ____
ROOT
ATOM     14  C   UNL     1      -4.615   2.089  24.829  0.00  0.00    +0.138 C 
ATOM     15  C   UNL     1      -5.259   2.433  24.444  0.00  0.00    +0.027 C 
ATOM     16  C   UNL     1      -5.086   3.229  24.318  0.00  0.00    +0.019 C 
ATOM     17  C   UNL     1      -4.334   3.378  24.625  0.00  0.00    +0.073 C 
ATOM     18  N   UNL     1      -4.043   2.673  24.941  0.00  0.00    -0.263 NA
ENDROOT
BRANCH  14  12
ATOM      9  C   UNL     1      -4.224   0.006  25.086  0.00  0.00    +0.205 A 
ATOM     10  N   UNL     1      -4.694   0.163  25.746  0.00  0.00    -0.056 NA
ATOM     11  O   UNL     1      -4.898   0.963  25.730  0.00  0.00    -0.336 OA
ATOM     12  C   UNL     1      -4.554   1.300  25.060  0.00  0.00    +0.251 A 
ATOM     13  N   UNL     1      -4.137   0.709  24.662  0.00  0.00    -0.190 NA
BRANCH   9   6
ATOM      3  C   UNL     1      -3.247  -2.186  24.484  0.00  0.00    +0.148 A 
ATOM      4  C   UNL     1      -3.868  -1.875  24.040  0.00  0.00    +0.036 A 
ATOM      5  C   UNL     1      -4.194  -1.145  24.240  0.00  0.00    +0.008 A 
ATOM      6  C   UNL     1      -3.898  -0.725  24.885  0.00  0.00    +0.058 A 
ATOM      7  C   UNL     1      -3.276  -1.035  25.330  0.00  0.00    +0.103 A 
ATOM      8  N   UNL     1      -2.950  -1.765  25.129  0.00  0.00    -0.228 NA
BRANCH   3   2
ATOM      1  C   UNL     1      -2.101  -3.004  24.235  0.00  0.00    +0.137 C 
ATOM      2  N   UNL     1      -2.921  -2.917  24.283  0.00  0.00    -0.218 NA
ENDBRANCH   3   2
ENDBRANCH   9   6
ENDBRANCH  14  12
BRANCH  18  19
ATOM     19  C   UNL     1      -3.310   2.571  25.304  0.00  0.00    +0.099 C 
BRANCH  19  20
ATOM     20  C   UNL     1      -2.733   3.157  25.242  0.00  0.00    -0.006 A 
ATOM     21  C   UNL     1      -2.703   3.767  25.796  0.00  0.00    -0.001 A 
ATOM     22  C   UNL     1      -2.125   4.353  25.733  0.00  0.00    +0.024 A 
ATOM     23  C   UNL     1      -1.579   4.329  25.116  0.00  0.00    +0.143 A 
ATOM     24  C   UNL     1      -1.609   3.719  24.562  0.00  0.00    +0.024 A 
ATOM     25  C   UNL     1      -2.186   3.133  24.624  0.00  0.00    -0.001 A 
BRANCH  23  26
ATOM     26  N   UNL     1      -1.001   4.915  25.053  0.00  0.00    +0.058 N 
ATOM     27  O   UNL     1      -0.208   4.706  24.959  0.00  0.00    -0.126 OA
ATOM     28  O   UNL     1      -1.217   5.711  25.085  0.00  0.00    -0.126 OA
ENDBRANCH  23  26
ENDBRANCH  19  20
ENDBRANCH  18  19
TORSDOF 6
ENDMDL
MODEL 3
REMARK VINA RESULT:      -9.7      2.173      2.984
REMARK  Name = 
REMARK  6 active torsions:
REMARK  status: ('A' for Active; 'I' for Inactive)
REMARK    1  A    between atoms: N_2  and  C_3
REMARK    2  A    between atoms: C_6  and  C_9
REMARK    3  A    between atoms: C_12  and  C_14
REMARK    4  A    between atoms: N_18  and  C_19
REMARK    5  A    between atoms: C_19  and  C_20
REMARK    6  A    between atoms: C_23  and  N_26
REMARK                            x       y       z     vdW  Elec       q    Type
REMARK                         _______ _______ _______ _____ _____    ______ ____
ROOT
ATOM     14  C   UNL     1      -0.485   0.331  24.649  0.00  0.00    +0.138 C 
ATOM     15  C   UNL     1       0.137   0.176  24.128  0.00  0.00    +0.027 C 
ATOM     16  C   UNL     1       0.023  -0.577  23.811  0.00  0.00    +0.019 C 
ATOM     17  C   UNL     1      -0.669  -0.888  24.135  0.00  0.00    +0.073 C 
ATOM     18  N   UNL     1      -0.983  -0.327  24.653  0.00  0.00    -0.263 NA
ENDROOT
BRANCH  14  12
ATOM      9  C   UNL     1      -0.891   2.278  25.424  0.00  0.00    +0.205 A 
ATOM     10  N   UNL     1      -0.612   1.892  26.099  0.00  0.00    -0.056 NA
ATOM     11  O   UNL     1      -0.426   1.116  25.890  0.00  0.00    -0.336 OA
ATOM     12  C   UNL     1      -0.590   1.021  25.087  0.00  0.00    +0.251 A 
ATOM     13  N   UNL     1      -0.877   1.739  24.799  0.00  0.00    -0.190 NA
BRANCH   9   6
ATOM      3  C   UNL     1      -1.638   4.634  25.299  0.00  0.00    +0.148 A 
ATOM      4  C   UNL     1      -0.900   4.418  24.999  0.00  0.00    +0.036 A 
ATOM      5  C   UNL     1      -0.651   3.632  25.041  0.00  0.00    +0.008 A 
ATOM      6  C   UNL     1      -1.140   3.063  25.382  0.00  0.00    +0.058 A 
ATOM      7  C   UNL     1      -1.878   3.278  25.683  0.00  0.00    +0.103 A 
ATOM      8  N   UNL     1      -2.127   4.063  25.641  0.00  0.00    -0.228 NA
BRANCH   3   2
ATOM      1  C   UNL     1      -1.408   5.984  24.893  0.00  0.00    +0.137 C 
ATOM      2  N   UNL     1      -1.887   5.419  25.257  0.00  0.00    -0.218 NA
ENDBRANCH   3   2
ENDBRANCH   9   6
ENDBRANCH  14  12
BRANCH  18  19
ATOM     19  C   UNL     1      -1.673  -0.410  25.097  0.00  0.00    +0.099 C 
BRANCH  19  20
ATOM     20  C   UNL     1      -2.255  -0.943  24.859  0.00  0.00    -0.006 A 
ATOM     21  C   UNL     1      -2.183  -1.743  25.046  0.00  0.00    -0.001 A 
ATOM     22  C   UNL     1      -2.766  -2.278  24.808  0.00  0.00    +0.024 A 
ATOM     23  C   UNL     1      -3.420  -2.010  24.382  0.00  0.00    +0.143 A 
ATOM     24  C   UNL     1      -3.492  -1.211  24.195  0.00  0.00    +0.024 A 
ATOM     25  C   UNL     1      -2.910  -0.677  24.433  0.00  0.00    -0.001 A 
BRANCH  23  26
ATOM     26  N   UNL     1      -4.003  -2.545  24.144  0.00  0.00    +0.058 N 
ATOM     27  O   UNL     1      -3.920  -3.348  24.314  0.00  0.00    -0.126 OA
ATOM     28  O   UNL     1      -4.667  -2.274  23.737  0.00  0.00    -0.126 OA
ENDBRANCH  23  26
ENDBRANCH  19  20
ENDBRANCH  18  19
TORSDOF 6
ENDMDL
MODEL 4
REMARK VINA RESULT:      -9.7      2.409      6.192
REMARK  Name = 
REMARK  6 active torsions:
REMARK  status: ('A' for Active; 'I' for Inactive)
REMARK    1  A    between atoms: N_2  and  C_3
REMARK    2  A    between atoms: C_6  and  C_9
REMARK    3  A    between atoms: C_12  and  C_14
REMARK    4  A    between atoms: N_18  and  C_19
REMARK    5  A    between atoms: C_19  and  C_20
REMARK    6  A    between atoms: C_23  and  N_26
REMARK                            x       y       z     vdW  Elec       q    Type
REMARK                         _______ _______ _______ _____ _____    ______ ____
ROOT
ATOM     14  C   UNL     1      -0.253   0.708  24.542  0.00  0.00    +0.138 C 
ATOM     15  C   UNL     1       0.347   0.661  23.977  0.00  0.00    +0.027 C 
ATOM     16  C   UNL     1       0.627   1.424  23.838  0.00  0.00    +0.019 C 
ATOM     17  C   UNL     1       0.200   1.944  24.317  0.00  0.00    +0.073 C 
ATOM     18  N   UNL     1      -0.344   1.501  24.752  0.00  0.00    -0.263 NA
ENDROOT
BRANCH  14  12
ATOM      9  C   UNL     1      -1.578  -0.913  24.961  0.00  0.00    +0.205 A 
ATOM     10  N   UNL     1      -1.126  -0.893  25.652  0.00  0.00    -0.056 NA
ATOM     11  O   UNL     1      -0.575  -0.283  25.579  0.00  0.00    -0.336 OA
ATOM     12  C   UNL     1      -0.686   0.074  24.843  0.00  0.00    +0.251 A 
ATOM     13  N   UNL     1      -1.305  -0.315  24.462  0.00  0.00    -0.190 NA
BRANCH   9   6
ATOM      3  C   UNL     1      -3.424  -2.488  24.475  0.00  0.00    +0.148 A 
ATOM      4  C   UNL     1      -3.588  -1.743  24.789  0.00  0.00    +0.036 A 
ATOM      5  C   UNL     1      -2.973  -1.218  24.951  0.00  0.00    +0.008 A 
ATOM      6  C   UNL     1      -2.193  -1.438  24.799  0.00  0.00    +0.058 A 
ATOM      7  C   UNL     1      -2.027  -2.183  24.485  0.00  0.00    +0.103 A 
ATOM      8  N   UNL     1      -2.643  -2.708  24.323  0.00  0.00    -0.228 NA
BRANCH   3   2
ATOM      1  C   UNL     1      -4.526  -2.888  23.658  0.00  0.00    +0.137 C 
ATOM      2  N   UNL     1      -4.039  -3.013  24.313  0.00  0.00    -0.218 NA
ENDBRANCH   3   2
ENDBRANCH   9   6
ENDBRANCH  14  12
BRANCH  18  19
ATOM     19  C   UNL     1      -0.883   1.798  25.300  0.00  0.00    +0.099 C 
BRANCH  19  20
ATOM     20  C   UNL     1      -1.074   2.601  25.298  0.00  0.00    -0.006 A 
ATOM     21  C   UNL     1      -1.742   2.865  24.893  0.00  0.00    -0.001 A 
ATOM     22  C   UNL     1      -1.933   3.668  24.891  0.00  0.00    +0.024 A 
ATOM     23  C   UNL     1      -1.454   4.206  25.294  0.00  0.00    +0.143 A 
ATOM     24  C   UNL     1      -0.786   3.942  25.699  0.00  0.00    +0.024 A 
ATOM     25  C   UNL     1      -0.596   3.139  25.701  0.00  0.00    -0.001 A 
BRANCH  23  26
ATOM     26  N   UNL     1      -1.645   5.009  25.292  0.00  0.00    +0.058 N 
ATOM     27  O   UNL     1      -1.133   5.554  24.942  0.00  0.00    -0.126 OA
ATOM     28  O   UNL     1      -2.348   5.267  25.640  0.00  0.00    -0.126 OA
ENDBRANCH  23  26
ENDBRANCH  19  20
ENDBRANCH  18  19
TORSDOF 6
ENDMDL
MODEL 5
REMARK VINA RESULT:      -9.7      3.172      5.000
REMARK  Name = 
REMARK  6 active torsions:
REMARK  status: ('A' for Active; 'I' for Inactive)
REMARK    1  A    between atoms: N_2  and  C_3
REMARK    2  A    between atoms: C_6  and  C_9
REMARK    3  A    between atoms: C_12  and  C_14
REMARK    4  A    between atoms: N_18  and  C_19
REMARK    5  A    between atoms: C_19  and  C_20
REMARK    6  A    between atoms: C_23  and  N_26
REMARK                            x       y       z     vdW  Elec       q    Type
REMARK                         _______ _______ _______ _____ _____    ______ ____
ROOT
ATOM     14  C   UNL     1      -1.046   3.905  25.130  0.00  0.00    +0.138 C 
ATOM     15  C   UNL     1      -0.793   4.679  24.992  0.00  0.00    +0.027 C 
ATOM     16  C   UNL     1      -1.446   5.177  25.065  0.00  0.00    +0.019 C 
ATOM     17  C   UNL     1      -2.103   4.712  25.250  0.00  0.00    +0.073 C 
ATOM     18  N   UNL     1      -1.855   3.926  25.290  0.00  0.00    -0.263 NA
ENDROOT
BRANCH  14  12
ATOM      9  C   UNL     1       0.054   2.130  24.688  0.00  0.00    +0.205 A 
ATOM     10  N   UNL     1       0.259   2.252  25.479  0.00  0.00    -0.056 NA
ATOM     11  O   UNL     1      -0.129   2.932  25.740  0.00  0.00    -0.336 OA
ATOM     12  C   UNL     1      -0.572   3.230  25.112  0.00  0.00    +0.251 A 
ATOM     13  N   UNL     1      -0.459   2.734  24.462  0.00  0.00    -0.190 NA
BRANCH   9   6
ATOM      3  C   UNL     1       0.843   0.276  23.251  0.00  0.00    +0.148 A 
ATOM      4  C   UNL     1       0.096   0.240  23.598  0.00  0.00    +0.036 A 
ATOM      5  C   UNL     1      -0.167   0.858  24.077  0.00  0.00    +0.008 A 
ATOM      6  C   UNL     1       0.317   1.512  24.209  0.00  0.00    +0.058 A 
ATOM      7  C   UNL     1       1.065   1.549  23.863  0.00  0.00    +0.103 A 
ATOM      8  N   UNL     1       1.328   0.931  23.384  0.00  0.00    -0.228 NA
BRANCH   3   2
ATOM      1  C   UNL     1       1.788  -0.248  22.316  0.00  0.00    +0.137 C 
ATOM      2  N   UNL     1       1.106  -0.342  22.772  0.00  0.00    -0.218 NA
ENDBRANCH   3   2
ENDBRANCH   9   6
ENDBRANCH  14  12
BRANCH  18  19
ATOM     19  C   UNL     1      -2.333   3.276  25.459  0.00  0.00    +0.099 C 
BRANCH  19  20
ATOM     20  C   UNL     1      -3.153   3.360  25.481  0.00  0.00    -0.006 A 
ATOM     21  C   UNL     1      -3.518   3.667  26.154  0.00  0.00    -0.001 A 
ATOM     22  C   UNL     1      -4.339   3.752  26.176  0.00  0.00    +0.024 A 
ATOM     23  C   UNL     1      -4.794   3.530  25.524  0.00  0.00    +0.143 A 
ATOM     24  C   UNL     1      -4.428   3.223  24.851  0.00  0.00    +0.024 A 
ATOM     25  C   UNL     1      -3.608   3.139  24.829  0.00  0.00    -0.001 A 
BRANCH  23  26
ATOM     26  N   UNL     1      -5.614   3.615  25.547  0.00  0.00    +0.058 N 
ATOM     27  O   UNL     1      -5.949   4.358  25.676  0.00  0.00    -0.126 OA
ATOM     28  O   UNL     1      -6.100   2.956  25.439  0.00  0.00    -0.126 OA
ENDBRANCH  23  26
ENDBRANCH  19  20
ENDBRANCH  18  19
TORSDOF 6
ENDMDL
MODEL 6
REMARK VINA RESULT:      -9.3      2.704      5.067
REMARK  Name = 
REMARK  6 active torsions:
REMARK  status: ('A' for Active; 'I' for Inactive)
REMARK    1  A    between atoms: N_2  and  C_3
REMARK    2  A    between atoms: C_6  and  C_9
REMARK    3  A    between atoms: C_12  and  C_14
REMARK    4  A    between atoms: N_18  and  C_19
REMARK    5  A    between atoms: C_19  and  C_20
REMARK    6  A    between atoms: C_23  and  N_26
REMARK                            x       y       z     vdW  Elec       q    Type
REMARK                         _______ _______ _______ _____ _____    ______ ____
ROOT
ATOM     14  C   UNL     1      -1.246   3.313  24.826  0.00  0.00    +0.138 C 
ATOM     15  C   UNL     1      -0.787   3.905  25.172  0.00  0.00    +0.027 C 
ATOM     16  C   UNL     1      -1.283   4.538  25.356  0.00  0.00    +0.019 C 
ATOM     17  C   UNL     1      -2.049   4.337  25.125  0.00  0.00    +0.073 C 
ATOM     18  N   UNL     1      -2.026   3.579  24.797  0.00  0.00    -0.263 NA
ENDROOT
BRANCH  14  12
ATOM      9  C   UNL     1      -0.719   1.274  24.473  0.00  0.00    +0.205 A 
ATOM     10  N   UNL     1      -0.385   1.642  23.814  0.00  0.00    -0.056 NA
ATOM     11  O   UNL     1      -0.542   2.451  23.866  0.00  0.00    -0.336 OA
ATOM     12  C   UNL     1      -0.973   2.583  24.557  0.00  0.00    +0.251 A 
ATOM     13  N   UNL     1      -1.082   1.856  24.932  0.00  0.00    -0.190 NA
BRANCH   9   6
ATOM      3  C   UNL     1      -0.645  -1.146  24.982  0.00  0.00    +0.148 A 
ATOM      4  C   UNL     1      -1.073  -0.635  25.468  0.00  0.00    +0.036 A 
ATOM      5  C   UNL     1      -1.098   0.172  25.298  0.00  0.00    +0.008 A 
ATOM      6  C   UNL     1      -0.695   0.467  24.643  0.00  0.00    +0.058 A 
ATOM      7  C   UNL     1      -0.266  -0.043  24.156  0.00  0.00    +0.103 A 
ATOM      8  N   UNL     1      -0.242  -0.850  24.326  0.00  0.00    -0.228 NA
BRANCH   3   2
ATOM      1  C   UNL     1      -1.261  -2.436  24.956  0.00  0.00    +0.137 C 
ATOM      2  N   UNL     1      -0.620  -1.953  25.152  0.00  0.00    -0.218 NA
ENDBRANCH   3   2
ENDBRANCH   9   6
ENDBRANCH  14  12
BRANCH  18  19
ATOM     19  C   UNL     1      -2.670   3.163  24.494  0.00  0.00    +0.099 C 
BRANCH  19  20
ATOM     20  C   UNL     1      -3.426   3.293  24.797  0.00  0.00    -0.006 A 
ATOM     21  C   UNL     1      -3.958   3.772  24.387  0.00  0.00    -0.001 A 
ATOM     22  C   UNL     1      -4.714   3.903  24.690  0.00  0.00    +0.024 A 
ATOM     23  C   UNL     1      -4.938   3.554  25.404  0.00  0.00    +0.143 A 
ATOM     24  C   UNL     1      -4.406   3.075  25.814  0.00  0.00    +0.024 A 
ATOM     25  C   UNL     1      -3.650   2.945  25.511  0.00  0.00    -0.001 A 
BRANCH  23  26
ATOM     26  N   UNL     1      -5.694   3.684  25.707  0.00  0.00    +0.058 N 
ATOM     27  O   UNL     1      -6.032   4.436  25.665  0.00  0.00    -0.126 OA
ATOM     28  O   UNL     1      -6.112   3.063  26.053  0.00  0.00    -0.126 OA
ENDBRANCH  23  26
ENDBRANCH  19  20
ENDBRANCH  18  19
TORSDOF 6
ENDMDL
MODEL 7
REMARK VINA RESULT:      -9.1      2.945      4.493
REMARK  Name = 
REMARK  6 active torsions:
REMARK  status: ('A' for Active; 'I' for Inactive)
REMARK    1  A    between atoms: N_2  and  C_3
REMARK    2  A    between atoms: C_6  and  C_9
REMARK    3  A    between atoms: C_12  and  C_14
REMARK    4  A    between atoms: N_18  and  C_19
REMARK    5  A    between atoms: C_19  and  C_20
REMARK    6  A    between atoms: C_23  and  N_26
REMARK                            x       y       z     vdW  Elec       q    Type
REMARK                         _______ _______ _______ _____ _____    ______ ____
ROOT
ATOM     14  C   UNL     1      -2.847  -0.154  25.154  0.00  0.00    +0.138 C 
ATOM     15  C   UNL     1      -3.198  -0.850  25.426  0.00  0.00    +0.027 C 
ATOM     16  C   UNL     1      -4.016  -0.744  25.415  0.00  0.00    +0.019 C 
ATOM     17  C   UNL     1      -4.171   0.018  25.137  0.00  0.00    +0.073 C 
ATOM     18  N   UNL     1      -3.448   0.382  24.976  0.00  0.00    -0.263 NA
ENDROOT
BRANCH  14  12
ATOM      9  C   UNL     1      -0.813   0.087  24.553  0.00  0.00    +0.205 A 
ATOM     10  N   UNL     1      -0.768   0.291  25.351  0.00  0.00    -0.056 NA
ATOM     11  O   UNL     1      -1.525   0.225  25.674  0.00  0.00    -0.336 OA
ATOM     12  C   UNL     1      -2.037  -0.019  25.075  0.00  0.00    +0.251 A 
ATOM     13  N   UNL     1      -1.597  -0.104  24.382  0.00  0.00    -0.190 NA
BRANCH   9   6
ATOM      3  C   UNL     1       1.074   0.057  22.952  0.00  0.00    +0.148 A 
ATOM      4  C   UNL     1       0.763   0.776  23.209  0.00  0.00    +0.036 A 
ATOM      5  C   UNL     1       0.134   0.786  23.743  0.00  0.00    +0.008 A 
ATOM      6  C   UNL     1      -0.184   0.077  24.019  0.00  0.00    +0.058 A 
ATOM      7  C   UNL     1       0.127  -0.643  23.762  0.00  0.00    +0.103 A 
ATOM      8  N   UNL     1       0.756  -0.653  23.228  0.00  0.00    -0.228 NA
BRANCH   3   2
ATOM      1  C   UNL     1       2.478   0.122  22.693  0.00  0.00    +0.137 C 
ATOM      2  N   UNL     1       1.703   0.047  22.418  0.00  0.00    -0.218 NA
ENDBRANCH   3   2
ENDBRANCH   9   6
ENDBRANCH  14  12
BRANCH  18  19
ATOM     19  C   UNL     1      -3.345   1.148  24.687  0.00  0.00    +0.099 C 
BRANCH  19  20
ATOM     20  C   UNL     1      -3.884   1.739  24.886  0.00  0.00    -0.006 A 
ATOM     21  C   UNL     1      -3.666   2.337  25.411  0.00  0.00    -0.001 A 
ATOM     22  C   UNL     1      -4.206   2.929  25.610  0.00  0.00    +0.024 A 
ATOM     23  C   UNL     1      -4.963   2.923  25.283  0.00  0.00    +0.143 A 
ATOM     24  C   UNL     1      -5.181   2.326  24.757  0.00  0.00    +0.024 A 
ATOM     25  C   UNL     1      -4.642   1.735  24.558  0.00  0.00    -0.001 A 
BRANCH  23  26
ATOM     26  N   UNL     1      -5.502   3.516  25.481  0.00  0.00    +0.058 N 
ATOM     27  O   UNL     1      -5.349   4.300  25.273  0.00  0.00    -0.126 OA
ATOM     28  O   UNL     1      -6.194   3.323  25.888  0.00  0.00    -0.126 OA
ENDBRANCH  23  26
ENDBRANCH  19  20
ENDBRANCH  18  19
TORSDOF 6
ENDMDL
MODEL 8
REMARK VINA RESULT:      -9.0      3.322      4.733
REMARK  Name = 
REMARK  6 active torsions:
REMARK  status: ('A' for Active; 'I' for Inactive)
REMARK    1  A    between atoms: N_2  and  C_3
REMARK    2  A    between atoms: C_6  and  C_9
REMARK    3  A    between atoms: C_12  and  C_14
REMARK    4  A    between atoms: N_18  and  C_19
REMARK    5  A    between atoms: C_19  and  C_20
REMARK    6  A    between atoms: C_23  and  N_26
REMARK                            x       y       z     vdW  Elec       q    Type
REMARK                         _______ _______ _______ _____ _____    ______ ____
ROOT
ATOM     14  C   UNL     1      -1.806  -0.571  24.853  0.00  0.00    +0.138 C 
ATOM     15  C   UNL     1      -1.717  -1.164  25.421  0.00  0.00    +0.027 C 
ATOM     16  C   UNL     1      -0.916  -1.353  25.469  0.00  0.00    +0.019 C 
ATOM     17  C   UNL     1      -0.509  -0.877  24.931  0.00  0.00    +0.073 C 
ATOM     18  N   UNL     1      -1.059  -0.394  24.551  0.00  0.00    -0.263 NA
ENDROOT
BRANCH  14  12
ATOM      9  C   UNL     1      -3.570   0.601  24.588  0.00  0.00    +0.205 A 
ATOM     10  N   UNL     1      -3.651   0.051  23.978  0.00  0.00    -0.056 NA
ATOM     11  O   UNL     1      -2.999  -0.455  24.003  0.00  0.00    -0.336 OA
ATOM     12  C   UNL     1      -2.516  -0.218  24.628  0.00  0.00    +0.251 A 
ATOM     13  N   UNL     1      -2.869   0.435  24.990  0.00  0.00    -0.190 NA
BRANCH   9   6
ATOM      3  C   UNL     1      -5.154   2.428  25.118  0.00  0.00    +0.148 A 
ATOM      4  C   UNL     1      -5.325   1.654  25.346  0.00  0.00    +0.036 A 
ATOM      5  C   UNL     1      -4.797   1.045  25.170  0.00  0.00    +0.008 A 
ATOM      6  C   UNL     1      -4.098   1.210  24.765  0.00  0.00    +0.058 A 
ATOM      7  C   UNL     1      -3.926   1.984  24.536  0.00  0.00    +0.103 A 
ATOM      8  N   UNL     1      -4.453   2.593  24.713  0.00  0.00    -0.228 NA
BRANCH   3   2
ATOM      1  C   UNL     1      -5.401   3.749  25.604  0.00  0.00    +0.137 C 
ATOM      2  N   UNL     1      -5.681   3.037  25.295  0.00  0.00    -0.218 NA
ENDBRANCH   3   2
ENDBRANCH   9   6
ENDBRANCH  14  12
BRANCH  18  19
ATOM     19  C   UNL     1      -0.892   0.168  23.970  0.00  0.00    +0.099 C 
BRANCH  19  20
ATOM     20  C   UNL     1      -0.117   0.272  23.709  0.00  0.00    -0.006 A 
ATOM     21  C   UNL     1       0.208  -0.252  23.161  0.00  0.00    -0.001 A 
ATOM     22  C   UNL     1       0.984  -0.148  22.899  0.00  0.00    +0.024 A 
ATOM     23  C   UNL     1       1.434   0.482  23.186  0.00  0.00    +0.143 A 
ATOM     24  C   UNL     1       1.109   1.006  23.733  0.00  0.00    +0.024 A 
ATOM     25  C   UNL     1       0.334   0.902  23.995  0.00  0.00    -0.001 A 
BRANCH  23  26
ATOM     26  N   UNL     1       2.210   0.586  22.924  0.00  0.00    +0.058 N 
ATOM     27  O   UNL     1       2.532   0.067  22.368  0.00  0.00    -0.126 OA
ATOM     28  O   UNL     1       2.663   1.210  23.217  0.00  0.00    -0.126 OA
ENDBRANCH  23  26
ENDBRANCH  19  20
ENDBRANCH  18  19
TORSDOF 6
ENDMDL
