MODEL 1
REMARK VINA RESULT:      -9.7      0.000      0.000
REMARK  Name = 
REMARK  11 active torsions:
REMARK  status: ('A' for Active; 'I' for Inactive)
REMARK    1  A    between atoms: O_2  and  C_3
REMARK    2  A    between atoms: C_3  and  C_5
REMARK    3  A    between atoms: C_8  and  C_9
REMARK    4  A    between atoms: C_9  and  N_10
REMARK    5  A    between atoms: N_10  and  C_11
REMARK    6  A    between atoms: N_10  and  C_21
REMARK    7  A    between atoms: C_11  and  C_12
REMARK    8  A    between atoms: C_15  and  C_18
REMARK    9  A    between atoms: C_24  and  C_25
REMARK   10  A    between atoms: C_25  and  N_26
REMARK   11  A    between atoms: N_26  and  S_27
REMARK                            x       y       z     vdW  Elec       q    Type
REMARK                         _______ _______ _______ _____ _____    ______ ____
ROOT
ATOM     10  N   UNL     1      -2.999   0.746  24.709  0.00  0.00    -0.262 NA
ENDROOT
BRANCH  10  21
ATOM     21  C   UNL     1      -2.175   0.771  24.687  0.00  0.00    +0.121 C 
ATOM     22  C   UNL     1      -1.671   0.727  25.339  0.00  0.00    +0.161 C 
ATOM     23  O   UNL     1      -0.895   0.773  25.064  0.00  0.00    -0.351 OA
ATOM     24  C   UNL     1      -0.919   0.846  24.242  0.00  0.00    +0.166 C 
ATOM     31  C   UNL     1      -1.710   0.844  24.010  0.00  0.00    +0.197 C 
ATOM     32  O   UNL     1      -1.988   0.906  23.235  0.00  0.00    -0.219 OA
BRANCH  24  25
ATOM     25  C   UNL     1      -0.266   0.908  23.741  0.00  0.00    +0.147 C 
BRANCH  25  26
ATOM     26  N   UNL     1       0.393   0.427  23.860  0.00  0.00    -0.079 NA
BRANCH  26  27
ATOM     27  S   UNL     1       1.047   0.493  23.362  0.00  0.00    +0.059 S 
ATOM     28  C   UNL     1       0.905  -0.267  23.074  0.00  0.00    +0.197 C 
ATOM     29  O   UNL     1       1.189   1.254  23.650  0.00  0.00    -0.156 OA
ATOM     30  O   UNL     1       1.701   0.560  22.864  0.00  0.00    -0.156 OA
ENDBRANCH  26  27
ENDBRANCH  25  26
ENDBRANCH  24  25
ENDBRANCH  10  21
BRANCH  10   9
ATOM      9  C   UNL     1      -3.441   1.259  24.238  0.00  0.00    +0.099 C 
BRANCH   9   8
ATOM      5  C   UNL     1      -4.927   2.937  25.289  0.00  0.00    +0.076 A 
ATOM      6  C   UNL     1      -4.108   3.028  25.330  0.00  0.00    +0.006 A 
ATOM      7  C   UNL     1      -3.613   2.468  24.979  0.00  0.00    -0.003 A 
ATOM      8  C   UNL     1      -3.936   1.819  24.589  0.00  0.00    -0.006 A 
ATOM     33  C   UNL     1      -4.755   1.727  24.548  0.00  0.00    -0.003 A 
ATOM     34  C   UNL     1      -5.251   2.286  24.898  0.00  0.00    +0.006 A 
BRANCH   5   3
ATOM      3  C   UNL     1      -5.422   3.496  25.640  0.00  0.00    +0.341 C 
ATOM      4  O   UNL     1      -5.880   3.288  26.294  0.00  0.00    -0.245 OA
BRANCH   3   2
ATOM      1  C   UNL     1      -6.024   4.792  25.619  0.00  0.00    +0.256 C 
ATOM      2  O   UNL     1      -5.459   4.261  25.336  0.00  0.00    -0.441 OA
ENDBRANCH   3   2
ENDBRANCH   5   3
ENDBRANCH   9   8
ENDBRANCH  10   9
BRANCH  10  11
ATOM     11  C   UNL     1      -3.383   0.207  25.203  0.00  0.00    +0.099 C 
BRANCH  11  12
ATOM     12  C   UNL     1      -3.526  -0.562  24.941  0.00  0.00    -0.006 A 
ATOM     13  C   UNL     1      -3.239  -1.204  25.374  0.00  0.00    -0.003 A 
ATOM     14  C   UNL     1      -3.381  -1.973  25.112  0.00  0.00    +0.006 A 
ATOM     15  C   UNL     1      -3.810  -2.101  24.419  0.00  0.00    +0.080 A 
ATOM     16  C   UNL     1      -4.097  -1.459  23.987  0.00  0.00    +0.006 A 
ATOM     17  C   UNL     1      -3.955  -0.689  24.248  0.00  0.00    -0.003 A 
BRANCH  15  18
ATOM     18  C   UNL     1      -3.952  -2.871  24.158  0.00  0.00    +0.388 C 
ATOM     19  O   UNL     1      -3.572  -3.506  24.520  0.00  0.00    -0.241 OA
ATOM     20  O   UNL     1      -4.475  -3.004  23.533  0.00  0.00    -0.241 OA
ENDBRANCH  15  18
ENDBRANCH  11  12
ENDBRANCH  10  11
TORSDOF 11
ENDMDL
MODEL 2
REMARK VINA RESULT:      -9.2      1.796      2.286
REMARK  Name = 
REMARK  11 active torsions:
REMARK  status: ('A' for Active; 'I' for Inactive)
REMARK    1  A    between atoms: O_2  and  C_3
REMARK    2  A    between atoms: C_3  and  C_5
REMARK    3  A    between atoms: C_8  and  C_9
REMARK    4  A    between atoms: C_9  and  N_10
REMARK    5  A    between atoms: N_10  and  C_11
REMARK    6  A    between atoms: N_10  and  C_21
REMARK    7  A    between atoms: C_11  and  C_12
REMARK    8  A    between atoms: C_15  and  C_18
REMARK    9  A    between atoms: C_24  and  C_25
REMARK   10  A    between atoms: C_25  and  N_26
REMARK   11  A    between atoms: N_26  and  S_27
REMARK                            x       y       z     vdW  Elec       q    Type
REMARK                         _______ _______ _______ _____ _____    ______ ____
ROOT
ATOM     10  N   UNL     1      -1.460   0.536  24.668  0.00  0.00    -0.262 NA
ENDROOT
BRANCH  10  21
ATOM     21  C   UNL     1      -0.746   0.273  24.350  0.00  0.00    +0.121 C 
ATOM     22  C   UNL     1      -0.228  -0.266  24.700  0.00  0.00    +0.161 C 
ATOM     23  O   UNL     1       0.413  -0.370  24.193  0.00  0.00    -0.351 OA
ATOM     24  C   UNL     1       0.293   0.105  23.529  0.00  0.00    +0.166 C 
ATOM     31  C   UNL     1      -0.424   0.502  23.626  0.00  0.00    +0.197 C 
ATOM     32  O   UNL     1      -0.759   1.035  23.093  0.00  0.00    -0.219 OA
BRANCH  24  25
ATOM     25  C   UNL     1       0.800   0.171  22.881  0.00  0.00    +0.147 C 
BRANCH  25  26
ATOM     26  N   UNL     1       1.554  -0.162  22.911  0.00  0.00    -0.079 NA
BRANCH  26  27
ATOM     27  S   UNL     1       2.076  -0.058  22.281  0.00  0.00    +0.059 S 
ATOM     28  C   UNL     1       2.625   0.285  22.791  0.00  0.00    +0.197 C 
ATOM     29  O   UNL     1       1.527  -0.403  21.770  0.00  0.00    -0.156 OA
ATOM     30  O   UNL     1       2.597   0.044  21.651  0.00  0.00    -0.156 OA
ENDBRANCH  26  27
ENDBRANCH  25  26
ENDBRANCH  24  25
ENDBRANCH  10  21
BRANCH  10   9
ATOM      9  C   UNL     1      -1.470   0.919  25.398  0.00  0.00    +0.099 C 
BRANCH   9   8
ATOM      5  C   UNL     1      -1.762   3.375  25.505  0.00  0.00    +0.076 A 
ATOM      6  C   UNL     1      -2.347   2.904  25.164  0.00  0.00    +0.006 A 
ATOM      7  C   UNL     1      -2.249   2.085  25.128  0.00  0.00    -0.003 A 
ATOM      8  C   UNL     1      -1.567   1.738  25.434  0.00  0.00    -0.006 A 
ATOM     33  C   UNL     1      -0.982   2.208  25.776  0.00  0.00    -0.003 A 
ATOM     34  C   UNL     1      -1.079   3.026  25.812  0.00  0.00    +0.006 A 
BRANCH   5   3
ATOM      3  C   UNL     1      -1.860   4.193  25.541  0.00  0.00    +0.341 C 
ATOM      4  O   UNL     1      -2.447   4.518  26.022  0.00  0.00    -0.245 OA
BRANCH   3   2
ATOM      1  C   UNL     1      -1.492   5.502  25.101  0.00  0.00    +0.256 C 
ATOM      2  O   UNL     1      -1.371   4.686  25.097  0.00  0.00    -0.441 OA
ENDBRANCH   3   2
ENDBRANCH   5   3
ENDBRANCH   9   8
ENDBRANCH  10   9
BRANCH  10  11
ATOM     11  C   UNL     1      -2.165   0.416  24.256  0.00  0.00    +0.099 C 
BRANCH  11  12
ATOM     12  C   UNL     1      -2.587  -0.285  24.358  0.00  0.00    -0.006 A 
ATOM     13  C   UNL     1      -2.575  -0.671  25.088  0.00  0.00    -0.003 A 
ATOM     14  C   UNL     1      -2.998  -1.372  25.190  0.00  0.00    +0.006 A 
ATOM     15  C   UNL     1      -3.432  -1.687  24.564  0.00  0.00    +0.080 A 
ATOM     16  C   UNL     1      -3.444  -1.302  23.835  0.00  0.00    +0.006 A 
ATOM     17  C   UNL     1      -3.022  -0.600  23.732  0.00  0.00    -0.003 A 
BRANCH  15  18
ATOM     18  C   UNL     1      -3.855  -2.389  24.667  0.00  0.00    +0.388 C 
ATOM     19  O   UNL     1      -4.453  -2.592  24.138  0.00  0.00    -0.241 OA
ATOM     20  O   UNL     1      -3.677  -2.886  25.301  0.00  0.00    -0.241 OA
ENDBRANCH  15  18
ENDBRANCH  11  12
ENDBRANCH  10  11
TORSDOF 11
ENDMDL
MODEL 3
REMARK VINA RESULT:      -9.2      0.370      4.184
REMARK  Name = 
REMARK  11 active torsions:
REMARK  status: ('A' for Active; 'I' for Inactive)
REMARK    1  A    between atoms: O_2  and  C_3
REMARK    2  A    between atoms: C_3  and  C_5
REMARK    3  A    between atoms: C_8  and  C_9
REMARK    4  A    between atoms: C_9  and  N_10
REMARK    5  A    between atoms: N_10  and  C_11
REMARK    6  A    between atoms: N_10  and  C_21
REMARK    7  A    between atoms: C_11  and  C_12
REMARK    8  A    between atoms: C_15  and  C_18
REMARK    9  A    between atoms: C_24  and  C_25
REMARK   10  A    between atoms: C_25  and  N_26
REMARK   11  A    between atoms: N_26  and  S_27
REMARK                            x       y       z     vdW  Elec       q    Type
REMARK                         _______ _______ _______ _____ _____    ______ ____
ROOT
ATOM     10  N   UNL     1      -2.921   1.073  24.691  0.00  0.00    -0.262 NA
ENDROOT
BRANCH  10  21
ATOM     21  C   UNL     1      -2.097   1.047  24.675  0.00  0.00    +0.121 C 
ATOM     22  C   UNL     1      -1.601   0.979  25.331  0.00  0.00    +0.161 C 
ATOM     23  O   UNL     1      -0.822   0.975  25.062  0.00  0.00    -0.351 OA
ATOM     24  C   UNL     1      -0.836   1.040  24.239  0.00  0.00    +0.166 C 
ATOM     31  C   UNL     1      -1.624   1.085  24.001  0.00  0.00    +0.197 C 
ATOM     32  O   UNL     1      -1.892   1.156  23.223  0.00  0.00    -0.219 OA
BRANCH  24  25
ATOM     25  C   UNL     1      -0.176   1.058  23.743  0.00  0.00    +0.147 C 
BRANCH  25  26
ATOM     26  N   UNL     1       0.451   0.538  23.870  0.00  0.00    -0.079 NA
BRANCH  26  27
ATOM     27  S   UNL     1       1.106   0.551  23.369  0.00  0.00    +0.059 S 
ATOM     28  C   UNL     1       0.912  -0.203  23.096  0.00  0.00    +0.197 C 
ATOM     29  O   UNL     1       1.300   1.305  23.643  0.00  0.00    -0.156 OA
ATOM     30  O   UNL     1       1.761   0.565  22.869  0.00  0.00    -0.156 OA
ENDBRANCH  26  27
ENDBRANCH  25  26
ENDBRANCH  24  25
ENDBRANCH  10  21
BRANCH  10   9
ATOM      9  C   UNL     1      -3.341   0.557  25.179  0.00  0.00    +0.099 C 
BRANCH   9   8
ATOM      5  C   UNL     1      -3.860  -1.736  24.405  0.00  0.00    +0.076 A 
ATOM      6  C   UNL     1      -3.528  -1.617  25.150  0.00  0.00    +0.006 A 
ATOM      7  C   UNL     1      -3.355  -0.853  25.408  0.00  0.00    -0.003 A 
ATOM      8  C   UNL     1      -3.514  -0.207  24.921  0.00  0.00    -0.006 A 
ATOM     33  C   UNL     1      -3.847  -0.325  24.175  0.00  0.00    -0.003 A 
ATOM     34  C   UNL     1      -4.020  -1.089  23.917  0.00  0.00    +0.006 A 
BRANCH   5   3
ATOM      3  C   UNL     1      -4.034  -2.500  24.147  0.00  0.00    +0.341 C 
ATOM      4  O   UNL     1      -4.692  -2.634  23.668  0.00  0.00    -0.245 OA
BRANCH   3   2
ATOM      1  C   UNL     1      -3.617  -3.857  23.985  0.00  0.00    +0.256 C 
ATOM      2  O   UNL     1      -3.548  -3.129  24.367  0.00  0.00    -0.441 OA
ENDBRANCH   3   2
ENDBRANCH   5   3
ENDBRANCH   9   8
ENDBRANCH  10   9
BRANCH  10  11
ATOM     11  C   UNL     1      -3.327   1.615  24.218  0.00  0.00    +0.099 C 
BRANCH  11  12
ATOM     12  C   UNL     1      -3.840   2.160  24.564  0.00  0.00    -0.006 A 
ATOM     13  C   UNL     1      -4.651   2.117  24.413  0.00  0.00    -0.003 A 
ATOM     14  C   UNL     1      -5.164   2.662  24.759  0.00  0.00    +0.006 A 
ATOM     15  C   UNL     1      -4.867   3.250  25.256  0.00  0.00    +0.080 A 
ATOM     16  C   UNL     1      -4.058   3.293  25.407  0.00  0.00    +0.006 A 
ATOM     17  C   UNL     1      -3.544   2.748  25.062  0.00  0.00    -0.003 A 
BRANCH  15  18
ATOM     18  C   UNL     1      -5.381   3.795  25.602  0.00  0.00    +0.388 C 
ATOM     19  O   UNL     1      -5.338   4.592  25.397  0.00  0.00    -0.241 OA
ATOM     20  O   UNL     1      -5.940   3.542  26.154  0.00  0.00    -0.241 OA
ENDBRANCH  15  18
ENDBRANCH  11  12
ENDBRANCH  10  11
TORSDOF 11
ENDMDL
MODEL 4
REMARK VINA RESULT:      -8.8      1.383      4.355
REMARK  Name = 
REMARK  11 active torsions:
REMARK  status: ('A' for Active; 'I' for Inactive)
REMARK    1  A    between atoms: O_2  and  C_3
REMARK    2  A    between atoms: C_3  and  C_5
REMARK    3  A    between atoms: C_8  and  C_9
REMARK    4  A    between atoms: C_9  and  N_10
REMARK    5  A    between atoms: N_10  and  C_11
REMARK    6  A    between atoms: N_10  and  C_21
REMARK    7  A    between atoms: C_11  and  C_12
REMARK    8  A    between atoms: C_15  and  C_18
REMARK    9  A    between atoms: C_24  and  C_25
REMARK   10  A    between atoms: C_25  and  N_26
REMARK   11  A    between atoms: N_26  and  S_27
REMARK                            x       y       z     vdW  Elec       q    Type
REMARK                         _______ _______ _______ _____ _____    ______ ____
ROOT
ATOM     10  N   UNL     1      -1.789   1.017  24.589  0.00  0.00    -0.262 NA
ENDROOT
BRANCH  10  21
ATOM     21  C   UNL     1      -1.023   0.786  24.386  0.00  0.00    +0.121 C 
ATOM     22  C   UNL     1      -0.446   0.510  24.907  0.00  0.00    +0.161 C 
ATOM     23  O   UNL     1       0.233   0.344  24.470  0.00  0.00    -0.351 OA
ATOM     24  C   UNL     1       0.075   0.515  23.679  0.00  0.00    +0.166 C 
ATOM     31  C   UNL     1      -0.701   0.789  23.627  0.00  0.00    +0.197 C 
ATOM     32  O   UNL     1      -1.088   1.024  22.937  0.00  0.00    -0.219 OA
BRANCH  24  25
ATOM     25  C   UNL     1       0.602   0.429  23.049  0.00  0.00    +0.147 C 
BRANCH  25  26
ATOM     26  N   UNL     1       1.328   0.056  23.166  0.00  0.00    -0.079 NA
BRANCH  26  27
ATOM     27  S   UNL     1       1.871   0.005  22.547  0.00  0.00    +0.059 S 
ATOM     28  C   UNL     1       2.405   0.462  22.978  0.00  0.00    +0.197 C 
ATOM     29  O   UNL     1       1.335  -0.452  22.116  0.00  0.00    -0.156 OA
ATOM     30  O   UNL     1       2.412  -0.046  21.928  0.00  0.00    -0.156 OA
ENDBRANCH  26  27
ENDBRANCH  25  26
ENDBRANCH  24  25
ENDBRANCH  10  21
BRANCH  10   9
ATOM      9  C   UNL     1      -2.216   0.586  25.148  0.00  0.00    +0.099 C 
BRANCH   9   8
ATOM      5  C   UNL     1      -3.556  -1.372  24.443  0.00  0.00    +0.076 A 
ATOM      6  C   UNL     1      -2.990  -1.451  25.038  0.00  0.00    +0.006 A 
ATOM      7  C   UNL     1      -2.544  -0.798  25.273  0.00  0.00    -0.003 A 
ATOM      8  C   UNL     1      -2.663  -0.066  24.913  0.00  0.00    -0.006 A 
ATOM     33  C   UNL     1      -3.228   0.014  24.318  0.00  0.00    -0.003 A 
ATOM     34  C   UNL     1      -3.675  -0.638  24.083  0.00  0.00    +0.006 A 
BRANCH   5   3
ATOM      3  C   UNL     1      -4.003  -2.024  24.208  0.00  0.00    +0.341 C 
ATOM      4  O   UNL     1      -4.739  -1.913  23.852  0.00  0.00    -0.245 OA
BRANCH   3   2
ATOM      1  C   UNL     1      -4.053  -3.426  23.933  0.00  0.00    +0.256 C 
ATOM      2  O   UNL     1      -3.714  -2.787  24.330  0.00  0.00    -0.441 OA
ENDBRANCH   3   2
ENDBRANCH   5   3
ENDBRANCH   9   8
ENDBRANCH  10   9
BRANCH  10  11
ATOM     11  C   UNL     1      -2.128   1.680  24.233  0.00  0.00    +0.099 C 
BRANCH  11  12
ATOM     12  C   UNL     1      -2.279   2.356  24.681  0.00  0.00    -0.006 A 
ATOM     13  C   UNL     1      -3.041   2.672  24.706  0.00  0.00    -0.003 A 
ATOM     14  C   UNL     1      -3.192   3.348  25.154  0.00  0.00    +0.006 A 
ATOM     15  C   UNL     1      -2.582   3.708  25.577  0.00  0.00    +0.080 A 
ATOM     16  C   UNL     1      -1.821   3.392  25.552  0.00  0.00    +0.006 A 
ATOM     17  C   UNL     1      -1.669   2.716  25.104  0.00  0.00    -0.003 A 
BRANCH  15  18
ATOM     18  C   UNL     1      -2.735   4.384  26.025  0.00  0.00    +0.388 C 
ATOM     19  O   UNL     1      -2.336   5.087  25.861  0.00  0.00    -0.241 OA
ATOM     20  O   UNL     1      -3.286   4.357  26.638  0.00  0.00    -0.241 OA
ENDBRANCH  15  18
ENDBRANCH  11  12
ENDBRANCH  10  11
TORSDOF 11
ENDMDL
MODEL 5
REMARK VINA RESULT:      -8.5      2.288      5.975
REMARK  Name = 
REMARK  11 active torsions:
REMARK  status: ('A' for Active; 'I' for Inactive)
REMARK    1  A    between atoms: O_2  and  C_3
REMARK    2  A    between atoms: C_3  and  C_5
REMARK    3  A    between atoms: C_8  and  C_9
REMARK    4  A    between atoms: C_9  and  N_10
REMARK    5  A    between atoms: N_10  and  C_11
REMARK    6  A    between atoms: N_10  and  C_21
REMARK    7  A    between atoms: C_11  and  C_12
REMARK    8  A    between atoms: C_15  and  C_18
REMARK    9  A    between atoms: C_24  and  C_25
REMARK   10  A    between atoms: C_25  and  N_26
REMARK   11  A    between atoms: N_26  and  S_27
REMARK                            x       y       z     vdW  Elec       q    Type
REMARK                         _______ _______ _______ _____ _____    ______ ____
ROOT
ATOM     10  N   UNL     1      -0.524   1.087  24.643  0.00  0.00    -0.262 NA
ENDROOT
BRANCH  10  21
ATOM     21  C   UNL     1      -0.977   0.461  24.932  0.00  0.00    +0.121 C 
ATOM     22  C   UNL     1      -0.798  -0.005  25.589  0.00  0.00    +0.161 C 
ATOM     23  O   UNL     1      -1.399  -0.562  25.678  0.00  0.00    -0.351 OA
ATOM     24  C   UNL     1      -1.950  -0.441  25.076  0.00  0.00    +0.166 C 
ATOM     31  C   UNL     1      -1.689   0.191  24.615  0.00  0.00    +0.197 C 
ATOM     32  O   UNL     1      -2.073   0.500  23.953  0.00  0.00    -0.219 OA
BRANCH  24  25
ATOM     25  C   UNL     1      -2.641  -0.877  24.956  0.00  0.00    +0.147 C 
BRANCH  25  26
ATOM     26  N   UNL     1      -2.657  -1.683  25.131  0.00  0.00    -0.079 NA
BRANCH  26  27
ATOM     27  S   UNL     1      -3.322  -2.133  24.944  0.00  0.00    +0.059 S 
ATOM     28  C   UNL     1      -2.858  -2.620  24.467  0.00  0.00    +0.197 C 
ATOM     29  O   UNL     1      -3.786  -1.645  25.421  0.00  0.00    -0.156 OA
ATOM     30  O   UNL     1      -3.987  -2.582  24.756  0.00  0.00    -0.156 OA
ENDBRANCH  26  27
ENDBRANCH  25  26
ENDBRANCH  24  25
ENDBRANCH  10  21
BRANCH  10   9
ATOM      9  C   UNL     1      -0.335   1.124  23.841  0.00  0.00    +0.099 C 
BRANCH   9   8
ATOM      5  C   UNL     1       1.919   0.456  23.067  0.00  0.00    +0.076 A 
ATOM      6  C   UNL     1       1.259   0.016  22.843  0.00  0.00    +0.006 A 
ATOM      7  C   UNL     1       0.507   0.239  23.101  0.00  0.00    -0.003 A 
ATOM      8  C   UNL     1       0.417   0.901  23.583  0.00  0.00    -0.006 A 
ATOM     33  C   UNL     1       1.077   1.342  23.808  0.00  0.00    -0.003 A 
ATOM     34  C   UNL     1       1.828   1.119  23.550  0.00  0.00    +0.006 A 
BRANCH   5   3
ATOM      3  C   UNL     1       2.671   0.233  22.809  0.00  0.00    +0.341 C 
ATOM      4  O   UNL     1       2.843  -0.563  22.682  0.00  0.00    -0.245 OA
BRANCH   3   2
ATOM      1  C   UNL     1       4.024   0.582  22.512  0.00  0.00    +0.256 C 
ATOM      2  O   UNL     1       3.248   0.807  22.679  0.00  0.00    -0.441 OA
ENDBRANCH   3   2
ENDBRANCH   5   3
ENDBRANCH   9   8
ENDBRANCH  10   9
BRANCH  10  11
ATOM     11  C   UNL     1      -0.259   1.677  25.156  0.00  0.00    +0.099 C 
BRANCH  11  12
ATOM     12  C   UNL     1      -0.685   2.380  25.230  0.00  0.00    -0.006 A 
ATOM     13  C   UNL     1      -0.953   2.623  25.972  0.00  0.00    -0.003 A 
ATOM     14  C   UNL     1      -1.378   3.326  26.046  0.00  0.00    +0.006 A 
ATOM     15  C   UNL     1      -1.536   3.785  25.379  0.00  0.00    +0.080 A 
ATOM     16  C   UNL     1      -1.269   3.542  24.638  0.00  0.00    +0.006 A 
ATOM     17  C   UNL     1      -0.843   2.839  24.563  0.00  0.00    -0.003 A 
BRANCH  15  18
ATOM     18  C   UNL     1      -1.962   4.488  25.454  0.00  0.00    +0.388 C 
ATOM     19  O   UNL     1      -1.588   5.213  25.335  0.00  0.00    -0.241 OA
ATOM     20  O   UNL     1      -2.764   4.465  25.649  0.00  0.00    -0.241 OA
ENDBRANCH  15  18
ENDBRANCH  11  12
ENDBRANCH  10  11
TORSDOF 11
ENDMDL
MODEL 6
REMARK VINA RESULT:      -8.4      1.466      5.096
REMARK  Name = 
REMARK  11 active torsions:
REMARK  status: ('A' for Active; 'I' for Inactive)
REMARK    1  A    between atoms: O_2  and  C_3
REMARK    2  A    between atoms: C_3  and  C_5
REMARK    3  A    between atoms: C_8  and  C_9
REMARK    4  A    between atoms: C_9  and  N_10
REMARK    5  A    between atoms: N_10  and  C_11
REMARK    6  A    between atoms: N_10  and  C_21
REMARK    7  A    between atoms: C_11  and  C_12
REMARK    8  A    between atoms: C_15  and  C_18
REMARK    9  A    between atoms: C_24  and  C_25
REMARK   10  A    between atoms: C_25  and  N_26
REMARK   11  A    between atoms: N_26  and  S_27
REMARK                            x       y       z     vdW  Elec       q    Type
REMARK                         _______ _______ _______ _____ _____    ______ ____
ROOT
ATOM     10  N   UNL     1      -2.977   1.307  24.778  0.00  0.00    -0.262 NA
ENDROOT
BRANCH  10  21
ATOM     21  C   UNL     1      -3.218   0.523  24.870  0.00  0.00    +0.121 C 
ATOM     22  C   UNL     1      -3.330   0.131  25.588  0.00  0.00    +0.161 C 
ATOM     23  O   UNL     1      -3.570  -0.640  25.422  0.00  0.00    -0.351 OA
ATOM     24  C   UNL     1      -3.608  -0.724  24.603  0.00  0.00    +0.166 C 
ATOM     31  C   UNL     1      -3.391  -0.006  24.262  0.00  0.00    +0.197 C 
ATOM     32  O   UNL     1      -3.352   0.156  23.453  0.00  0.00    -0.219 OA
BRANCH  24  25
ATOM     25  C   UNL     1      -3.826  -1.408  24.195  0.00  0.00    +0.147 C 
BRANCH  25  26
ATOM     26  N   UNL     1      -3.853  -2.133  24.589  0.00  0.00    -0.079 NA
BRANCH  26  27
ATOM     27  S   UNL     1      -3.935  -2.833  24.161  0.00  0.00    +0.059 S 
ATOM     28  C   UNL     1      -3.278  -3.146  24.547  0.00  0.00    +0.197 C 
ATOM     29  O   UNL     1      -4.593  -2.518  23.774  0.00  0.00    -0.156 OA
ATOM     30  O   UNL     1      -4.018  -3.532  23.732  0.00  0.00    -0.156 OA
ENDBRANCH  26  27
ENDBRANCH  25  26
ENDBRANCH  24  25
ENDBRANCH  10  21
BRANCH  10   9
ATOM      9  C   UNL     1      -2.306   1.581  25.172  0.00  0.00    +0.099 C 
BRANCH   9   8
ATOM      5  C   UNL     1      -0.068   1.292  24.156  0.00  0.00    +0.076 A 
ATOM      6  C   UNL     1      -0.639   1.750  23.775  0.00  0.00    +0.006 A 
ATOM      7  C   UNL     1      -1.385   1.846  24.113  0.00  0.00    -0.003 A 
ATOM      8  C   UNL     1      -1.560   1.485  24.833  0.00  0.00    -0.006 A 
ATOM     33  C   UNL     1      -0.990   1.027  25.216  0.00  0.00    -0.003 A 
ATOM     34  C   UNL     1      -0.244   0.930  24.877  0.00  0.00    +0.006 A 
BRANCH   5   3
ATOM      3  C   UNL     1       0.678   1.196  23.817  0.00  0.00    +0.341 C 
ATOM      4  O   UNL     1       1.260   1.769  23.933  0.00  0.00    -0.245 OA
BRANCH   3   2
ATOM      1  C   UNL     1       1.589   0.427  23.029  0.00  0.00    +0.256 C 
ATOM      2  O   UNL     1       0.841   0.527  23.363  0.00  0.00    -0.441 OA
ENDBRANCH   3   2
ENDBRANCH   5   3
ENDBRANCH   9   8
ENDBRANCH  10   9
BRANCH  10  11
ATOM     11  C   UNL     1      -3.407   1.817  24.292  0.00  0.00    +0.099 C 
BRANCH  11  12
ATOM     12  C   UNL     1      -3.957   2.335  24.623  0.00  0.00    -0.006 A 
ATOM     13  C   UNL     1      -4.765   2.205  24.510  0.00  0.00    -0.003 A 
ATOM     14  C   UNL     1      -5.315   2.723  24.841  0.00  0.00    +0.006 A 
ATOM     15  C   UNL     1      -5.059   3.371  25.284  0.00  0.00    +0.080 A 
ATOM     16  C   UNL     1      -4.252   3.500  25.396  0.00  0.00    +0.006 A 
ATOM     17  C   UNL     1      -3.701   2.982  25.065  0.00  0.00    -0.003 A 
BRANCH  15  18
ATOM     18  C   UNL     1      -5.610   3.888  25.614  0.00  0.00    +0.388 C 
ATOM     19  O   UNL     1      -5.571   4.695  25.448  0.00  0.00    -0.241 OA
ATOM     20  O   UNL     1      -6.201   3.598  26.112  0.00  0.00    -0.241 OA
ENDBRANCH  15  18
ENDBRANCH  11  12
ENDBRANCH  10  11
TORSDOF 11
ENDMDL
MODEL 7
REMARK VINA RESULT:      -8.3      2.074      5.056
REMARK  Name = 
REMARK  11 active torsions:
REMARK  status: ('A' for Active; 'I' for Inactive)
REMARK    1  A    between atoms: O_2  and  C_3
REMARK    2  A    between atoms: C_3  and  C_5
REMARK    3  A    between atoms: C_8  and  C_9
REMARK    4  A    between atoms: C_9  and  N_10
REMARK    5  A    between atoms: N_10  and  C_11
REMARK    6  A    between atoms: N_10  and  C_21
REMARK    7  A    between atoms: C_11  and  C_12
REMARK    8  A    between atoms: C_15  and  C_18
REMARK    9  A    between atoms: C_24  and  C_25
REMARK   10  A    between atoms: C_25  and  N_26
REMARK   11  A    between atoms: N_26  and  S_27
REMARK                            x       y       z     vdW  Elec       q    Type
REMARK                         _______ _______ _______ _____ _____    ______ ____
ROOT
ATOM     10  N   UNL     1      -0.763   0.491  24.587  0.00  0.00    -0.262 NA
ENDROOT
BRANCH  10  21
ATOM     21  C   UNL     1      -0.954   1.196  24.970  0.00  0.00    +0.121 C 
ATOM     22  C   UNL     1      -0.665   1.444  25.703  0.00  0.00    +0.161 C 
ATOM     23  O   UNL     1      -1.000   2.178  25.873  0.00  0.00    -0.351 OA
ATOM     24  C   UNL     1      -1.496   2.384  25.246  0.00  0.00    +0.166 C 
ATOM     31  C   UNL     1      -1.468   1.777  24.689  0.00  0.00    +0.197 C 
ATOM     32  O   UNL     1      -1.880   1.755  23.974  0.00  0.00    -0.219 OA
BRANCH  24  25
ATOM     25  C   UNL     1      -1.943   3.076  25.188  0.00  0.00    +0.147 C 
BRANCH  25  26
ATOM     26  N   UNL     1      -2.018   3.575  25.841  0.00  0.00    -0.079 NA
BRANCH  26  27
ATOM     27  S   UNL     1      -2.410   4.297  25.765  0.00  0.00    +0.059 S 
ATOM     28  C   UNL     1      -3.066   3.981  26.151  0.00  0.00    +0.197 C 
ATOM     29  O   UNL     1      -1.752   4.613  25.379  0.00  0.00    -0.156 OA
ATOM     30  O   UNL     1      -2.801   5.018  25.689  0.00  0.00    -0.156 OA
ENDBRANCH  26  27
ENDBRANCH  25  26
ENDBRANCH  24  25
ENDBRANCH  10  21
BRANCH  10   9
ATOM      9  C   UNL     1      -0.574   0.495  23.784  0.00  0.00    +0.099 C 
BRANCH   9   8
ATOM      5  C   UNL     1       1.784   0.276  23.066  0.00  0.00    +0.076 A 
ATOM      6  C   UNL     1       1.221  -0.267  22.805  0.00  0.00    +0.006 A 
ATOM      7  C   UNL     1       0.435  -0.194  23.045  0.00  0.00    -0.003 A 
ATOM      8  C   UNL     1       0.212   0.422  23.545  0.00  0.00    -0.006 A 
ATOM     33  C   UNL     1       0.775   0.967  23.806  0.00  0.00    -0.003 A 
ATOM     34  C   UNL     1       1.561   0.894  23.566  0.00  0.00    +0.006 A 
BRANCH   5   3
ATOM      3  C   UNL     1       2.570   0.204  22.826  0.00  0.00    +0.341 C 
ATOM      4  O   UNL     1       2.891  -0.544  22.687  0.00  0.00    -0.245 OA
BRANCH   3   2
ATOM      1  C   UNL     1       3.843   0.804  22.575  0.00  0.00    +0.256 C 
ATOM      2  O   UNL     1       3.034   0.877  22.725  0.00  0.00    -0.441 OA
ENDBRANCH   3   2
ENDBRANCH   5   3
ENDBRANCH   9   8
ENDBRANCH  10   9
BRANCH  10  11
ATOM     11  C   UNL     1      -0.761  -0.220  25.008  0.00  0.00    +0.099 C 
BRANCH  11  12
ATOM     12  C   UNL     1      -1.427  -0.706  24.997  0.00  0.00    -0.006 A 
ATOM     13  C   UNL     1      -1.951  -0.701  25.635  0.00  0.00    -0.003 A 
ATOM     14  C   UNL     1      -2.617  -1.188  25.625  0.00  0.00    +0.006 A 
ATOM     15  C   UNL     1      -2.759  -1.679  24.977  0.00  0.00    +0.080 A 
ATOM     16  C   UNL     1      -2.236  -1.684  24.341  0.00  0.00    +0.006 A 
ATOM     17  C   UNL     1      -1.569  -1.198  24.350  0.00  0.00    -0.003 A 
BRANCH  15  18
ATOM     18  C   UNL     1      -3.426  -2.166  24.968  0.00  0.00    +0.388 C 
ATOM     19  O   UNL     1      -4.035  -2.022  24.431  0.00  0.00    -0.241 OA
ATOM     20  O   UNL     1      -3.483  -2.796  25.497  0.00  0.00    -0.241 OA
ENDBRANCH  15  18
ENDBRANCH  11  12
ENDBRANCH  10  11
TORSDOF 11
ENDMDL
MODEL 8
REMARK VINA RESULT:      -8.3     15.561     18.795
REMARK  Name = 
REMARK  11 active torsions:
REMARK  status: ('A' for Active; 'I' for Inactive)
REMARK    1  A    between atoms: O_2  and  C_3
REMARK    2  A    between atoms: C_3  and  C_5
REMARK    3  A    between atoms: C_8  and  C_9
REMARK    4  A    between atoms: C_9  and  N_10
REMARK    5  A    between atoms: N_10  and  C_11
REMARK    6  A    between atoms: N_10  and  C_21
REMARK    7  A    between atoms: C_11  and  C_12
REMARK    8  A    between atoms: C_15  and  C_18
REMARK    9  A    between atoms: C_24  and  C_25
REMARK   10  A    between atoms: C_25  and  N_26
REMARK   11  A    between atoms: N_26  and  S_27
REMARK                            x       y       z     vdW  Elec       q    Type
REMARK                         _______ _______ _______ _____ _____    ______ ____
ROOT
ATOM     10  N   UNL     1      12.999   7.726  19.556  0.00  0.00    -0.262 NA
ENDROOT
BRANCH  10  21
ATOM     21  C   UNL     1      12.881   8.131  18.847  0.00  0.00    +0.121 C 
ATOM     22  C   UNL     1      13.075   8.920  18.700  0.00  0.00    +0.161 C 
ATOM     23  O   UNL     1      12.861   9.094  17.923  0.00  0.00    -0.351 OA
ATOM     24  C   UNL     1      12.535   8.413  17.589  0.00  0.00    +0.166 C 
ATOM     31  C   UNL     1      12.548   7.818  18.160  0.00  0.00    +0.197 C 
ATOM     32  O   UNL     1      12.274   7.046  18.062  0.00  0.00    -0.219 OA
BRANCH  24  25
ATOM     25  C   UNL     1      12.248   8.340  16.819  0.00  0.00    +0.147 C 
BRANCH  25  26
ATOM     26  N   UNL     1      11.964   9.004  16.419  0.00  0.00    -0.079 NA
BRANCH  26  27
ATOM     27  S   UNL     1      11.678   8.931  15.649  0.00  0.00    +0.059 S 
ATOM     28  C   UNL     1      10.915   9.093  15.917  0.00  0.00    +0.197 C 
ATOM     29  O   UNL     1      12.442   8.770  15.381  0.00  0.00    -0.156 OA
ATOM     30  O   UNL     1      11.393   8.858  14.879  0.00  0.00    -0.156 OA
ENDBRANCH  26  27
ENDBRANCH  25  26
ENDBRANCH  24  25
ENDBRANCH  10  21
BRANCH  10   9
ATOM      9  C   UNL     1      13.643   7.914  20.036  0.00  0.00    +0.099 C 
BRANCH   9   8
ATOM      5  C   UNL     1      15.829   6.814  19.663  0.00  0.00    +0.076 A 
ATOM      6  C   UNL     1      15.778   7.637  19.676  0.00  0.00    +0.006 A 
ATOM      7  C   UNL     1      15.049   8.004  19.800  0.00  0.00    -0.003 A 
ATOM      8  C   UNL     1      14.372   7.547  19.911  0.00  0.00    -0.006 A 
ATOM     33  C   UNL     1      14.422   6.724  19.899  0.00  0.00    -0.003 A 
ATOM     34  C   UNL     1      15.150   6.357  19.774  0.00  0.00    +0.006 A 
BRANCH   5   3
ATOM      3  C   UNL     1      16.557   6.448  19.538  0.00  0.00    +0.341 C 
ATOM      4  O   UNL     1      17.232   6.731  19.921  0.00  0.00    -0.245 OA
BRANCH   3   2
ATOM      1  C   UNL     1      17.301   5.670  18.598  0.00  0.00    +0.256 C 
ATOM      2  O   UNL     1      16.611   5.799  19.032  0.00  0.00    -0.441 OA
ENDBRANCH   3   2
ENDBRANCH   5   3
ENDBRANCH   9   8
ENDBRANCH  10   9
BRANCH  10  11
ATOM     11  C   UNL     1      12.473   7.133  19.786  0.00  0.00    +0.099 C 
BRANCH  11  12
ATOM     12  C   UNL     1      11.966   7.257  20.424  0.00  0.00    -0.006 A 
ATOM     13  C   UNL     1      11.665   8.012  20.571  0.00  0.00    -0.003 A 
ATOM     14  C   UNL     1      11.158   8.136  21.209  0.00  0.00    +0.006 A 
ATOM     15  C   UNL     1      10.952   7.507  21.702  0.00  0.00    +0.080 A 
ATOM     16  C   UNL     1      11.253   6.754  21.555  0.00  0.00    +0.006 A 
ATOM     17  C   UNL     1      11.760   6.628  20.917  0.00  0.00    -0.003 A 
BRANCH  15  18
ATOM     18  C   UNL     1      10.445   7.632  22.340  0.00  0.00    +0.388 C 
ATOM     19  O   UNL     1       9.773   7.163  22.433  0.00  0.00    -0.241 OA
ATOM     20  O   UNL     1      10.610   8.228  22.887  0.00  0.00    -0.241 OA
ENDBRANCH  15  18
ENDBRANCH  11  12
ENDBRANCH  10  11
TORSDOF 11
ENDMDL
