MODEL 1
REMARK VINA RESULT:     -10.7      0.000      0.000
REMARK  Name = 
REMARK  4 active torsions:
REMARK  status: ('A' for Active; 'I' for Inactive)
REMARK    1  A    between atoms: C_4  and  N_18
REMARK    2  A    between atoms: C_6  and  C_7
REMARK    3  A    between atoms: C_9  and  C_12
REMARK    4  A    between atoms: N_21  and  C_22
REMARK                            x       y       z     vdW  Elec       q    Type
REMARK                         _______ _______ _______ _____ _____    ______ ____
ROOT
ATOM      1  C   UNL     1       0.146  -0.136  23.424  0.00  0.00    +0.090 C 
ATOM      2  N   UNL     1      -0.103   0.301  24.078  0.00  0.00    -0.264 NA
ATOM      3  C   UNL     1       0.168   1.050  24.293  0.00  0.00    +0.094 C 
ATOM      4  C   UNL     1      -0.229   1.277  24.979  0.00  0.00    +0.115 C 
ATOM      5  C   UNL     1      -0.745   0.668  25.189  0.00  0.00    +0.049 C 
ATOM      6  C   UNL     1      -0.667   0.065  24.632  0.00  0.00    +0.139 C 
ENDROOT
BRANCH   6   7
ATOM      7  C   UNL     1      -1.081  -0.649  24.629  0.00  0.00    +0.251 A 
ATOM      8  N   UNL     1      -1.878  -0.746  24.442  0.00  0.00    -0.188 NA
ATOM      9  C   UNL     1      -2.060  -1.549  24.510  0.00  0.00    +0.223 A 
ATOM     10  N   UNL     1      -1.374  -1.947  24.739  0.00  0.00    -0.054 NA
ATOM     11  O   UNL     1      -0.769  -1.391  24.812  0.00  0.00    -0.336 OA
BRANCH   9  12
ATOM     12  C   UNL     1      -2.797  -1.892  24.373  0.00  0.00    +0.139 A 
ATOM     13  C   UNL     1      -2.928  -2.683  24.569  0.00  0.00    +0.121 A 
ATOM     14  N   UNL     1      -3.665  -3.025  24.432  0.00  0.00    -0.239 NA
ATOM     15  C   UNL     1      -4.273  -2.577  24.099  0.00  0.00    +0.120 A 
ATOM     16  C   UNL     1      -4.143  -1.786  23.903  0.00  0.00    +0.120 A 
ATOM     17  N   UNL     1      -3.405  -1.444  24.041  0.00  0.00    -0.237 NA
ENDBRANCH   9  12
ENDBRANCH   6   7
BRANCH   4  18
ATOM     18  N   UNL     1      -0.127   1.988  25.386  0.00  0.00    -0.187 NA
ATOM     19  C   UNL     1      -0.613   2.632  25.216  0.00  0.00    +0.339 C 
ATOM     20  O   UNL     1      -1.200   2.567  24.640  0.00  0.00    -0.249 OA
ATOM     21  N   UNL     1      -0.511   3.343  25.623  0.00  0.00    -0.189 NA
BRANCH  21  22
ATOM     22  C   UNL     1      -0.997   3.988  25.453  0.00  0.00    +0.097 C 
ATOM     23  C   UNL     1      -0.706   4.616  25.003  0.00  0.00    +0.022 C 
ATOM     24  C   UNL     1      -1.191   5.260  24.832  0.00  0.00    +0.002 C 
ATOM     25  C   UNL     1      -1.968   5.279  25.112  0.00  0.00    +0.000 C 
ATOM     26  C   UNL     1      -2.258   4.651  25.562  0.00  0.00    +0.002 C 
ATOM     27  C   UNL     1      -1.773   4.006  25.732  0.00  0.00    +0.022 C 
ENDBRANCH  21  22
ENDBRANCH   4  18
TORSDOF 4
ENDMDL
MODEL 2
REMARK VINA RESULT:     -10.5      0.886      5.512
REMARK  Name = 
REMARK  4 active torsions:
REMARK  status: ('A' for Active; 'I' for Inactive)
REMARK    1  A    between atoms: C_4  and  N_18
REMARK    2  A    between atoms: C_6  and  C_7
REMARK    3  A    between atoms: C_9  and  C_12
REMARK    4  A    between atoms: N_21  and  C_22
REMARK                            x       y       z     vdW  Elec       q    Type
REMARK                         _______ _______ _______ _____ _____    ______ ____
ROOT
ATOM      1  C   UNL     1       0.408   0.943  24.029  0.00  0.00    +0.090 C 
ATOM      2  N   UNL     1      -0.164   0.623  24.531  0.00  0.00    -0.264 NA
ATOM      3  C   UNL     1      -0.426  -0.160  24.531  0.00  0.00    +0.094 C 
ATOM      4  C   UNL     1      -0.997  -0.236  25.120  0.00  0.00    +0.115 C 
ATOM      5  C   UNL     1      -1.089   0.499  25.484  0.00  0.00    +0.049 C 
ATOM      6  C   UNL     1      -0.574   1.030  25.119  0.00  0.00    +0.139 C 
ENDROOT
BRANCH   6   7
ATOM      7  C   UNL     1      -0.485   1.828  25.310  0.00  0.00    +0.251 A 
ATOM      8  N   UNL     1      -0.994   2.438  25.092  0.00  0.00    -0.188 NA
ATOM      9  C   UNL     1      -0.694   3.143  25.400  0.00  0.00    +0.223 A 
ATOM     10  N   UNL     1       0.001   2.967  25.809  0.00  0.00    -0.054 NA
ATOM     11  O   UNL     1       0.130   2.154  25.754  0.00  0.00    -0.336 OA
BRANCH   9  12
ATOM     12  C   UNL     1      -1.030   3.891  25.314  0.00  0.00    +0.139 A 
ATOM     13  C   UNL     1      -0.611   4.491  24.934  0.00  0.00    +0.121 A 
ATOM     14  N   UNL     1      -0.947   5.239  24.848  0.00  0.00    -0.239 NA
ATOM     15  C   UNL     1      -1.704   5.388  25.143  0.00  0.00    +0.120 A 
ATOM     16  C   UNL     1      -2.124   4.788  25.523  0.00  0.00    +0.120 A 
ATOM     17  N   UNL     1      -1.786   4.040  25.608  0.00  0.00    -0.237 NA
ENDBRANCH   9  12
ENDBRANCH   6   7
BRANCH   4  18
ATOM     18  N   UNL     1      -1.406  -0.927  25.312  0.00  0.00    -0.187 NA
ATOM     19  C   UNL     1      -2.076  -1.142  24.882  0.00  0.00    +0.339 C 
ATOM     20  O   UNL     1      -2.338  -0.668  24.260  0.00  0.00    -0.249 OA
ATOM     21  N   UNL     1      -2.485  -1.833  25.075  0.00  0.00    -0.189 NA
BRANCH  21  22
ATOM     22  C   UNL     1      -3.155  -2.048  24.645  0.00  0.00    +0.097 C 
ATOM     23  C   UNL     1      -3.196  -2.793  24.290  0.00  0.00    +0.022 C 
ATOM     24  C   UNL     1      -3.865  -3.009  23.860  0.00  0.00    +0.002 C 
ATOM     25  C   UNL     1      -4.495  -2.481  23.784  0.00  0.00    +0.000 C 
ATOM     26  C   UNL     1      -4.454  -1.736  24.138  0.00  0.00    +0.002 C 
ATOM     27  C   UNL     1      -3.784  -1.521  24.568  0.00  0.00    +0.022 C 
ENDBRANCH  21  22
ENDBRANCH   4  18
TORSDOF 4
ENDMDL
MODEL 3
REMARK VINA RESULT:     -10.4      2.217      6.199
REMARK  Name = 
REMARK  4 active torsions:
REMARK  status: ('A' for Active; 'I' for Inactive)
REMARK    1  A    between atoms: C_4  and  N_18
REMARK    2  A    between atoms: C_6  and  C_7
REMARK    3  A    between atoms: C_9  and  C_12
REMARK    4  A    between atoms: N_21  and  C_22
REMARK                            x       y       z     vdW  Elec       q    Type
REMARK                         _______ _______ _______ _____ _____    ______ ____
ROOT
ATOM      1  C   UNL     1      -5.467   2.598  25.784  0.00  0.00    +0.090 C 
ATOM      2  N   UNL     1      -4.986   2.112  25.322  0.00  0.00    -0.264 NA
ATOM      3  C   UNL     1      -5.209   1.394  24.981  0.00  0.00    +0.094 C 
ATOM      4  C   UNL     1      -4.559   1.097  24.569  0.00  0.00    +0.115 C 
ATOM      5  C   UNL     1      -3.936   1.630  24.655  0.00  0.00    +0.049 C 
ATOM      6  C   UNL     1      -4.200   2.257  25.121  0.00  0.00    +0.139 C 
ENDROOT
BRANCH   6   7
ATOM      7  C   UNL     1      -3.755   2.915  25.346  0.00  0.00    +0.251 A 
ATOM      8  N   UNL     1      -3.033   3.146  25.022  0.00  0.00    -0.188 NA
ATOM      9  C   UNL     1      -2.786   3.831  25.410  0.00  0.00    +0.223 A 
ATOM     10  N   UNL     1      -3.357   4.023  25.975  0.00  0.00    -0.054 NA
ATOM     11  O   UNL     1      -3.955   3.457  25.935  0.00  0.00    -0.336 OA
BRANCH   9  12
ATOM     12  C   UNL     1      -2.092   4.250  25.260  0.00  0.00    +0.139 A 
ATOM     13  C   UNL     1      -2.102   5.075  25.245  0.00  0.00    +0.121 A 
ATOM     14  N   UNL     1      -1.407   5.492  25.095  0.00  0.00    -0.239 NA
ATOM     15  C   UNL     1      -0.701   5.086  24.961  0.00  0.00    +0.120 A 
ATOM     16  C   UNL     1      -0.691   4.261  24.976  0.00  0.00    +0.120 A 
ATOM     17  N   UNL     1      -1.386   3.844  25.126  0.00  0.00    -0.237 NA
ENDBRANCH   9  12
ENDBRANCH   6   7
BRANCH   4  18
ATOM     18  N   UNL     1      -4.537   0.389  24.144  0.00  0.00    -0.187 NA
ATOM     19  C   UNL     1      -4.087  -0.244  24.421  0.00  0.00    +0.339 C 
ATOM     20  O   UNL     1      -3.659  -0.171  25.122  0.00  0.00    -0.249 OA
ATOM     21  N   UNL     1      -4.064  -0.951  23.996  0.00  0.00    -0.189 NA
BRANCH  21  22
ATOM     22  C   UNL     1      -3.614  -1.584  24.274  0.00  0.00    +0.097 C 
ATOM     23  C   UNL     1      -3.986  -2.235  24.619  0.00  0.00    +0.022 C 
ATOM     24  C   UNL     1      -3.537  -2.868  24.896  0.00  0.00    +0.002 C 
ATOM     25  C   UNL     1      -2.714  -2.851  24.829  0.00  0.00    +0.000 C 
ATOM     26  C   UNL     1      -2.342  -2.200  24.484  0.00  0.00    +0.002 C 
ATOM     27  C   UNL     1      -2.792  -1.567  24.207  0.00  0.00    +0.022 C 
ENDBRANCH  21  22
ENDBRANCH   4  18
TORSDOF 4
ENDMDL
MODEL 4
REMARK VINA RESULT:      -9.9      2.242      2.877
REMARK  Name = 
REMARK  4 active torsions:
REMARK  status: ('A' for Active; 'I' for Inactive)
REMARK    1  A    between atoms: C_4  and  N_18
REMARK    2  A    between atoms: C_6  and  C_7
REMARK    3  A    between atoms: C_9  and  C_12
REMARK    4  A    between atoms: N_21  and  C_22
REMARK                            x       y       z     vdW  Elec       q    Type
REMARK                         _______ _______ _______ _____ _____    ______ ____
ROOT
ATOM      1  C   UNL     1      -5.643   1.569  24.673  0.00  0.00    +0.090 C 
ATOM      2  N   UNL     1      -4.900   1.829  24.920  0.00  0.00    -0.264 NA
ATOM      3  C   UNL     1      -4.740   2.541  25.307  0.00  0.00    +0.094 C 
ATOM      4  C   UNL     1      -3.929   2.575  25.450  0.00  0.00    +0.115 C 
ATOM      5  C   UNL     1      -3.588   1.885  25.152  0.00  0.00    +0.049 C 
ATOM      6  C   UNL     1      -4.188   1.424  24.825  0.00  0.00    +0.139 C 
ENDROOT
BRANCH   6   7
ATOM      7  C   UNL     1      -4.094   0.688  24.465  0.00  0.00    +0.251 A 
ATOM      8  N   UNL     1      -4.010  -0.034  24.854  0.00  0.00    -0.188 NA
ATOM      9  C   UNL     1      -3.930  -0.625  24.282  0.00  0.00    +0.223 A 
ATOM     10  N   UNL     1      -3.966  -0.266  23.540  0.00  0.00    -0.054 NA
ATOM     11  O   UNL     1      -4.066   0.545  23.653  0.00  0.00    -0.336 OA
BRANCH   9  12
ATOM     12  C   UNL     1      -3.833  -1.430  24.428  0.00  0.00    +0.139 A 
ATOM     13  C   UNL     1      -4.166  -1.985  23.916  0.00  0.00    +0.121 A 
ATOM     14  N   UNL     1      -4.068  -2.791  24.062  0.00  0.00    -0.239 NA
ATOM     15  C   UNL     1      -3.638  -3.043  24.720  0.00  0.00    +0.120 A 
ATOM     16  C   UNL     1      -3.305  -2.488  25.232  0.00  0.00    +0.120 A 
ATOM     17  N   UNL     1      -3.403  -1.682  25.085  0.00  0.00    -0.237 NA
ENDBRANCH   9  12
ENDBRANCH   6   7
BRANCH   4  18
ATOM     18  N   UNL     1      -3.527   3.191  25.826  0.00  0.00    -0.187 NA
ATOM     19  C   UNL     1      -2.894   3.560  25.449  0.00  0.00    +0.339 C 
ATOM     20  O   UNL     1      -2.659   3.314  24.698  0.00  0.00    -0.249 OA
ATOM     21  N   UNL     1      -2.492   4.176  25.825  0.00  0.00    -0.189 NA
BRANCH  21  22
ATOM     22  C   UNL     1      -1.859   4.545  25.448  0.00  0.00    +0.097 C 
ATOM     23  C   UNL     1      -1.935   5.321  25.178  0.00  0.00    +0.022 C 
ATOM     24  C   UNL     1      -1.302   5.690  24.801  0.00  0.00    +0.002 C 
ATOM     25  C   UNL     1      -0.591   5.285  24.694  0.00  0.00    +0.000 C 
ATOM     26  C   UNL     1      -0.515   4.508  24.964  0.00  0.00    +0.002 C 
ATOM     27  C   UNL     1      -1.148   4.139  25.341  0.00  0.00    +0.022 C 
ENDBRANCH  21  22
ENDBRANCH   4  18
TORSDOF 4
ENDMDL
MODEL 5
REMARK VINA RESULT:      -9.2      2.611      4.172
REMARK  Name = 
REMARK  4 active torsions:
REMARK  status: ('A' for Active; 'I' for Inactive)
REMARK    1  A    between atoms: C_4  and  N_18
REMARK    2  A    between atoms: C_6  and  C_7
REMARK    3  A    between atoms: C_9  and  C_12
REMARK    4  A    between atoms: N_21  and  C_22
REMARK                            x       y       z     vdW  Elec       q    Type
REMARK                         _______ _______ _______ _____ _____    ______ ____
ROOT
ATOM      1  C   UNL     1      -0.098   1.921  25.596  0.00  0.00    +0.090 C 
ATOM      2  N   UNL     1      -0.729   1.993  25.070  0.00  0.00    -0.264 NA
ATOM      3  C   UNL     1      -1.368   2.511  25.146  0.00  0.00    +0.094 C 
ATOM      4  C   UNL     1      -1.865   2.399  24.498  0.00  0.00    +0.115 C 
ATOM      5  C   UNL     1      -1.535   1.811  24.022  0.00  0.00    +0.049 C 
ATOM      6  C   UNL     1      -0.834   1.561  24.375  0.00  0.00    +0.139 C 
ENDROOT
BRANCH   6   7
ATOM      7  C   UNL     1      -0.325   0.980  24.085  0.00  0.00    +0.251 A 
ATOM      8  N   UNL     1       0.331   1.107  23.601  0.00  0.00    -0.188 NA
ATOM      9  C   UNL     1       0.679   0.375  23.445  0.00  0.00    +0.223 A 
ATOM     10  N   UNL     1       0.237  -0.205  23.832  0.00  0.00    -0.054 NA
ATOM     11  O   UNL     1      -0.383   0.169  24.227  0.00  0.00    -0.336 OA
BRANCH   9  12
ATOM     12  C   UNL     1       1.350   0.246  22.983  0.00  0.00    +0.139 A 
ATOM     13  C   UNL     1       1.293  -0.190  22.285  0.00  0.00    +0.121 A 
ATOM     14  N   UNL     1       1.964  -0.318  21.824  0.00  0.00    -0.239 NA
ATOM     15  C   UNL     1       2.693  -0.011  22.059  0.00  0.00    +0.120 A 
ATOM     16  C   UNL     1       2.750   0.425  22.757  0.00  0.00    +0.120 A 
ATOM     17  N   UNL     1       2.078   0.553  23.219  0.00  0.00    -0.237 NA
ENDBRANCH   9  12
ENDBRANCH   6   7
BRANCH   4  18
ATOM     18  N   UNL     1      -2.570   2.802  24.352  0.00  0.00    -0.187 NA
ATOM     19  C   UNL     1      -3.272   2.546  24.700  0.00  0.00    +0.339 C 
ATOM     20  O   UNL     1      -3.271   1.886  25.195  0.00  0.00    -0.249 OA
ATOM     21  N   UNL     1      -3.977   2.950  24.554  0.00  0.00    -0.189 NA
BRANCH  21  22
ATOM     22  C   UNL     1      -4.679   2.693  24.903  0.00  0.00    +0.097 C 
ATOM     23  C   UNL     1      -4.944   3.043  25.602  0.00  0.00    +0.022 C 
ATOM     24  C   UNL     1      -5.645   2.787  25.951  0.00  0.00    +0.002 C 
ATOM     25  C   UNL     1      -6.083   2.181  25.602  0.00  0.00    +0.000 C 
ATOM     26  C   UNL     1      -5.818   1.831  24.903  0.00  0.00    +0.002 C 
ATOM     27  C   UNL     1      -5.116   2.088  24.554  0.00  0.00    +0.022 C 
ENDBRANCH  21  22
ENDBRANCH   4  18
TORSDOF 4
ENDMDL
MODEL 6
REMARK VINA RESULT:      -9.0      1.732      5.255
REMARK  Name = 
REMARK  4 active torsions:
REMARK  status: ('A' for Active; 'I' for Inactive)
REMARK    1  A    between atoms: C_4  and  N_18
REMARK    2  A    between atoms: C_6  and  C_7
REMARK    3  A    between atoms: C_9  and  C_12
REMARK    4  A    between atoms: N_21  and  C_22
REMARK                            x       y       z     vdW  Elec       q    Type
REMARK                         _______ _______ _______ _____ _____    ______ ____
ROOT
ATOM      1  C   UNL     1      -1.296   2.711  23.971  0.00  0.00    +0.090 C 
ATOM      2  N   UNL     1      -1.430   1.978  24.325  0.00  0.00    -0.264 NA
ATOM      3  C   UNL     1      -2.156   1.698  24.600  0.00  0.00    +0.094 C 
ATOM      4  C   UNL     1      -2.037   0.943  24.910  0.00  0.00    +0.115 C 
ATOM      5  C   UNL     1      -1.238   0.756  24.827  0.00  0.00    +0.049 C 
ATOM      6  C   UNL     1      -0.863   1.395  24.465  0.00  0.00    +0.139 C 
ENDROOT
BRANCH   6   7
ATOM      7  C   UNL     1      -0.061   1.444  24.276  0.00  0.00    +0.251 A 
ATOM      8  N   UNL     1       0.346   0.948  23.758  0.00  0.00    -0.188 NA
ATOM      9  C   UNL     1       1.133   1.195  23.734  0.00  0.00    +0.223 A 
ATOM     10  N   UNL     1       1.212   1.845  24.237  0.00  0.00    -0.054 NA
ATOM     11  O   UNL     1       0.474   1.998  24.572  0.00  0.00    -0.336 OA
BRANCH   9  12
ATOM     12  C   UNL     1       1.735   0.853  23.286  0.00  0.00    +0.139 A 
ATOM     13  C   UNL     1       1.575   0.198  22.810  0.00  0.00    +0.121 A 
ATOM     14  N   UNL     1       2.177  -0.143  22.362  0.00  0.00    -0.239 NA
ATOM     15  C   UNL     1       2.940   0.170  22.389  0.00  0.00    +0.120 A 
ATOM     16  C   UNL     1       3.100   0.825  22.864  0.00  0.00    +0.120 A 
ATOM     17  N   UNL     1       2.498   1.166  23.312  0.00  0.00    -0.237 NA
ENDBRANCH   9  12
ENDBRANCH   6   7
BRANCH   4  18
ATOM     18  N   UNL     1      -2.615   0.459  25.246  0.00  0.00    -0.187 NA
ATOM     19  C   UNL     1      -2.844  -0.235  24.864  0.00  0.00    +0.339 C 
ATOM     20  O   UNL     1      -2.495  -0.447  24.147  0.00  0.00    -0.249 OA
ATOM     21  N   UNL     1      -3.422  -0.719  25.199  0.00  0.00    -0.189 NA
BRANCH  21  22
ATOM     22  C   UNL     1      -3.651  -1.413  24.817  0.00  0.00    +0.097 C 
ATOM     23  C   UNL     1      -3.345  -2.139  25.064  0.00  0.00    +0.022 C 
ATOM     24  C   UNL     1      -3.573  -2.834  24.683  0.00  0.00    +0.002 C 
ATOM     25  C   UNL     1      -4.107  -2.804  24.054  0.00  0.00    +0.000 C 
ATOM     26  C   UNL     1      -4.413  -2.078  23.807  0.00  0.00    +0.002 C 
ATOM     27  C   UNL     1      -4.184  -1.383  24.189  0.00  0.00    +0.022 C 
ENDBRANCH  21  22
ENDBRANCH   4  18
TORSDOF 4
ENDMDL
