MODEL 1
REMARK VINA RESULT:     -11.7      0.000      0.000
REMARK  Name = 
REMARK  7 active torsions:
REMARK  status: ('A' for Active; 'I' for Inactive)
REMARK    1  A    between atoms: O_2  and  C_3
REMARK    2  A    between atoms: C_6  and  C_7
REMARK    3  A    between atoms: C_7  and  N_8
REMARK    4  A    between atoms: C_9  and  C_11
REMARK    5  A    between atoms: C_11  and  C_13
REMARK    6  A    between atoms: C_20  and  N_21
REMARK    7  A    between atoms: C_22  and  C_24
REMARK                            x       y       z     vdW  Elec       q    Type
REMARK                         _______ _______ _______ _____ _____    ______ ____
ROOT
ATOM     13  C   UNL     1      -4.301   2.918  24.402  0.00  0.00    +0.039 C 
ATOM     14  C   UNL     1      -4.923   2.961  24.943  0.00  0.00    +0.003 C 
ATOM     15  C   UNL     1      -5.255   2.269  25.246  0.00  0.00    +0.000 C 
ATOM     16  C   UNL     1      -4.965   1.535  25.008  0.00  0.00    +0.002 C 
ATOM     17  C   UNL     1      -5.586   1.577  25.548  0.00  0.00    +0.000 C 
ATOM     18  C   UNL     1      -5.296   0.842  25.311  0.00  0.00    +0.002 C 
ATOM     19  C   UNL     1      -5.006   0.108  25.074  0.00  0.00    +0.022 C 
ATOM     20  C   UNL     1      -4.384   0.065  24.532  0.00  0.00    +0.096 C 
ATOM     30  C   UNL     1      -4.053   0.756  24.230  0.00  0.00    +0.022 C 
ATOM     31  C   UNL     1      -3.431   0.714  23.689  0.00  0.00    +0.002 C 
ATOM     32  C   UNL     1      -4.343   1.492  24.467  0.00  0.00    +0.032 C 
ATOM     33  C   UNL     1      -4.011   2.183  24.164  0.00  0.00    +0.152 C 
ATOM     34  O   UNL     1      -3.390   2.140  23.624  0.00  0.00    -0.223 OA
ENDROOT
BRANCH  20  21
ATOM     21  N   UNL     1      -4.094  -0.670  24.295  0.00  0.00    -0.203 NA
ATOM     22  C   UNL     1      -3.843  -1.217  24.859  0.00  0.00    +0.268 C 
ATOM     23  O   UNL     1      -3.881  -1.028  25.662  0.00  0.00    -0.268 OA
BRANCH  22  24
ATOM     24  C   UNL     1      -3.553  -1.952  24.621  0.00  0.00    +0.093 A 
ATOM     25  C   UNL     1      -4.052  -2.492  24.249  0.00  0.00    +0.107 A 
ATOM     26  N   UNL     1      -3.763  -3.227  24.012  0.00  0.00    -0.222 NA
ATOM     27  C   UNL     1      -2.973  -3.422  24.147  0.00  0.00    +0.199 A 
ATOM     28  N   UNL     1      -2.472  -2.882  24.520  0.00  0.00    -0.222 NA
ATOM     29  C   UNL     1      -2.763  -2.147  24.757  0.00  0.00    +0.107 A 
ENDBRANCH  22  24
ENDBRANCH  20  21
BRANCH  13  11
ATOM     11  C   UNL     1      -3.970   3.610  24.099  0.00  0.00    +0.081 C 
ATOM     12  C   UNL     1      -4.182   3.873  23.346  0.00  0.00    +0.010 C 
BRANCH  11   9
ATOM      8  N   UNL     1      -2.641   3.796  24.589  0.00  0.00    -0.201 NA
ATOM      9  C   UNL     1      -3.427   4.040  24.548  0.00  0.00    +0.241 C 
ATOM     10  O   UNL     1      -3.672   4.715  24.956  0.00  0.00    -0.273 OA
BRANCH   8   7
ATOM      7  C   UNL     1      -2.099   4.226  25.038  0.00  0.00    +0.141 C 
BRANCH   7   6
ATOM      3  C   UNL     1      -0.064   3.122  25.916  0.00  0.00    +0.139 A 
ATOM      4  C   UNL     1      -0.044   3.502  25.183  0.00  0.00    +0.037 A 
ATOM      5  C   UNL     1      -0.723   3.870  24.891  0.00  0.00    +0.001 A 
ATOM      6  C   UNL     1      -1.420   3.858  25.330  0.00  0.00    -0.000 A 
ATOM     35  C   UNL     1      -1.440   3.479  26.062  0.00  0.00    +0.001 A 
ATOM     36  C   UNL     1      -0.763   3.111  26.356  0.00  0.00    +0.037 A 
BRANCH   3   2
ATOM      1  C   UNL     1       0.594   2.377  26.941  0.00  0.00    +0.252 C 
ATOM      2  O   UNL     1       0.613   2.754  26.209  0.00  0.00    -0.471 OA
ENDBRANCH   3   2
ENDBRANCH   7   6
ENDBRANCH   8   7
ENDBRANCH  11   9
ENDBRANCH  13  11
TORSDOF 7
ENDMDL
MODEL 2
REMARK VINA RESULT:     -11.2      3.558      5.246
REMARK  Name = 
REMARK  7 active torsions:
REMARK  status: ('A' for Active; 'I' for Inactive)
REMARK    1  A    between atoms: O_2  and  C_3
REMARK    2  A    between atoms: C_6  and  C_7
REMARK    3  A    between atoms: C_7  and  N_8
REMARK    4  A    between atoms: C_9  and  C_11
REMARK    5  A    between atoms: C_11  and  C_13
REMARK    6  A    between atoms: C_20  and  N_21
REMARK    7  A    between atoms: C_22  and  C_24
REMARK                            x       y       z     vdW  Elec       q    Type
REMARK                         _______ _______ _______ _____ _____    ______ ____
ROOT
ATOM     13  C   UNL     1      -0.150   0.708  24.014  0.00  0.00    +0.039 C 
ATOM     14  C   UNL     1       0.261   1.423  24.071  0.00  0.00    +0.003 C 
ATOM     15  C   UNL     1      -0.129   2.102  24.329  0.00  0.00    +0.000 C 
ATOM     16  C   UNL     1      -0.928   2.068  24.530  0.00  0.00    +0.002 C 
ATOM     17  C   UNL     1      -0.518   2.781  24.587  0.00  0.00    +0.000 C 
ATOM     18  C   UNL     1      -1.318   2.748  24.788  0.00  0.00    +0.002 C 
ATOM     19  C   UNL     1      -2.117   2.715  24.988  0.00  0.00    +0.022 C 
ATOM     20  C   UNL     1      -2.527   2.000  24.931  0.00  0.00    +0.096 C 
ATOM     30  C   UNL     1      -2.138   1.321  24.673  0.00  0.00    +0.022 C 
ATOM     31  C   UNL     1      -2.548   0.607  24.615  0.00  0.00    +0.002 C 
ATOM     32  C   UNL     1      -1.338   1.354  24.472  0.00  0.00    +0.032 C 
ATOM     33  C   UNL     1      -0.949   0.675  24.214  0.00  0.00    +0.152 C 
ATOM     34  O   UNL     1      -1.359  -0.039  24.156  0.00  0.00    -0.223 OA
ENDROOT
BRANCH  20  21
ATOM     21  N   UNL     1      -3.327   1.967  25.132  0.00  0.00    -0.203 NA
ATOM     22  C   UNL     1      -3.827   2.594  24.940  0.00  0.00    +0.268 C 
ATOM     23  O   UNL     1      -3.528   3.256  24.547  0.00  0.00    -0.268 OA
BRANCH  22  24
ATOM     24  C   UNL     1      -4.627   2.561  25.141  0.00  0.00    +0.093 A 
ATOM     25  C   UNL     1      -4.907   2.982  25.792  0.00  0.00    +0.107 A 
ATOM     26  N   UNL     1      -5.706   2.949  25.993  0.00  0.00    -0.222 NA
ATOM     27  C   UNL     1      -6.226   2.494  25.541  0.00  0.00    +0.199 A 
ATOM     28  N   UNL     1      -5.946   2.072  24.889  0.00  0.00    -0.222 NA
ATOM     29  C   UNL     1      -5.146   2.106  24.690  0.00  0.00    +0.107 A 
ENDBRANCH  22  24
ENDBRANCH  20  21
BRANCH  13  11
ATOM     11  C   UNL     1       0.240   0.029  23.755  0.00  0.00    +0.081 C 
ATOM     12  C   UNL     1       0.103  -0.693  24.130  0.00  0.00    +0.010 C 
BRANCH  11   9
ATOM      8  N   UNL     1       1.581   0.065  23.261  0.00  0.00    -0.201 NA
ATOM      9  C   UNL     1       0.768   0.070  23.122  0.00  0.00    +0.241 C 
ATOM     10  O   UNL     1       0.482   0.115  22.349  0.00  0.00    -0.273 OA
BRANCH   8   7
ATOM      7  C   UNL     1       2.107   0.107  22.628  0.00  0.00    +0.141 C 
BRANCH   7   6
ATOM      3  C   UNL     1       4.539   0.298  23.049  0.00  0.00    +0.139 A 
ATOM      4  C   UNL     1       4.148  -0.411  23.207  0.00  0.00    +0.037 A 
ATOM      5  C   UNL     1       3.337  -0.474  23.066  0.00  0.00    +0.001 A 
ATOM      6  C   UNL     1       2.918   0.170  22.769  0.00  0.00    -0.000 A 
ATOM     35  C   UNL     1       3.309   0.879  22.611  0.00  0.00    +0.001 A 
ATOM     36  C   UNL     1       4.119   0.944  22.751  0.00  0.00    +0.037 A 
BRANCH   3   2
ATOM      1  C   UNL     1       5.670   0.084  23.895  0.00  0.00    +0.252 C 
ATOM      2  O   UNL     1       5.349   0.363  23.189  0.00  0.00    -0.471 OA
ENDBRANCH   3   2
ENDBRANCH   7   6
ENDBRANCH   8   7
ENDBRANCH  11   9
ENDBRANCH  13  11
TORSDOF 7
ENDMDL
MODEL 3
REMARK VINA RESULT:     -10.8      1.809      3.747
REMARK  Name = 
REMARK  7 active torsions:
REMARK  status: ('A' for Active; 'I' for Inactive)
REMARK    1  A    between atoms: O_2  and  C_3
REMARK    2  A    between atoms: C_6  and  C_7
REMARK    3  A    between atoms: C_7  and  N_8
REMARK    4  A    between atoms: C_9  and  C_11
REMARK    5  A    between atoms: C_11  and  C_13
REMARK    6  A    between atoms: C_20  and  N_21
REMARK    7  A    between atoms: C_22  and  C_24
REMARK                            x       y       z     vdW  Elec       q    Type
REMARK                         _______ _______ _______ _____ _____    ______ ____
ROOT
ATOM     13  C   UNL     1      -0.171   2.091  25.263  0.00  0.00    +0.039 C 
ATOM     14  C   UNL     1       0.313   2.110  24.594  0.00  0.00    +0.003 C 
ATOM     15  C   UNL     1       0.340   1.461  24.087  0.00  0.00    +0.000 C 
ATOM     16  C   UNL     1      -0.117   0.793  24.246  0.00  0.00    +0.002 C 
ATOM     17  C   UNL     1       0.366   0.812  23.579  0.00  0.00    +0.000 C 
ATOM     18  C   UNL     1      -0.090   0.143  23.738  0.00  0.00    +0.002 C 
ATOM     19  C   UNL     1      -0.547  -0.524  23.898  0.00  0.00    +0.022 C 
ATOM     20  C   UNL     1      -1.031  -0.543  24.567  0.00  0.00    +0.096 C 
ATOM     30  C   UNL     1      -1.057   0.106  25.075  0.00  0.00    +0.022 C 
ATOM     31  C   UNL     1      -1.540   0.087  25.744  0.00  0.00    +0.002 C 
ATOM     32  C   UNL     1      -0.600   0.774  24.916  0.00  0.00    +0.032 C 
ATOM     33  C   UNL     1      -0.627   1.423  25.423  0.00  0.00    +0.152 C 
ATOM     34  O   UNL     1      -1.110   1.404  26.092  0.00  0.00    -0.223 OA
ENDROOT
BRANCH  20  21
ATOM     21  N   UNL     1      -1.487  -1.212  24.727  0.00  0.00    -0.203 NA
ATOM     22  C   UNL     1      -2.122  -1.405  24.238  0.00  0.00    +0.268 C 
ATOM     23  O   UNL     1      -2.302  -0.928  23.588  0.00  0.00    -0.268 OA
BRANCH  22  24
ATOM     24  C   UNL     1      -2.579  -2.073  24.398  0.00  0.00    +0.093 A 
ATOM     25  C   UNL     1      -2.219  -2.812  24.466  0.00  0.00    +0.107 A 
ATOM     26  N   UNL     1      -2.676  -3.481  24.626  0.00  0.00    -0.222 NA
ATOM     27  C   UNL     1      -3.493  -3.409  24.717  0.00  0.00    +0.199 A 
ATOM     28  N   UNL     1      -3.853  -2.670  24.648  0.00  0.00    -0.222 NA
ATOM     29  C   UNL     1      -3.396  -2.002  24.489  0.00  0.00    +0.107 A 
ENDBRANCH  22  24
ENDBRANCH  20  21
BRANCH  13  11
ATOM     11  C   UNL     1      -0.197   2.741  25.771  0.00  0.00    +0.081 C 
ATOM     12  C   UNL     1       0.225   2.727  26.480  0.00  0.00    +0.010 C 
BRANCH  11   9
ATOM      8  N   UNL     1      -1.454   3.419  25.727  0.00  0.00    -0.201 NA
ATOM      9  C   UNL     1      -0.644   3.404  25.572  0.00  0.00    +0.241 C 
ATOM     10  O   UNL     1      -0.281   4.055  25.216  0.00  0.00    -0.273 OA
BRANCH   8   7
ATOM      7  C   UNL     1      -1.900   4.082  25.527  0.00  0.00    +0.141 C 
BRANCH   7   6
ATOM      3  C   UNL     1      -4.368   3.928  25.415  0.00  0.00    +0.139 A 
ATOM      4  C   UNL     1      -3.994   4.030  26.143  0.00  0.00    +0.037 A 
ATOM      5  C   UNL     1      -3.171   4.082  26.180  0.00  0.00    +0.001 A 
ATOM      6  C   UNL     1      -2.723   4.031  25.490  0.00  0.00    -0.000 A 
ATOM     35  C   UNL     1      -3.097   3.928  24.762  0.00  0.00    +0.001 A 
ATOM     36  C   UNL     1      -3.920   3.876  24.724  0.00  0.00    +0.037 A 
BRANCH   3   2
ATOM      1  C   UNL     1      -5.572   3.183  25.608  0.00  0.00    +0.252 C 
ATOM      2  O   UNL     1      -5.191   3.876  25.377  0.00  0.00    -0.471 OA
ENDBRANCH   3   2
ENDBRANCH   7   6
ENDBRANCH   8   7
ENDBRANCH  11   9
ENDBRANCH  13  11
TORSDOF 7
ENDMDL
MODEL 4
REMARK VINA RESULT:     -10.8      2.460      4.811
REMARK  Name = 
REMARK  7 active torsions:
REMARK  status: ('A' for Active; 'I' for Inactive)
REMARK    1  A    between atoms: O_2  and  C_3
REMARK    2  A    between atoms: C_6  and  C_7
REMARK    3  A    between atoms: C_7  and  N_8
REMARK    4  A    between atoms: C_9  and  C_11
REMARK    5  A    between atoms: C_11  and  C_13
REMARK    6  A    between atoms: C_20  and  N_21
REMARK    7  A    between atoms: C_22  and  C_24
REMARK                            x       y       z     vdW  Elec       q    Type
REMARK                         _______ _______ _______ _____ _____    ______ ____
ROOT
ATOM     13  C   UNL     1      -2.882   2.617  24.647  0.00  0.00    +0.039 C 
ATOM     14  C   UNL     1      -2.683   2.962  25.370  0.00  0.00    +0.003 C 
ATOM     15  C   UNL     1      -1.893   3.003  25.603  0.00  0.00    +0.000 C 
ATOM     16  C   UNL     1      -1.302   2.700  25.114  0.00  0.00    +0.002 C 
ATOM     17  C   UNL     1      -1.103   3.044  25.836  0.00  0.00    +0.000 C 
ATOM     18  C   UNL     1      -0.512   2.740  25.347  0.00  0.00    +0.002 C 
ATOM     19  C   UNL     1       0.079   2.437  24.858  0.00  0.00    +0.022 C 
ATOM     20  C   UNL     1      -0.121   2.092  24.134  0.00  0.00    +0.096 C 
ATOM     30  C   UNL     1      -0.911   2.051  23.902  0.00  0.00    +0.022 C 
ATOM     31  C   UNL     1      -1.111   1.707  23.179  0.00  0.00    +0.002 C 
ATOM     32  C   UNL     1      -1.502   2.355  24.391  0.00  0.00    +0.032 C 
ATOM     33  C   UNL     1      -2.292   2.314  24.158  0.00  0.00    +0.152 C 
ATOM     34  O   UNL     1      -2.492   1.970  23.435  0.00  0.00    -0.223 OA
ENDROOT
BRANCH  20  21
ATOM     21  N   UNL     1       0.470   1.788  23.645  0.00  0.00    -0.203 NA
ATOM     22  C   UNL     1       0.904   1.129  23.883  0.00  0.00    +0.268 C 
ATOM     23  O   UNL     1       0.748   0.772  24.611  0.00  0.00    -0.268 OA
BRANCH  22  24
ATOM     24  C   UNL     1       1.496   0.826  23.394  0.00  0.00    +0.093 A 
ATOM     25  C   UNL     1       1.345   0.164  22.926  0.00  0.00    +0.107 A 
ATOM     26  N   UNL     1       1.937  -0.140  22.437  0.00  0.00    -0.222 NA
ATOM     27  C   UNL     1       2.679   0.220  22.416  0.00  0.00    +0.199 A 
ATOM     28  N   UNL     1       2.830   0.883  22.885  0.00  0.00    -0.222 NA
ATOM     29  C   UNL     1       2.238   1.185  23.373  0.00  0.00    +0.107 A 
ENDBRANCH  22  24
ENDBRANCH  20  21
BRANCH  13  11
ATOM     11  C   UNL     1      -3.673   2.577  24.414  0.00  0.00    +0.081 C 
ATOM     12  C   UNL     1      -3.968   3.114  23.862  0.00  0.00    +0.010 C 
BRANCH  11   9
ATOM      8  N   UNL     1      -4.046   1.204  24.554  0.00  0.00    -0.201 NA
ATOM      9  C   UNL     1      -4.169   2.000  24.733  0.00  0.00    +0.241 C 
ATOM     10  O   UNL     1      -4.790   2.219  25.231  0.00  0.00    -0.273 OA
BRANCH   8   7
ATOM      7  C   UNL     1      -4.541   0.628  24.873  0.00  0.00    +0.141 C 
BRANCH   7   6
ATOM      3  C   UNL     1      -3.903  -1.760  24.753  0.00  0.00    +0.139 A 
ATOM      4  C   UNL     1      -3.726  -1.320  25.428  0.00  0.00    +0.037 A 
ATOM      5  C   UNL     1      -3.939  -0.523  25.467  0.00  0.00    +0.001 A 
ATOM      6  C   UNL     1      -4.328  -0.168  24.833  0.00  0.00    -0.000 A 
ATOM     35  C   UNL     1      -4.506  -0.609  24.159  0.00  0.00    +0.001 A 
ATOM     36  C   UNL     1      -4.293  -1.405  24.118  0.00  0.00    +0.037 A 
BRANCH   3   2
ATOM      1  C   UNL     1      -2.921  -2.768  24.511  0.00  0.00    +0.252 C 
ATOM      2  O   UNL     1      -3.691  -2.557  24.712  0.00  0.00    -0.471 OA
ENDBRANCH   3   2
ENDBRANCH   7   6
ENDBRANCH   8   7
ENDBRANCH  11   9
ENDBRANCH  13  11
TORSDOF 7
ENDMDL
MODEL 5
REMARK VINA RESULT:     -10.5      2.801      4.829
REMARK  Name = 
REMARK  7 active torsions:
REMARK  status: ('A' for Active; 'I' for Inactive)
REMARK    1  A    between atoms: O_2  and  C_3
REMARK    2  A    between atoms: C_6  and  C_7
REMARK    3  A    between atoms: C_7  and  N_8
REMARK    4  A    between atoms: C_9  and  C_11
REMARK    5  A    between atoms: C_11  and  C_13
REMARK    6  A    between atoms: C_20  and  N_21
REMARK    7  A    between atoms: C_22  and  C_24
REMARK                            x       y       z     vdW  Elec       q    Type
REMARK                         _______ _______ _______ _____ _____    ______ ____
ROOT
ATOM     13  C   UNL     1      -1.709  -1.045  24.658  0.00  0.00    +0.039 C 
ATOM     14  C   UNL     1      -2.232  -1.638  24.423  0.00  0.00    +0.003 C 
ATOM     15  C   UNL     1      -3.044  -1.496  24.425  0.00  0.00    +0.000 C 
ATOM     16  C   UNL     1      -3.334  -0.761  24.661  0.00  0.00    +0.002 C 
ATOM     17  C   UNL     1      -3.856  -1.354  24.427  0.00  0.00    +0.000 C 
ATOM     18  C   UNL     1      -4.146  -0.618  24.663  0.00  0.00    +0.002 C 
ATOM     19  C   UNL     1      -4.436   0.117  24.899  0.00  0.00    +0.022 C 
ATOM     20  C   UNL     1      -3.912   0.711  25.134  0.00  0.00    +0.096 C 
ATOM     30  C   UNL     1      -3.100   0.568  25.132  0.00  0.00    +0.022 C 
ATOM     31  C   UNL     1      -2.577   1.161  25.367  0.00  0.00    +0.002 C 
ATOM     32  C   UNL     1      -2.810  -0.167  24.896  0.00  0.00    +0.032 C 
ATOM     33  C   UNL     1      -1.998  -0.310  24.894  0.00  0.00    +0.152 C 
ATOM     34  O   UNL     1      -1.475   0.283  25.128  0.00  0.00    -0.223 OA
ENDROOT
BRANCH  20  21
ATOM     21  N   UNL     1      -4.202   1.446  25.371  0.00  0.00    -0.203 NA
ATOM     22  C   UNL     1      -4.790   1.819  24.930  0.00  0.00    +0.268 C 
ATOM     23  O   UNL     1      -5.089   1.457  24.251  0.00  0.00    -0.268 OA
BRANCH  22  24
ATOM     24  C   UNL     1      -5.080   2.555  25.166  0.00  0.00    +0.093 A 
ATOM     25  C   UNL     1      -5.723   2.599  25.681  0.00  0.00    +0.107 A 
ATOM     26  N   UNL     1      -6.013   3.335  25.917  0.00  0.00    -0.222 NA
ATOM     27  C   UNL     1      -5.659   4.026  25.638  0.00  0.00    +0.199 A 
ATOM     28  N   UNL     1      -5.015   3.982  25.123  0.00  0.00    -0.222 NA
ATOM     29  C   UNL     1      -4.726   3.246  24.888  0.00  0.00    +0.107 A 
ENDBRANCH  22  24
ENDBRANCH  20  21
BRANCH  13  11
ATOM     11  C   UNL     1      -0.896  -1.188  24.655  0.00  0.00    +0.081 C 
ATOM     12  C   UNL     1      -0.507  -1.363  25.361  0.00  0.00    +0.010 C 
BRANCH  11   9
ATOM      8  N   UNL     1       0.111  -0.583  23.842  0.00  0.00    -0.201 NA
ATOM      9  C   UNL     1      -0.472  -1.156  23.948  0.00  0.00    +0.241 C 
ATOM     10  O   UNL     1      -0.632  -1.699  23.347  0.00  0.00    -0.273 OA
BRANCH   8   7
ATOM      7  C   UNL     1       0.534  -0.551  23.135  0.00  0.00    +0.141 C 
BRANCH   7   6
ATOM      3  C   UNL     1       2.600   0.804  22.986  0.00  0.00    +0.139 A 
ATOM      4  C   UNL     1       1.932   1.111  23.359  0.00  0.00    +0.037 A 
ATOM      5  C   UNL     1       1.243   0.659  23.408  0.00  0.00    +0.001 A 
ATOM      6  C   UNL     1       1.223  -0.099  23.086  0.00  0.00    -0.000 A 
ATOM     35  C   UNL     1       1.891  -0.406  22.713  0.00  0.00    +0.001 A 
ATOM     36  C   UNL     1       2.580   0.044  22.662  0.00  0.00    +0.037 A 
BRANCH   3   2
ATOM      1  C   UNL     1       4.001   0.898  22.723  0.00  0.00    +0.252 C 
ATOM      2  O   UNL     1       3.289   1.255  22.936  0.00  0.00    -0.471 OA
ENDBRANCH   3   2
ENDBRANCH   7   6
ENDBRANCH   8   7
ENDBRANCH  11   9
ENDBRANCH  13  11
TORSDOF 7
ENDMDL
MODEL 6
REMARK VINA RESULT:     -10.2      2.697      5.145
REMARK  Name = 
REMARK  7 active torsions:
REMARK  status: ('A' for Active; 'I' for Inactive)
REMARK    1  A    between atoms: O_2  and  C_3
REMARK    2  A    between atoms: C_6  and  C_7
REMARK    3  A    between atoms: C_7  and  N_8
REMARK    4  A    between atoms: C_9  and  C_11
REMARK    5  A    between atoms: C_11  and  C_13
REMARK    6  A    between atoms: C_20  and  N_21
REMARK    7  A    between atoms: C_22  and  C_24
REMARK                            x       y       z     vdW  Elec       q    Type
REMARK                         _______ _______ _______ _____ _____    ______ ____
ROOT
ATOM     13  C   UNL     1      -2.905  -1.169  25.213  0.00  0.00    +0.039 C 
ATOM     14  C   UNL     1      -2.944  -1.940  24.920  0.00  0.00    +0.003 C 
ATOM     15  C   UNL     1      -2.302  -2.260  24.513  0.00  0.00    +0.000 C 
ATOM     16  C   UNL     1      -1.620  -1.810  24.400  0.00  0.00    +0.002 C 
ATOM     17  C   UNL     1      -1.660  -2.579  24.107  0.00  0.00    +0.000 C 
ATOM     18  C   UNL     1      -0.977  -2.130  23.993  0.00  0.00    +0.002 C 
ATOM     19  C   UNL     1      -0.296  -1.680  23.880  0.00  0.00    +0.022 C 
ATOM     20  C   UNL     1      -0.256  -0.909  24.173  0.00  0.00    +0.096 C 
ATOM     30  C   UNL     1      -0.898  -0.589  24.580  0.00  0.00    +0.022 C 
ATOM     31  C   UNL     1      -0.859   0.181  24.873  0.00  0.00    +0.002 C 
ATOM     32  C   UNL     1      -1.581  -1.039  24.693  0.00  0.00    +0.032 C 
ATOM     33  C   UNL     1      -2.223  -0.719  25.100  0.00  0.00    +0.152 C 
ATOM     34  O   UNL     1      -2.183   0.051  25.393  0.00  0.00    -0.223 OA
ENDROOT
BRANCH  20  21
ATOM     21  N   UNL     1       0.426  -0.460  24.060  0.00  0.00    -0.203 NA
ATOM     22  C   UNL     1       0.715  -0.332  23.298  0.00  0.00    +0.268 C 
ATOM     23  O   UNL     1       0.320  -0.655  22.648  0.00  0.00    -0.268 OA
BRANCH  22  24
ATOM     24  C   UNL     1       1.397   0.117  23.184  0.00  0.00    +0.093 A 
ATOM     25  C   UNL     1       2.026  -0.190  22.749  0.00  0.00    +0.107 A 
ATOM     26  N   UNL     1       2.709   0.260  22.635  0.00  0.00    -0.222 NA
ATOM     27  C   UNL     1       2.762   1.017  22.957  0.00  0.00    +0.199 A 
ATOM     28  N   UNL     1       2.131   1.326  23.393  0.00  0.00    -0.222 NA
ATOM     29  C   UNL     1       1.450   0.875  23.506  0.00  0.00    +0.107 A 
ENDBRANCH  22  24
ENDBRANCH  20  21
BRANCH  13  11
ATOM     11  C   UNL     1      -3.548  -0.849  25.620  0.00  0.00    +0.081 C 
ATOM     12  C   UNL     1      -3.583  -0.902  26.442  0.00  0.00    +0.010 C 
BRANCH  11   9
ATOM      8  N   UNL     1      -4.360   0.302  25.382  0.00  0.00    -0.201 NA
ATOM      9  C   UNL     1      -4.156  -0.476  25.205  0.00  0.00    +0.241 C 
ATOM     10  O   UNL     1      -4.560  -0.884  24.611  0.00  0.00    -0.273 OA
BRANCH   8   7
ATOM      7  C   UNL     1      -4.968   0.674  24.967  0.00  0.00    +0.141 C 
BRANCH   7   6
ATOM      3  C   UNL     1      -5.445   3.072  25.352  0.00  0.00    +0.139 A 
ATOM      4  C   UNL     1      -4.872   2.849  24.803  0.00  0.00    +0.037 A 
ATOM      5  C   UNL     1      -4.713   2.049  24.675  0.00  0.00    +0.001 A 
ATOM      6  C   UNL     1      -5.127   1.474  25.095  0.00  0.00    -0.000 A 
ATOM     35  C   UNL     1      -5.700   1.697  25.645  0.00  0.00    +0.001 A 
ATOM     36  C   UNL     1      -5.860   2.496  25.774  0.00  0.00    +0.037 A 
BRANCH   3   2
ATOM      1  C   UNL     1      -4.987   4.415  25.516  0.00  0.00    +0.252 C 
ATOM      2  O   UNL     1      -5.605   3.871  25.481  0.00  0.00    -0.471 OA
ENDBRANCH   3   2
ENDBRANCH   7   6
ENDBRANCH   8   7
ENDBRANCH  11   9
ENDBRANCH  13  11
TORSDOF 7
ENDMDL
MODEL 7
REMARK VINA RESULT:      -9.9      1.947      5.466
REMARK  Name = 
REMARK  7 active torsions:
REMARK  status: ('A' for Active; 'I' for Inactive)
REMARK    1  A    between atoms: O_2  and  C_3
REMARK    2  A    between atoms: C_6  and  C_7
REMARK    3  A    between atoms: C_7  and  N_8
REMARK    4  A    between atoms: C_9  and  C_11
REMARK    5  A    between atoms: C_11  and  C_13
REMARK    6  A    between atoms: C_20  and  N_21
REMARK    7  A    between atoms: C_22  and  C_24
REMARK                            x       y       z     vdW  Elec       q    Type
REMARK                         _______ _______ _______ _____ _____    ______ ____
ROOT
ATOM     13  C   UNL     1      -0.462   1.386  24.346  0.00  0.00    +0.039 C 
ATOM     14  C   UNL     1       0.044   1.757  24.883  0.00  0.00    +0.003 C 
ATOM     15  C   UNL     1      -0.231   2.383  25.343  0.00  0.00    +0.000 C 
ATOM     16  C   UNL     1      -1.011   2.639  25.268  0.00  0.00    +0.002 C 
ATOM     17  C   UNL     1      -0.506   3.010  25.803  0.00  0.00    +0.000 C 
ATOM     18  C   UNL     1      -1.287   3.266  25.728  0.00  0.00    +0.002 C 
ATOM     19  C   UNL     1      -2.067   3.522  25.653  0.00  0.00    +0.022 C 
ATOM     20  C   UNL     1      -2.573   3.151  25.116  0.00  0.00    +0.096 C 
ATOM     30  C   UNL     1      -2.298   2.525  24.655  0.00  0.00    +0.022 C 
ATOM     31  C   UNL     1      -2.803   2.154  24.119  0.00  0.00    +0.002 C 
ATOM     32  C   UNL     1      -1.517   2.268  24.731  0.00  0.00    +0.032 C 
ATOM     33  C   UNL     1      -1.242   1.642  24.270  0.00  0.00    +0.152 C 
ATOM     34  O   UNL     1      -1.747   1.271  23.734  0.00  0.00    -0.223 OA
ENDROOT
BRANCH  20  21
ATOM     21  N   UNL     1      -3.354   3.407  25.040  0.00  0.00    -0.203 NA
ATOM     22  C   UNL     1      -3.820   3.513  25.712  0.00  0.00    +0.268 C 
ATOM     23  O   UNL     1      -3.506   3.363  26.461  0.00  0.00    -0.268 OA
BRANCH  22  24
ATOM     24  C   UNL     1      -4.601   3.770  25.637  0.00  0.00    +0.093 A 
ATOM     25  C   UNL     1      -4.760   4.546  25.409  0.00  0.00    +0.107 A 
ATOM     26  N   UNL     1      -5.541   4.802  25.334  0.00  0.00    -0.222 NA
ATOM     27  C   UNL     1      -6.162   4.281  25.487  0.00  0.00    +0.199 A 
ATOM     28  N   UNL     1      -6.003   3.504  25.714  0.00  0.00    -0.222 NA
ATOM     29  C   UNL     1      -5.222   3.249  25.789  0.00  0.00    +0.107 A 
ENDBRANCH  22  24
ENDBRANCH  20  21
BRANCH  13  11
ATOM     11  C   UNL     1      -0.186   0.760  23.885  0.00  0.00    +0.081 C 
ATOM     12  C   UNL     1       0.050   0.894  23.106  0.00  0.00    +0.010 C 
BRANCH  11   9
ATOM      8  N   UNL     1      -0.825  -0.463  24.256  0.00  0.00    -0.201 NA
ATOM      9  C   UNL     1      -0.145  -0.001  24.203  0.00  0.00    +0.241 C 
ATOM     10  O   UNL     1       0.579  -0.299  24.468  0.00  0.00    -0.273 OA
BRANCH   8   7
ATOM      7  C   UNL     1      -0.784  -1.223  24.574  0.00  0.00    +0.141 C 
BRANCH   7   6
ATOM      3  C   UNL     1      -2.832  -2.599  24.766  0.00  0.00    +0.139 A 
ATOM      4  C   UNL     1      -2.257  -2.791  24.205  0.00  0.00    +0.037 A 
ATOM      5  C   UNL     1      -1.575  -2.332  24.142  0.00  0.00    +0.001 A 
ATOM      6  C   UNL     1      -1.467  -1.682  24.637  0.00  0.00    -0.000 A 
ATOM     35  C   UNL     1      -2.041  -1.490  25.198  0.00  0.00    +0.001 A 
ATOM     36  C   UNL     1      -2.724  -1.949  25.262  0.00  0.00    +0.037 A 
BRANCH   3   2
ATOM      1  C   UNL     1      -4.120  -2.976  24.277  0.00  0.00    +0.252 C 
ATOM      2  O   UNL     1      -3.515  -3.058  24.830  0.00  0.00    -0.471 OA
ENDBRANCH   3   2
ENDBRANCH   7   6
ENDBRANCH   8   7
ENDBRANCH  11   9
ENDBRANCH  13  11
TORSDOF 7
ENDMDL
MODEL 8
REMARK VINA RESULT:      -9.9      2.326      3.482
REMARK  Name = 
REMARK  7 active torsions:
REMARK  status: ('A' for Active; 'I' for Inactive)
REMARK    1  A    between atoms: O_2  and  C_3
REMARK    2  A    between atoms: C_6  and  C_7
REMARK    3  A    between atoms: C_7  and  N_8
REMARK    4  A    between atoms: C_9  and  C_11
REMARK    5  A    between atoms: C_11  and  C_13
REMARK    6  A    between atoms: C_20  and  N_21
REMARK    7  A    between atoms: C_22  and  C_24
REMARK                            x       y       z     vdW  Elec       q    Type
REMARK                         _______ _______ _______ _____ _____    ______ ____
ROOT
ATOM     13  C   UNL     1      -4.327   0.546  24.950  0.00  0.00    +0.039 C 
ATOM     14  C   UNL     1      -4.361  -0.036  25.535  0.00  0.00    +0.003 C 
ATOM     15  C   UNL     1      -3.723  -0.547  25.646  0.00  0.00    +0.000 C 
ATOM     16  C   UNL     1      -3.051  -0.476  25.174  0.00  0.00    +0.002 C 
ATOM     17  C   UNL     1      -3.085  -1.057  25.757  0.00  0.00    +0.000 C 
ATOM     18  C   UNL     1      -2.413  -0.986  25.284  0.00  0.00    +0.002 C 
ATOM     19  C   UNL     1      -1.741  -0.915  24.812  0.00  0.00    +0.022 C 
ATOM     20  C   UNL     1      -1.707  -0.333  24.227  0.00  0.00    +0.096 C 
ATOM     30  C   UNL     1      -2.345   0.177  24.116  0.00  0.00    +0.022 C 
ATOM     31  C   UNL     1      -2.311   0.759  23.532  0.00  0.00    +0.002 C 
ATOM     32  C   UNL     1      -3.018   0.107  24.589  0.00  0.00    +0.032 C 
ATOM     33  C   UNL     1      -3.656   0.617  24.478  0.00  0.00    +0.152 C 
ATOM     34  O   UNL     1      -3.622   1.199  23.894  0.00  0.00    -0.223 OA
ENDROOT
BRANCH  20  21
ATOM     21  N   UNL     1      -1.034  -0.262  23.754  0.00  0.00    -0.203 NA
ATOM     22  C   UNL     1      -0.299  -0.124  24.101  0.00  0.00    +0.268 C 
ATOM     23  O   UNL     1      -0.235  -0.056  24.921  0.00  0.00    -0.268 OA
BRANCH  22  24
ATOM     24  C   UNL     1       0.374  -0.053  23.628  0.00  0.00    +0.093 A 
ATOM     25  C   UNL     1       0.851   0.616  23.687  0.00  0.00    +0.107 A 
ATOM     26  N   UNL     1       1.524   0.687  23.214  0.00  0.00    -0.222 NA
ATOM     27  C   UNL     1       1.719   0.087  22.682  0.00  0.00    +0.199 A 
ATOM     28  N   UNL     1       1.241  -0.584  22.623  0.00  0.00    -0.222 NA
ATOM     29  C   UNL     1       0.569  -0.653  23.097  0.00  0.00    +0.107 A 
ENDBRANCH  22  24
ENDBRANCH  20  21
BRANCH  13  11
ATOM     11  C   UNL     1      -4.966   1.056  24.840  0.00  0.00    +0.081 C 
ATOM     12  C   UNL     1      -5.553   0.869  24.291  0.00  0.00    +0.010 C 
BRANCH  11   9
ATOM      8  N   UNL     1      -4.533   2.394  25.095  0.00  0.00    -0.201 NA
ATOM      9  C   UNL     1      -5.019   1.754  25.277  0.00  0.00    +0.241 C 
ATOM     10  O   UNL     1      -5.561   1.811  25.898  0.00  0.00    -0.273 OA
BRANCH   8   7
ATOM      7  C   UNL     1      -4.586   3.090  25.532  0.00  0.00    +0.141 C 
BRANCH   7   6
ATOM      3  C   UNL     1      -2.683   4.672  25.581  0.00  0.00    +0.139 A 
ATOM      4  C   UNL     1      -2.862   4.221  26.249  0.00  0.00    +0.037 A 
ATOM      5  C   UNL     1      -3.496   3.694  26.232  0.00  0.00    +0.001 A 
ATOM      6  C   UNL     1      -3.951   3.618  25.549  0.00  0.00    -0.000 A 
ATOM     35  C   UNL     1      -3.772   4.068  24.881  0.00  0.00    +0.001 A 
ATOM     36  C   UNL     1      -3.138   4.595  24.897  0.00  0.00    +0.037 A 
BRANCH   3   2
ATOM      1  C   UNL     1      -1.383   5.058  25.131  0.00  0.00    +0.252 C 
ATOM      2  O   UNL     1      -2.048   5.199  25.597  0.00  0.00    -0.471 OA
ENDBRANCH   3   2
ENDBRANCH   7   6
ENDBRANCH   8   7
ENDBRANCH  11   9
ENDBRANCH  13  11
TORSDOF 7
ENDMDL
MODEL 9
REMARK VINA RESULT:      -9.9      2.476      4.654
REMARK  Name = 
REMARK  7 active torsions:
REMARK  status: ('A' for Active; 'I' for Inactive)
REMARK    1  A    between atoms: O_2  and  C_3
REMARK    2  A    between atoms: C_6  and  C_7
REMARK    3  A    between atoms: C_7  and  N_8
REMARK    4  A    between atoms: C_9  and  C_11
REMARK    5  A    between atoms: C_11  and  C_13
REMARK    6  A    between atoms: C_20  and  N_21
REMARK    7  A    between atoms: C_22  and  C_24
REMARK                            x       y       z     vdW  Elec       q    Type
REMARK                         _______ _______ _______ _____ _____    ______ ____
ROOT
ATOM     13  C   UNL     1      -1.465   3.867  25.495  0.00  0.00    +0.039 C 
ATOM     14  C   UNL     1      -1.360   3.570  26.258  0.00  0.00    +0.003 C 
ATOM     15  C   UNL     1      -0.867   2.921  26.383  0.00  0.00    +0.000 C 
ATOM     16  C   UNL     1      -0.479   2.569  25.747  0.00  0.00    +0.002 C 
ATOM     17  C   UNL     1      -0.374   2.272  26.509  0.00  0.00    +0.000 C 
ATOM     18  C   UNL     1       0.015   1.920  25.872  0.00  0.00    +0.002 C 
ATOM     19  C   UNL     1       0.404   1.568  25.236  0.00  0.00    +0.022 C 
ATOM     20  C   UNL     1       0.299   1.866  24.473  0.00  0.00    +0.096 C 
ATOM     30  C   UNL     1      -0.194   2.514  24.347  0.00  0.00    +0.022 C 
ATOM     31  C   UNL     1      -0.298   2.811  23.585  0.00  0.00    +0.002 C 
ATOM     32  C   UNL     1      -0.583   2.867  24.984  0.00  0.00    +0.032 C 
ATOM     33  C   UNL     1      -1.076   3.515  24.858  0.00  0.00    +0.152 C 
ATOM     34  O   UNL     1      -1.180   3.813  24.096  0.00  0.00    -0.223 OA
ENDROOT
BRANCH  20  21
ATOM     21  N   UNL     1       0.689   1.513  23.836  0.00  0.00    -0.203 NA
ATOM     22  C   UNL     1       0.709   0.692  23.768  0.00  0.00    +0.268 C 
ATOM     23  O   UNL     1       0.339   0.221  24.337  0.00  0.00    -0.268 OA
BRANCH  22  24
ATOM     24  C   UNL     1       1.099   0.339  23.132  0.00  0.00    +0.093 A 
ATOM     25  C   UNL     1       1.913   0.430  23.045  0.00  0.00    +0.107 A 
ATOM     26  N   UNL     1       2.303   0.077  22.408  0.00  0.00    -0.222 NA
ATOM     27  C   UNL     1       1.876  -0.366  21.859  0.00  0.00    +0.199 A 
ATOM     28  N   UNL     1       1.060  -0.457  21.946  0.00  0.00    -0.222 NA
ATOM     29  C   UNL     1       0.672  -0.104  22.582  0.00  0.00    +0.107 A 
ENDBRANCH  22  24
ENDBRANCH  20  21
BRANCH  13  11
ATOM     11  C   UNL     1      -1.959   4.516  25.369  0.00  0.00    +0.081 C 
ATOM     12  C   UNL     1      -1.665   5.192  24.998  0.00  0.00    +0.010 C 
BRANCH  11   9
ATOM      8  N   UNL     1      -3.296   4.044  25.194  0.00  0.00    -0.201 NA
ATOM      9  C   UNL     1      -2.746   4.491  25.615  0.00  0.00    +0.241 C 
ATOM     10  O   UNL     1      -2.983   4.915  26.284  0.00  0.00    -0.273 OA
BRANCH   8   7
ATOM      7  C   UNL     1      -4.082   4.019  25.440  0.00  0.00    +0.141 C 
BRANCH   7   6
ATOM      3  C   UNL     1      -5.473   2.032  24.947  0.00  0.00    +0.139 A 
ATOM      4  C   UNL     1      -5.491   2.372  25.698  0.00  0.00    +0.037 A 
ATOM      5  C   UNL     1      -5.028   3.034  25.862  0.00  0.00    +0.001 A 
ATOM      6  C   UNL     1      -4.546   3.356  25.276  0.00  0.00    -0.000 A 
ATOM     35  C   UNL     1      -4.527   3.017  24.525  0.00  0.00    +0.001 A 
ATOM     36  C   UNL     1      -4.990   2.354  24.359  0.00  0.00    +0.037 A 
BRANCH   3   2
ATOM      1  C   UNL     1      -5.604   0.616  24.816  0.00  0.00    +0.252 C 
ATOM      2  O   UNL     1      -5.936   1.369  24.781  0.00  0.00    -0.471 OA
ENDBRANCH   3   2
ENDBRANCH   7   6
ENDBRANCH   8   7
ENDBRANCH  11   9
ENDBRANCH  13  11
TORSDOF 7
ENDMDL
