MODEL 1
REMARK VINA RESULT:     -16.4      0.000      0.000
REMARK  Name = 
REMARK  4 active torsions:
REMARK  status: ('A' for Active; 'I' for Inactive)
REMARK    1  A    between atoms: O_2  and  C_3
REMARK    2  A    between atoms: C_6  and  N_7
REMARK    3  A    between atoms: C_19  and  N_20
REMARK    4  A    between atoms: C_21  and  C_23
REMARK                            x       y       z     vdW  Elec       q    Type
REMARK                         _______ _______ _______ _____ _____    ______ ____
ROOT
ATOM      7  N   UNL     1      -2.264  -0.142  24.526  0.00  0.00    -0.162 NA
ATOM      8  C   UNL     1      -1.703  -0.747  24.524  0.00  0.00    +0.327 C 
ATOM      9  O   UNL     1      -0.899  -0.563  24.512  0.00  0.00    -0.250 OA
ATOM     10  N   UNL     1      -1.945  -1.536  24.535  0.00  0.00    -0.262 N 
ATOM     11  C   UNL     1      -1.887  -2.369  24.541  0.00  0.00    +0.097 C 
ATOM     12  C   UNL     1      -2.847  -2.603  24.556  0.00  0.00    +0.043 C 
ATOM     13  C   UNL     1      -3.581  -2.955  24.569  0.00  0.00    +0.011 C 
ATOM     14  C   UNL     1      -3.318  -2.305  24.560  0.00  0.00    +0.058 C 
ATOM     15  C   UNL     1      -2.386  -2.095  24.545  0.00  0.00    +0.101 C 
ATOM     16  C   UNL     1      -3.577  -1.423  24.555  0.00  0.00    +0.041 A 
ATOM     17  C   UNL     1      -4.256  -0.955  24.560  0.00  0.00    +0.014 A 
ATOM     18  C   UNL     1      -4.189  -0.132  24.552  0.00  0.00    +0.023 A 
ATOM     19  C   UNL     1      -3.444   0.222  24.539  0.00  0.00    +0.130 A 
ATOM     29  C   UNL     1      -2.765  -0.247  24.534  0.00  0.00    +0.276 A 
ATOM     30  O   UNL     1      -2.371   0.477  24.522  0.00  0.00    -0.266 OA
ATOM     31  N   UNL     1      -2.831  -1.069  24.542  0.00  0.00    -0.298 N 
ATOM     32  C   UNL     1      -3.107  -1.679  24.551  0.00  0.00    +0.110 C 
ENDROOT
BRANCH   7   6
ATOM      3  C   UNL     1      -1.534   2.223  24.497  0.00  0.00    +0.139 A 
ATOM      4  C   UNL     1      -1.636   1.832  25.216  0.00  0.00    +0.038 A 
ATOM      5  C   UNL     1      -1.880   1.043  25.226  0.00  0.00    +0.020 A 
ATOM      6  C   UNL     1      -2.021   0.646  24.516  0.00  0.00    +0.075 A 
ATOM     33  C   UNL     1      -1.918   1.038  23.798  0.00  0.00    +0.020 A 
ATOM     34  C   UNL     1      -1.675   1.825  23.788  0.00  0.00    +0.038 A 
BRANCH   3   2
ATOM      1  C   UNL     1      -0.487   3.194  24.476  0.00  0.00    +0.252 C 
ATOM      2  O   UNL     1      -1.291   3.011  24.488  0.00  0.00    -0.471 OA
ENDBRANCH   3   2
ENDBRANCH   7   6
BRANCH  19  20
ATOM     20  N   UNL     1      -3.379   1.044  24.531  0.00  0.00    -0.171 NA
ATOM     21  C   UNL     1      -4.057   1.512  24.544  0.00  0.00    +0.269 C 
ATOM     22  O   UNL     1      -4.802   1.158  24.566  0.00  0.00    -0.268 OA
BRANCH  21  23
ATOM     23  C   UNL     1      -3.991   2.335  24.536  0.00  0.00    +0.055 A 
ATOM     24  C   UNL     1      -3.956   2.752  25.247  0.00  0.00    +0.005 A 
ATOM     25  C   UNL     1      -3.890   3.576  25.239  0.00  0.00    +0.000 A 
ATOM     26  C   UNL     1      -3.859   3.979  24.519  0.00  0.00    +0.000 A 
ATOM     27  C   UNL     1      -3.895   3.561  23.810  0.00  0.00    +0.000 A 
ATOM     28  C   UNL     1      -3.961   2.739  23.818  0.00  0.00    +0.005 A 
ENDBRANCH  21  23
ENDBRANCH  19  20
TORSDOF 4
ENDMDL
MODEL 2
REMARK VINA RESULT:     -16.0      1.377      4.144
REMARK  Name = 
REMARK  4 active torsions:
REMARK  status: ('A' for Active; 'I' for Inactive)
REMARK    1  A    between atoms: O_2  and  C_3
REMARK    2  A    between atoms: C_6  and  N_7
REMARK    3  A    between atoms: C_19  and  N_20
REMARK    4  A    between atoms: C_21  and  C_23
REMARK                            x       y       z     vdW  Elec       q    Type
REMARK                         _______ _______ _______ _____ _____    ______ ____
ROOT
ATOM      7  N   UNL     1      -1.370   1.956  25.028  0.00  0.00    -0.162 NA
ATOM      8  C   UNL     1      -0.679   2.401  25.105  0.00  0.00    +0.327 C 
ATOM      9  O   UNL     1       0.055   2.026  25.120  0.00  0.00    -0.250 OA
ATOM     10  N   UNL     1      -0.723   3.223  25.167  0.00  0.00    -0.262 N 
ATOM     11  C   UNL     1      -0.465   4.014  25.244  0.00  0.00    +0.097 C 
ATOM     12  C   UNL     1      -1.338   4.476  25.227  0.00  0.00    +0.043 C 
ATOM     13  C   UNL     1      -1.963   4.998  25.230  0.00  0.00    +0.011 C 
ATOM     14  C   UNL     1      -1.866   4.305  25.182  0.00  0.00    +0.058 C 
ATOM     15  C   UNL     1      -1.015   3.872  25.200  0.00  0.00    +0.101 C 
ATOM     16  C   UNL     1      -2.330   3.517  25.092  0.00  0.00    +0.041 A 
ATOM     17  C   UNL     1      -3.101   3.232  25.023  0.00  0.00    +0.014 A 
ATOM     18  C   UNL     1      -3.236   2.421  24.951  0.00  0.00    +0.023 A 
ATOM     19  C   UNL     1      -2.600   1.895  24.948  0.00  0.00    +0.130 A 
ATOM     29  C   UNL     1      -1.829   2.180  25.018  0.00  0.00    +0.276 A 
ATOM     30  O   UNL     1      -1.623   1.384  24.968  0.00  0.00    -0.266 OA
ATOM     31  N   UNL     1      -1.694   2.991  25.089  0.00  0.00    -0.298 N 
ATOM     32  C   UNL     1      -1.814   3.648  25.134  0.00  0.00    +0.110 C 
ENDROOT
BRANCH   7   6
ATOM      3  C   UNL     1      -1.235  -0.509  24.845  0.00  0.00    +0.139 A 
ATOM      4  C   UNL     1      -1.296  -0.153  25.587  0.00  0.00    +0.038 A 
ATOM      5  C   UNL     1      -1.340   0.669  25.648  0.00  0.00    +0.020 A 
ATOM      6  C   UNL     1      -1.325   1.135  24.966  0.00  0.00    +0.075 A 
ATOM     33  C   UNL     1      -1.265   0.778  24.225  0.00  0.00    +0.020 A 
ATOM     34  C   UNL     1      -1.220  -0.043  24.164  0.00  0.00    +0.038 A 
BRANCH   3   2
ATOM      1  C   UNL     1      -0.472  -1.715  24.910  0.00  0.00    +0.252 C 
ATOM      2  O   UNL     1      -1.191  -1.331  24.784  0.00  0.00    -0.471 OA
ENDBRANCH   3   2
ENDBRANCH   7   6
BRANCH  19  20
ATOM     20  N   UNL     1      -2.736   1.085  24.877  0.00  0.00    -0.171 NA
ATOM     21  C   UNL     1      -3.507   0.800  24.806  0.00  0.00    +0.269 C 
ATOM     22  O   UNL     1      -4.143   1.326  24.807  0.00  0.00    -0.268 OA
BRANCH  21  23
ATOM     23  C   UNL     1      -3.642  -0.011  24.734  0.00  0.00    +0.055 A 
ATOM     24  C   UNL     1      -3.694  -0.355  23.986  0.00  0.00    +0.005 A 
ATOM     25  C   UNL     1      -3.830  -1.167  23.914  0.00  0.00    +0.000 A 
ATOM     26  C   UNL     1      -3.912  -1.632  24.591  0.00  0.00    +0.000 A 
ATOM     27  C   UNL     1      -3.860  -1.288  25.338  0.00  0.00    +0.000 A 
ATOM     28  C   UNL     1      -3.725  -0.477  25.410  0.00  0.00    +0.005 A 
ENDBRANCH  21  23
ENDBRANCH  19  20
TORSDOF 4
ENDMDL
MODEL 3
REMARK VINA RESULT:     -15.5      0.867      2.297
REMARK  Name = 
REMARK  4 active torsions:
REMARK  status: ('A' for Active; 'I' for Inactive)
REMARK    1  A    between atoms: O_2  and  C_3
REMARK    2  A    between atoms: C_6  and  N_7
REMARK    3  A    between atoms: C_19  and  N_20
REMARK    4  A    between atoms: C_21  and  C_23
REMARK                            x       y       z     vdW  Elec       q    Type
REMARK                         _______ _______ _______ _____ _____    ______ ____
ROOT
ATOM      7  N   UNL     1      -3.343   0.118  24.389  0.00  0.00    -0.162 NA
ATOM      8  C   UNL     1      -4.019  -0.303  24.172  0.00  0.00    +0.327 C 
ATOM      9  O   UNL     1      -4.694   0.100  23.921  0.00  0.00    -0.250 OA
ATOM     10  N   UNL     1      -4.021  -1.128  24.206  0.00  0.00    -0.262 N 
ATOM     11  C   UNL     1      -4.307  -1.910  24.140  0.00  0.00    +0.097 C 
ATOM     12  C   UNL     1      -3.506  -2.405  24.438  0.00  0.00    +0.043 C 
ATOM     13  C   UNL     1      -2.942  -2.951  24.657  0.00  0.00    +0.011 C 
ATOM     14  C   UNL     1      -2.997  -2.253  24.608  0.00  0.00    +0.058 C 
ATOM     15  C   UNL     1      -3.779  -1.789  24.318  0.00  0.00    +0.101 C 
ATOM     16  C   UNL     1      -2.517  -1.481  24.742  0.00  0.00    +0.041 A 
ATOM     17  C   UNL     1      -1.773  -1.224  24.990  0.00  0.00    +0.014 A 
ATOM     18  C   UNL     1      -1.603  -0.417  25.015  0.00  0.00    +0.023 A 
ATOM     19  C   UNL     1      -2.177   0.133  24.793  0.00  0.00    +0.130 A 
ATOM     29  C   UNL     1      -2.920  -0.124  24.545  0.00  0.00    +0.276 A 
ATOM     30  O   UNL     1      -3.074   0.681  24.458  0.00  0.00    -0.266 OA
ATOM     31  N   UNL     1      -3.090  -0.931  24.520  0.00  0.00    -0.298 N 
ATOM     32  C   UNL     1      -3.012  -1.594  24.576  0.00  0.00    +0.110 C 
ENDROOT
BRANCH   7   6
ATOM      3  C   UNL     1      -3.341   2.590  24.287  0.00  0.00    +0.139 A 
ATOM      4  C   UNL     1      -3.579   2.206  24.977  0.00  0.00    +0.038 A 
ATOM      5  C   UNL     1      -3.580   1.382  25.011  0.00  0.00    +0.020 A 
ATOM      6  C   UNL     1      -3.342   0.941  24.354  0.00  0.00    +0.075 A 
ATOM     33  C   UNL     1      -3.104   1.326  23.665  0.00  0.00    +0.020 A 
ATOM     34  C   UNL     1      -3.104   2.150  23.631  0.00  0.00    +0.038 A 
BRANCH   3   2
ATOM      1  C   UNL     1      -4.040   3.822  24.095  0.00  0.00    +0.252 C 
ATOM      2  O   UNL     1      -3.341   3.415  24.253  0.00  0.00    -0.471 OA
ENDBRANCH   3   2
ENDBRANCH   7   6
BRANCH  19  20
ATOM     20  N   UNL     1      -2.006   0.939  24.818  0.00  0.00    -0.171 NA
ATOM     21  C   UNL     1      -1.262   1.196  25.065  0.00  0.00    +0.269 C 
ATOM     22  O   UNL     1      -0.688   0.646  25.286  0.00  0.00    -0.268 OA
BRANCH  21  23
ATOM     23  C   UNL     1      -1.091   2.003  25.090  0.00  0.00    +0.055 A 
ATOM     24  C   UNL     1      -0.776   2.378  24.426  0.00  0.00    +0.005 A 
ATOM     25  C   UNL     1      -0.605   3.186  24.451  0.00  0.00    +0.000 A 
ATOM     26  C   UNL     1      -0.750   3.616  25.140  0.00  0.00    +0.000 A 
ATOM     27  C   UNL     1      -1.066   3.241  25.803  0.00  0.00    +0.000 A 
ATOM     28  C   UNL     1      -1.236   2.434  25.778  0.00  0.00    +0.005 A 
ENDBRANCH  21  23
ENDBRANCH  19  20
TORSDOF 4
ENDMDL
MODEL 4
REMARK VINA RESULT:     -15.3      1.210      4.405
REMARK  Name = 
REMARK  4 active torsions:
REMARK  status: ('A' for Active; 'I' for Inactive)
REMARK    1  A    between atoms: O_2  and  C_3
REMARK    2  A    between atoms: C_6  and  N_7
REMARK    3  A    between atoms: C_19  and  N_20
REMARK    4  A    between atoms: C_21  and  C_23
REMARK                            x       y       z     vdW  Elec       q    Type
REMARK                         _______ _______ _______ _____ _____    ______ ____
ROOT
ATOM      7  N   UNL     1      -4.165   0.905  24.946  0.00  0.00    -0.162 NA
ATOM      8  C   UNL     1      -4.973   1.071  24.933  0.00  0.00    +0.327 C 
ATOM      9  O   UNL     1      -5.519   0.458  24.849  0.00  0.00    -0.250 OA
ATOM     10  N   UNL     1      -5.236   1.850  25.006  0.00  0.00    -0.262 N 
ATOM     11  C   UNL     1      -5.770   2.491  25.054  0.00  0.00    +0.097 C 
ATOM     12  C   UNL     1      -5.127   3.234  25.156  0.00  0.00    +0.043 C 
ATOM     13  C   UNL     1      -4.737   3.944  25.245  0.00  0.00    +0.011 C 
ATOM     14  C   UNL     1      -4.571   3.265  25.180  0.00  0.00    +0.058 C 
ATOM     15  C   UNL     1      -5.205   2.557  25.082  0.00  0.00    +0.101 C 
ATOM     16  C   UNL     1      -3.847   2.700  25.147  0.00  0.00    +0.041 A 
ATOM     17  C   UNL     1      -3.023   2.713  25.179  0.00  0.00    +0.014 A 
ATOM     18  C   UNL     1      -2.597   2.008  25.121  0.00  0.00    +0.023 A 
ATOM     19  C   UNL     1      -2.995   1.291  25.030  0.00  0.00    +0.130 A 
ATOM     29  C   UNL     1      -3.819   1.279  24.998  0.00  0.00    +0.276 A 
ATOM     30  O   UNL     1      -3.717   0.465  24.916  0.00  0.00    -0.266 OA
ATOM     31  N   UNL     1      -4.245   1.983  25.057  0.00  0.00    -0.298 N 
ATOM     32  C   UNL     1      -4.377   2.636  25.121  0.00  0.00    +0.110 C 
ENDROOT
BRANCH   7   6
ATOM      3  C   UNL     1      -3.379  -1.431  24.727  0.00  0.00    +0.139 A 
ATOM      4  C   UNL     1      -3.484  -0.967  24.053  0.00  0.00    +0.038 A 
ATOM      5  C   UNL     1      -3.746  -0.188  24.126  0.00  0.00    +0.020 A 
ATOM      6  C   UNL     1      -3.903   0.126  24.874  0.00  0.00    +0.075 A 
ATOM     33  C   UNL     1      -3.797  -0.338  25.546  0.00  0.00    +0.020 A 
ATOM     34  C   UNL     1      -3.535  -1.117  25.474  0.00  0.00    +0.038 A 
BRANCH   3   2
ATOM      1  C   UNL     1      -3.653  -2.811  24.475  0.00  0.00    +0.252 C 
ATOM      2  O   UNL     1      -3.116  -2.211  24.654  0.00  0.00    -0.471 OA
ENDBRANCH   3   2
ENDBRANCH   7   6
BRANCH  19  20
ATOM     20  N   UNL     1      -2.569   0.588  24.972  0.00  0.00    -0.171 NA
ATOM     21  C   UNL     1      -1.746   0.598  25.024  0.00  0.00    +0.269 C 
ATOM     22  O   UNL     1      -1.349   1.313  25.135  0.00  0.00    -0.268 OA
BRANCH  21  23
ATOM     23  C   UNL     1      -1.320  -0.106  24.965  0.00  0.00    +0.055 A 
ATOM     24  C   UNL     1      -1.053  -0.366  24.229  0.00  0.00    +0.005 A 
ATOM     25  C   UNL     1      -0.627  -1.071  24.171  0.00  0.00    +0.000 A 
ATOM     26  C   UNL     1      -0.468  -1.514  24.849  0.00  0.00    +0.000 A 
ATOM     27  C   UNL     1      -0.735  -1.254  25.584  0.00  0.00    +0.000 A 
ATOM     28  C   UNL     1      -1.161  -0.550  25.643  0.00  0.00    +0.005 A 
ENDBRANCH  21  23
ENDBRANCH  19  20
TORSDOF 4
ENDMDL
MODEL 5
REMARK VINA RESULT:     -15.2      1.492      4.647
REMARK  Name = 
REMARK  4 active torsions:
REMARK  status: ('A' for Active; 'I' for Inactive)
REMARK    1  A    between atoms: O_2  and  C_3
REMARK    2  A    between atoms: C_6  and  N_7
REMARK    3  A    between atoms: C_19  and  N_20
REMARK    4  A    between atoms: C_21  and  C_23
REMARK                            x       y       z     vdW  Elec       q    Type
REMARK                         _______ _______ _______ _____ _____    ______ ____
ROOT
ATOM      7  N   UNL     1      -2.980   3.180  24.939  0.00  0.00    -0.162 NA
ATOM      8  C   UNL     1      -3.045   3.996  25.048  0.00  0.00    +0.327 C 
ATOM      9  O   UNL     1      -3.789   4.345  25.120  0.00  0.00    -0.250 OA
ATOM     10  N   UNL     1      -2.365   4.463  25.085  0.00  0.00    -0.262 N 
ATOM     11  C   UNL     1      -1.895   5.149  25.159  0.00  0.00    +0.097 C 
ATOM     12  C   UNL     1      -0.997   4.744  25.074  0.00  0.00    +0.043 C 
ATOM     13  C   UNL     1      -0.203   4.570  25.023  0.00  0.00    +0.011 C 
ATOM     14  C   UNL     1      -0.813   4.223  24.999  0.00  0.00    +0.058 C 
ATOM     15  C   UNL     1      -1.673   4.630  25.083  0.00  0.00    +0.101 C 
ATOM     16  C   UNL     1      -1.157   3.377  24.900  0.00  0.00    +0.041 A 
ATOM     17  C   UNL     1      -0.915   2.596  24.789  0.00  0.00    +0.014 A 
ATOM     18  C   UNL     1      -1.477   1.995  24.730  0.00  0.00    +0.023 A 
ATOM     19  C   UNL     1      -2.281   2.175  24.782  0.00  0.00    +0.130 A 
ATOM     29  C   UNL     1      -2.523   2.956  24.893  0.00  0.00    +0.276 A 
ATOM     30  O   UNL     1      -3.281   2.632  24.877  0.00  0.00    -0.266 OA
ATOM     31  N   UNL     1      -1.961   3.557  24.952  0.00  0.00    -0.298 N 
ATOM     32  C   UNL     1      -1.366   3.864  24.971  0.00  0.00    +0.110 C 
ENDROOT
BRANCH   7   6
ATOM      3  C   UNL     1      -5.019   1.782  24.829  0.00  0.00    +0.139 A 
ATOM      4  C   UNL     1      -4.658   1.928  25.556  0.00  0.00    +0.038 A 
ATOM      5  C   UNL     1      -3.978   2.395  25.592  0.00  0.00    +0.020 A 
ATOM      6  C   UNL     1      -3.659   2.715  24.901  0.00  0.00    +0.075 A 
ATOM     33  C   UNL     1      -4.021   2.567  24.175  0.00  0.00    +0.020 A 
ATOM     34  C   UNL     1      -4.700   2.102  24.138  0.00  0.00    +0.038 A 
BRANCH   3   2
ATOM      1  C   UNL     1      -6.437   1.650  24.945  0.00  0.00    +0.252 C 
ATOM      2  O   UNL     1      -5.699   1.315  24.792  0.00  0.00    -0.471 OA
ENDBRANCH   3   2
ENDBRANCH   7   6
BRANCH  19  20
ATOM     20  N   UNL     1      -2.842   1.574  24.723  0.00  0.00    -0.171 NA
ATOM     21  C   UNL     1      -2.600   0.792  24.616  0.00  0.00    +0.269 C 
ATOM     22  O   UNL     1      -1.796   0.612  24.568  0.00  0.00    -0.268 OA
BRANCH  21  23
ATOM     23  C   UNL     1      -3.163   0.191  24.557  0.00  0.00    +0.055 A 
ATOM     24  C   UNL     1      -3.410  -0.210  25.234  0.00  0.00    +0.005 A 
ATOM     25  C   UNL     1      -3.972  -0.812  25.175  0.00  0.00    +0.000 A 
ATOM     26  C   UNL     1      -4.286  -1.012  24.438  0.00  0.00    +0.000 A 
ATOM     27  C   UNL     1      -4.038  -0.611  23.762  0.00  0.00    +0.000 A 
ATOM     28  C   UNL     1      -3.477  -0.010  23.821  0.00  0.00    +0.005 A 
ENDBRANCH  21  23
ENDBRANCH  19  20
TORSDOF 4
ENDMDL
MODEL 6
REMARK VINA RESULT:     -14.6      1.298      3.753
REMARK  Name = 
REMARK  4 active torsions:
REMARK  status: ('A' for Active; 'I' for Inactive)
REMARK    1  A    between atoms: O_2  and  C_3
REMARK    2  A    between atoms: C_6  and  N_7
REMARK    3  A    between atoms: C_19  and  N_20
REMARK    4  A    between atoms: C_21  and  C_23
REMARK                            x       y       z     vdW  Elec       q    Type
REMARK                         _______ _______ _______ _____ _____    ______ ____
ROOT
ATOM      7  N   UNL     1      -3.250   1.779  24.810  0.00  0.00    -0.162 NA
ATOM      8  C   UNL     1      -3.518   2.555  24.726  0.00  0.00    +0.327 C 
ATOM      9  O   UNL     1      -2.987   3.158  24.544  0.00  0.00    -0.250 OA
ATOM     10  N   UNL     1      -4.320   2.727  24.824  0.00  0.00    -0.262 N 
ATOM     11  C   UNL     1      -5.020   3.181  24.861  0.00  0.00    +0.097 C 
ATOM     12  C   UNL     1      -5.668   2.467  25.080  0.00  0.00    +0.043 C 
ATOM     13  C   UNL     1      -6.316   2.006  25.257  0.00  0.00    +0.011 C 
ATOM     14  C   UNL     1      -5.626   1.917  25.163  0.00  0.00    +0.058 C 
ATOM     15  C   UNL     1      -5.012   2.618  24.951  0.00  0.00    +0.101 C 
ATOM     16  C   UNL     1      -4.975   1.268  25.166  0.00  0.00    +0.041 A 
ATOM     17  C   UNL     1      -4.880   0.458  25.283  0.00  0.00    +0.014 A 
ATOM     18  C   UNL     1      -4.131   0.117  25.221  0.00  0.00    +0.023 A 
ATOM     19  C   UNL     1      -3.477   0.588  25.041  0.00  0.00    +0.130 A 
ATOM     29  C   UNL     1      -3.573   1.398  24.923  0.00  0.00    +0.276 A 
ATOM     30  O   UNL     1      -2.758   1.388  24.797  0.00  0.00    -0.266 OA
ATOM     31  N   UNL     1      -4.321   1.739  24.986  0.00  0.00    -0.298 N 
ATOM     32  C   UNL     1      -4.982   1.796  25.081  0.00  0.00    +0.110 C 
ENDROOT
BRANCH   7   6
ATOM      3  C   UNL     1      -0.847   1.264  24.513  0.00  0.00    +0.139 A 
ATOM      4  C   UNL     1      -1.360   1.226  23.868  0.00  0.00    +0.038 A 
ATOM      5  C   UNL     1      -2.161   1.398  23.967  0.00  0.00    +0.020 A 
ATOM      6  C   UNL     1      -2.449   1.607  24.712  0.00  0.00    +0.075 A 
ATOM     33  C   UNL     1      -1.936   1.645  25.356  0.00  0.00    +0.020 A 
ATOM     34  C   UNL     1      -1.136   1.474  25.258  0.00  0.00    +0.038 A 
BRANCH   3   2
ATOM      1  C   UNL     1       0.499   1.705  24.330  0.00  0.00    +0.252 C 
ATOM      2  O   UNL     1      -0.046   1.092  24.414  0.00  0.00    -0.471 OA
ENDBRANCH   3   2
ENDBRANCH   7   6
BRANCH  19  20
ATOM     20  N   UNL     1      -2.729   0.247  24.979  0.00  0.00    -0.171 NA
ATOM     21  C   UNL     1      -2.631  -0.561  25.113  0.00  0.00    +0.269 C 
ATOM     22  O   UNL     1      -3.282  -1.029  25.309  0.00  0.00    -0.268 OA
BRANCH  21  23
ATOM     23  C   UNL     1      -1.882  -0.902  25.050  0.00  0.00    +0.055 A 
ATOM     24  C   UNL     1      -1.625  -1.202  24.325  0.00  0.00    +0.005 A 
ATOM     25  C   UNL     1      -0.876  -1.543  24.263  0.00  0.00    +0.000 A 
ATOM     26  C   UNL     1      -0.385  -1.584  24.925  0.00  0.00    +0.000 A 
ATOM     27  C   UNL     1      -0.642  -1.284  25.648  0.00  0.00    +0.000 A 
ATOM     28  C   UNL     1      -1.391  -0.943  25.711  0.00  0.00    +0.005 A 
ENDBRANCH  21  23
ENDBRANCH  19  20
TORSDOF 4
ENDMDL
MODEL 7
REMARK VINA RESULT:     -14.2      1.722      4.124
REMARK  Name = 
REMARK  4 active torsions:
REMARK  status: ('A' for Active; 'I' for Inactive)
REMARK    1  A    between atoms: O_2  and  C_3
REMARK    2  A    between atoms: C_6  and  N_7
REMARK    3  A    between atoms: C_19  and  N_20
REMARK    4  A    between atoms: C_21  and  C_23
REMARK                            x       y       z     vdW  Elec       q    Type
REMARK                         _______ _______ _______ _____ _____    ______ ____
ROOT
ATOM      7  N   UNL     1      -2.275   2.418  24.660  0.00  0.00    -0.162 NA
ATOM      8  C   UNL     1      -1.487   2.305  24.441  0.00  0.00    +0.327 C 
ATOM      9  O   UNL     1      -1.237   1.571  24.161  0.00  0.00    -0.250 OA
ATOM     10  N   UNL     1      -0.948   2.928  24.503  0.00  0.00    -0.262 N 
ATOM     11  C   UNL     1      -0.222   3.337  24.455  0.00  0.00    +0.097 C 
ATOM     12  C   UNL     1      -0.508   4.222  24.789  0.00  0.00    +0.043 C 
ATOM     13  C   UNL     1      -0.581   4.994  25.038  0.00  0.00    +0.011 C 
ATOM     14  C   UNL     1      -0.993   4.431  24.966  0.00  0.00    +0.058 C 
ATOM     15  C   UNL     1      -0.702   3.581  24.641  0.00  0.00    +0.101 C 
ATOM     16  C   UNL     1      -1.861   4.153  25.086  0.00  0.00    +0.041 A 
ATOM     17  C   UNL     1      -2.594   4.433  25.342  0.00  0.00    +0.014 A 
ATOM     18  C   UNL     1      -3.248   3.931  25.345  0.00  0.00    +0.023 A 
ATOM     19  C   UNL     1      -3.171   3.149  25.091  0.00  0.00    +0.130 A 
ATOM     29  C   UNL     1      -2.438   2.870  24.835  0.00  0.00    +0.276 A 
ATOM     30  O   UNL     1      -2.846   2.163  24.718  0.00  0.00    -0.266 OA
ATOM     31  N   UNL     1      -1.783   3.372  24.832  0.00  0.00    -0.298 N 
ATOM     32  C   UNL     1      -1.412   3.923  24.911  0.00  0.00    +0.110 C 
ENDROOT
BRANCH   7   6
ATOM      3  C   UNL     1      -3.887   0.549  24.478  0.00  0.00    +0.139 A 
ATOM      4  C   UNL     1      -3.458   0.657  25.174  0.00  0.00    +0.038 A 
ATOM      5  C   UNL     1      -2.921   1.280  25.235  0.00  0.00    +0.020 A 
ATOM      6  C   UNL     1      -2.812   1.795  24.599  0.00  0.00    +0.075 A 
ATOM     33  C   UNL     1      -3.241   1.686  23.903  0.00  0.00    +0.020 A 
ATOM     34  C   UNL     1      -3.778   1.063  23.842  0.00  0.00    +0.038 A 
BRANCH   3   2
ATOM      1  C   UNL     1      -4.167  -0.818  24.169  0.00  0.00    +0.252 C 
ATOM      2  O   UNL     1      -4.424  -0.075  24.417  0.00  0.00    -0.471 OA
ENDBRANCH   3   2
ENDBRANCH   7   6
BRANCH  19  20
ATOM     20  N   UNL     1      -3.826   2.648  25.094  0.00  0.00    -0.171 NA
ATOM     21  C   UNL     1      -4.559   2.930  25.345  0.00  0.00    +0.269 C 
ATOM     22  O   UNL     1      -4.638   3.712  25.593  0.00  0.00    -0.268 OA
BRANCH  21  23
ATOM     23  C   UNL     1      -5.215   2.427  25.348  0.00  0.00    +0.055 A 
ATOM     24  C   UNL     1      -5.403   2.000  26.028  0.00  0.00    +0.005 A 
ATOM     25  C   UNL     1      -6.059   1.498  26.031  0.00  0.00    +0.000 A 
ATOM     26  C   UNL     1      -6.525   1.425  25.353  0.00  0.00    +0.000 A 
ATOM     27  C   UNL     1      -6.336   1.852  24.674  0.00  0.00    +0.000 A 
ATOM     28  C   UNL     1      -5.681   2.354  24.671  0.00  0.00    +0.005 A 
ENDBRANCH  21  23
ENDBRANCH  19  20
TORSDOF 4
ENDMDL
MODEL 8
REMARK VINA RESULT:     -13.9      2.100      3.836
REMARK  Name = 
REMARK  4 active torsions:
REMARK  status: ('A' for Active; 'I' for Inactive)
REMARK    1  A    between atoms: O_2  and  C_3
REMARK    2  A    between atoms: C_6  and  N_7
REMARK    3  A    between atoms: C_19  and  N_20
REMARK    4  A    between atoms: C_21  and  C_23
REMARK                            x       y       z     vdW  Elec       q    Type
REMARK                         _______ _______ _______ _____ _____    ______ ____
ROOT
ATOM      7  N   UNL     1      -3.801   2.973  25.205  0.00  0.00    -0.162 NA
ATOM      8  C   UNL     1      -4.472   3.431  25.354  0.00  0.00    +0.327 C 
ATOM      9  O   UNL     1      -4.398   4.243  25.475  0.00  0.00    -0.250 OA
ATOM     10  N   UNL     1      -5.216   3.075  25.381  0.00  0.00    -0.262 N 
ATOM     11  C   UNL     1      -6.045   3.008  25.464  0.00  0.00    +0.097 C 
ATOM     12  C   UNL     1      -6.147   2.036  25.320  0.00  0.00    +0.043 C 
ATOM     13  C   UNL     1      -6.397   1.266  25.226  0.00  0.00    +0.011 C 
ATOM     14  C   UNL     1      -5.791   1.620  25.214  0.00  0.00    +0.058 C 
ATOM     15  C   UNL     1      -5.708   2.561  25.354  0.00  0.00    +0.101 C 
ATOM     16  C   UNL     1      -4.888   1.499  25.093  0.00  0.00    +0.041 A 
ATOM     17  C   UNL     1      -4.336   0.907  24.936  0.00  0.00    +0.014 A 
ATOM     18  C   UNL     1      -3.535   1.095  24.875  0.00  0.00    +0.023 A 
ATOM     19  C   UNL     1      -3.286   1.875  24.972  0.00  0.00    +0.130 A 
ATOM     29  C   UNL     1      -3.837   2.468  25.129  0.00  0.00    +0.276 A 
ATOM     30  O   UNL     1      -3.177   2.962  25.133  0.00  0.00    -0.266 OA
ATOM     31  N   UNL     1      -4.638   2.280  25.189  0.00  0.00    -0.298 N 
ATOM     32  C   UNL     1      -5.202   1.919  25.195  0.00  0.00    +0.110 C 
ENDROOT
BRANCH   7   6
ATOM      3  C   UNL     1      -1.570   4.040  25.122  0.00  0.00    +0.139 A 
ATOM      4  C   UNL     1      -2.017   3.965  24.433  0.00  0.00    +0.038 A 
ATOM      5  C   UNL     1      -2.761   3.609  24.461  0.00  0.00    +0.020 A 
ATOM      6  C   UNL     1      -3.057   3.328  25.178  0.00  0.00    +0.075 A 
ATOM     33  C   UNL     1      -2.610   3.403  25.866  0.00  0.00    +0.020 A 
ATOM     34  C   UNL     1      -1.866   3.759  25.839  0.00  0.00    +0.038 A 
BRANCH   3   2
ATOM      1  C   UNL     1      -0.762   5.211  24.988  0.00  0.00    +0.252 C 
ATOM      2  O   UNL     1      -0.825   4.396  25.094  0.00  0.00    -0.471 OA
ENDBRANCH   3   2
ENDBRANCH   7   6
BRANCH  19  20
ATOM     20  N   UNL     1      -2.485   2.062  24.911  0.00  0.00    -0.171 NA
ATOM     21  C   UNL     1      -1.931   1.467  24.771  0.00  0.00    +0.269 C 
ATOM     22  O   UNL     1      -2.179   0.684  24.691  0.00  0.00    -0.268 OA
BRANCH  21  23
ATOM     23  C   UNL     1      -1.129   1.655  24.710  0.00  0.00    +0.055 A 
ATOM     24  C   UNL     1      -0.803   1.833  23.974  0.00  0.00    +0.005 A 
ATOM     25  C   UNL     1      -0.001   2.020  23.913  0.00  0.00    +0.000 A 
ATOM     26  C   UNL     1       0.472   2.030  24.590  0.00  0.00    +0.000 A 
ATOM     27  C   UNL     1       0.145   1.852  25.325  0.00  0.00    +0.000 A 
ATOM     28  C   UNL     1      -0.656   1.664  25.386  0.00  0.00    +0.005 A 
ENDBRANCH  21  23
ENDBRANCH  19  20
TORSDOF 4
ENDMDL
MODEL 9
REMARK VINA RESULT:     -13.7      1.713      3.791
REMARK  Name = 
REMARK  4 active torsions:
REMARK  status: ('A' for Active; 'I' for Inactive)
REMARK    1  A    between atoms: O_2  and  C_3
REMARK    2  A    between atoms: C_6  and  N_7
REMARK    3  A    between atoms: C_19  and  N_20
REMARK    4  A    between atoms: C_21  and  C_23
REMARK                            x       y       z     vdW  Elec       q    Type
REMARK                         _______ _______ _______ _____ _____    ______ ____
ROOT
ATOM      7  N   UNL     1      -3.754   1.518  24.914  0.00  0.00    -0.162 NA
ATOM      8  C   UNL     1      -4.464   1.103  24.848  0.00  0.00    +0.327 C 
ATOM      9  O   UNL     1      -4.459   0.311  24.619  0.00  0.00    -0.250 OA
ATOM     10  N   UNL     1      -5.180   1.481  25.009  0.00  0.00    -0.262 N 
ATOM     11  C   UNL     1      -6.004   1.583  25.100  0.00  0.00    +0.097 C 
ATOM     12  C   UNL     1      -6.025   2.532  25.374  0.00  0.00    +0.043 C 
ATOM     13  C   UNL     1      -6.210   3.290  25.606  0.00  0.00    +0.011 C 
ATOM     14  C   UNL     1      -5.633   2.920  25.457  0.00  0.00    +0.058 C 
ATOM     15  C   UNL     1      -5.630   2.002  25.193  0.00  0.00    +0.101 C 
ATOM     16  C   UNL     1      -4.718   2.997  25.411  0.00  0.00    +0.041 A 
ATOM     17  C   UNL     1      -4.116   3.549  25.525  0.00  0.00    +0.014 A 
ATOM     18  C   UNL     1      -3.330   3.331  25.404  0.00  0.00    +0.023 A 
ATOM     19  C   UNL     1      -3.146   2.562  25.169  0.00  0.00    +0.130 A 
ATOM     29  C   UNL     1      -3.748   2.010  25.055  0.00  0.00    +0.276 A 
ATOM     30  O   UNL     1      -3.128   1.502  24.863  0.00  0.00    -0.266 OA
ATOM     31  N   UNL     1      -4.534   2.228  25.176  0.00  0.00    -0.298 N 
ATOM     32  C   UNL     1      -5.069   2.603  25.324  0.00  0.00    +0.110 C 
ENDROOT
BRANCH   7   6
ATOM      3  C   UNL     1      -1.609   0.384  24.431  0.00  0.00    +0.139 A 
ATOM      4  C   UNL     1      -1.919   0.370  25.194  0.00  0.00    +0.038 A 
ATOM      5  C   UNL     1      -2.635   0.748  25.356  0.00  0.00    +0.020 A 
ATOM      6  C   UNL     1      -3.039   1.140  24.753  0.00  0.00    +0.075 A 
ATOM     33  C   UNL     1      -2.728   1.154  23.989  0.00  0.00    +0.020 A 
ATOM     34  C   UNL     1      -2.013   0.776  23.827  0.00  0.00    +0.038 A 
BRANCH   3   2
ATOM      1  C   UNL     1      -0.871  -0.815  24.183  0.00  0.00    +0.252 C 
ATOM      2  O   UNL     1      -0.893   0.005  24.269  0.00  0.00    -0.471 OA
ENDBRANCH   3   2
ENDBRANCH   7   6
BRANCH  19  20
ATOM     20  N   UNL     1      -2.359   2.345  25.049  0.00  0.00    -0.171 NA
ATOM     21  C   UNL     1      -1.756   2.895  25.167  0.00  0.00    +0.269 C 
ATOM     22  O   UNL     1      -1.940   3.663  25.407  0.00  0.00    -0.268 OA
BRANCH  21  23
ATOM     23  C   UNL     1      -0.969   2.678  25.046  0.00  0.00    +0.055 A 
ATOM     24  C   UNL     1      -0.522   2.383  25.674  0.00  0.00    +0.005 A 
ATOM     25  C   UNL     1       0.265   2.166  25.553  0.00  0.00    +0.000 A 
ATOM     26  C   UNL     1       0.604   2.243  24.804  0.00  0.00    +0.000 A 
ATOM     27  C   UNL     1       0.157   2.538  24.178  0.00  0.00    +0.000 A 
ATOM     28  C   UNL     1      -0.630   2.755  24.298  0.00  0.00    +0.005 A 
ENDBRANCH  21  23
ENDBRANCH  19  20
TORSDOF 4
ENDMDL
