MODEL 1
REMARK VINA RESULT:     -12.3      0.000      0.000
REMARK  Name = 
REMARK  8 active torsions:
REMARK  status: ('A' for Active; 'I' for Inactive)
REMARK    1  A    between atoms: O_2  and  C_3
REMARK    2  A    between atoms: C_3  and  C_5
REMARK    3  A    between atoms: C_5  and  C_6
REMARK    4  A    between atoms: C_5  and  N_15
REMARK    5  A    between atoms: C_6  and  C_7
REMARK    6  A    between atoms: C_10  and  O_11
REMARK    7  A    between atoms: C_16  and  C_18
REMARK    8  A    between atoms: N_29  and  C_30
REMARK                            x       y       z     vdW  Elec       q    Type
REMARK                         _______ _______ _______ _____ _____    ______ ____
ROOT
ATOM     18  C   UNL     1      -1.135   1.439  24.314  0.00  0.00    +0.174 C 
ATOM     19  C   UNL     1      -1.598   0.761  24.387  0.00  0.00    +0.124 C 
ATOM     20  N   UNL     1      -1.240   0.018  24.410  0.00  0.00    -0.259 N 
ATOM     21  C   UNL     1      -0.419  -0.047  24.360  0.00  0.00    +0.117 C 
ATOM     22  C   UNL     1       0.044   0.632  24.287  0.00  0.00    +0.115 C 
ATOM     23  N   UNL     1      -0.314   1.375  24.264  0.00  0.00    -0.270 N 
ATOM     24  C   UNL     1       0.149   2.054  24.191  0.00  0.00    +0.227 C 
ATOM     25  C   UNL     1      -0.209   2.797  24.168  0.00  0.00    +0.095 C 
ATOM     26  O   UNL     1       0.971   1.990  24.141  0.00  0.00    -0.275 OA
ATOM     27  C   UNL     1      -1.702  -0.662  24.483  0.00  0.00    +0.328 C 
ATOM     28  O   UNL     1      -1.344  -1.405  24.506  0.00  0.00    -0.250 OA
ATOM     29  N   UNL     1      -2.524  -0.597  24.533  0.00  0.00    -0.162 NA
ENDROOT
BRANCH  29  30
ATOM     30  C   UNL     1      -2.986  -1.276  24.605  0.00  0.00    +0.075 A 
ATOM     31  C   UNL     1      -3.442  -1.535  23.967  0.00  0.00    +0.017 A 
ATOM     32  C   UNL     1      -3.905  -2.214  24.040  0.00  0.00    +0.001 A 
ATOM     33  C   UNL     1      -3.912  -2.635  24.750  0.00  0.00    +0.000 A 
ATOM     34  C   UNL     1      -3.456  -2.376  25.387  0.00  0.00    +0.001 A 
ATOM     35  C   UNL     1      -2.993  -1.697  25.315  0.00  0.00    +0.017 A 
ENDBRANCH  29  30
BRANCH  18  16
ATOM     15  N   UNL     1      -2.055   2.387  24.860  0.00  0.00    -0.194 NA
ATOM     16  C   UNL     1      -1.493   2.182  24.291  0.00  0.00    +0.262 C 
ATOM     17  O   UNL     1      -1.289   2.720  23.700  0.00  0.00    -0.271 OA
BRANCH  15   5
ATOM      5  C   UNL     1      -2.413   3.130  24.837  0.00  0.00    +0.198 C 
BRANCH   5   3
ATOM      3  C   UNL     1      -2.126   3.740  25.312  0.00  0.00    +0.337 C 
ATOM      4  O   UNL     1      -1.960   3.601  26.107  0.00  0.00    -0.248 OA
BRANCH   3   2
ATOM      1  C   UNL     1      -1.699   5.096  25.460  0.00  0.00    +0.256 C 
ATOM      2  O   UNL     1      -2.006   4.491  24.991  0.00  0.00    -0.443 OA
ENDBRANCH   3   2
ENDBRANCH   5   3
BRANCH   5   6
ATOM      6  C   UNL     1      -3.057   3.262  24.339  0.00  0.00    +0.059 C 
BRANCH   6   7
ATOM      7  C   UNL     1      -3.809   3.004  24.560  0.00  0.00    -0.020 A 
ATOM      8  C   UNL     1      -4.187   2.413  24.125  0.00  0.00    -0.001 A 
ATOM      9  C   UNL     1      -4.939   2.156  24.346  0.00  0.00    +0.037 A 
ATOM     10  C   UNL     1      -5.313   2.490  25.002  0.00  0.00    +0.139 A 
ATOM     13  C   UNL     1      -4.935   3.080  25.436  0.00  0.00    +0.037 A 
ATOM     14  C   UNL     1      -4.183   3.338  25.215  0.00  0.00    -0.001 A 
BRANCH  10  11
ATOM     11  O   UNL     1      -6.065   2.232  25.223  0.00  0.00    -0.471 OA
ATOM     12  C   UNL     1      -6.148   1.637  25.788  0.00  0.00    +0.252 C 
ENDBRANCH  10  11
ENDBRANCH   6   7
ENDBRANCH   5   6
ENDBRANCH  15   5
ENDBRANCH  18  16
TORSDOF 8
ENDMDL
MODEL 2
REMARK VINA RESULT:     -12.1      1.204      3.596
REMARK  Name = 
REMARK  8 active torsions:
REMARK  status: ('A' for Active; 'I' for Inactive)
REMARK    1  A    between atoms: O_2  and  C_3
REMARK    2  A    between atoms: C_3  and  C_5
REMARK    3  A    between atoms: C_5  and  C_6
REMARK    4  A    between atoms: C_5  and  N_15
REMARK    5  A    between atoms: C_6  and  C_7
REMARK    6  A    between atoms: C_10  and  O_11
REMARK    7  A    between atoms: C_16  and  C_18
REMARK    8  A    between atoms: N_29  and  C_30
REMARK                            x       y       z     vdW  Elec       q    Type
REMARK                         _______ _______ _______ _____ _____    ______ ____
ROOT
ATOM     18  C   UNL     1      -4.008   2.322  24.861  0.00  0.00    +0.174 C 
ATOM     19  C   UNL     1      -3.947   1.500  24.825  0.00  0.00    +0.124 C 
ATOM     20  N   UNL     1      -4.589   1.029  25.041  0.00  0.00    -0.259 N 
ATOM     21  C   UNL     1      -5.292   1.379  25.291  0.00  0.00    +0.117 C 
ATOM     22  C   UNL     1      -5.353   2.202  25.327  0.00  0.00    +0.115 C 
ATOM     23  N   UNL     1      -4.711   2.673  25.111  0.00  0.00    -0.270 N 
ATOM     24  C   UNL     1      -4.773   3.495  25.147  0.00  0.00    +0.227 C 
ATOM     25  C   UNL     1      -4.131   3.966  24.931  0.00  0.00    +0.095 C 
ATOM     26  O   UNL     1      -5.476   3.846  25.398  0.00  0.00    -0.275 OA
ATOM     27  C   UNL     1      -4.528   0.207  25.005  0.00  0.00    +0.328 C 
ATOM     28  O   UNL     1      -5.170  -0.264  25.221  0.00  0.00    -0.250 OA
ATOM     29  N   UNL     1      -3.824  -0.144  24.754  0.00  0.00    -0.162 NA
ENDROOT
BRANCH  29  30
ATOM     30  C   UNL     1      -3.764  -0.965  24.719  0.00  0.00    +0.075 A 
ATOM     31  C   UNL     1      -3.444  -1.383  25.356  0.00  0.00    +0.017 A 
ATOM     32  C   UNL     1      -3.383  -2.205  25.321  0.00  0.00    +0.001 A 
ATOM     33  C   UNL     1      -3.642  -2.610  24.650  0.00  0.00    +0.000 A 
ATOM     34  C   UNL     1      -3.961  -2.193  24.015  0.00  0.00    +0.001 A 
ATOM     35  C   UNL     1      -4.022  -1.370  24.049  0.00  0.00    +0.017 A 
ENDBRANCH  29  30
BRANCH  18  16
ATOM     15  N   UNL     1      -2.612   2.620  24.933  0.00  0.00    -0.194 NA
ATOM     16  C   UNL     1      -3.366   2.793  24.645  0.00  0.00    +0.262 C 
ATOM     17  O   UNL     1      -3.477   3.437  24.142  0.00  0.00    -0.271 OA
BRANCH  15   5
ATOM      5  C   UNL     1      -1.970   3.091  24.718  0.00  0.00    +0.198 C 
BRANCH   5   3
ATOM      3  C   UNL     1      -1.748   3.727  25.194  0.00  0.00    +0.337 C 
ATOM      4  O   UNL     1      -1.695   3.633  26.011  0.00  0.00    -0.248 OA
BRANCH   3   2
ATOM      1  C   UNL     1      -1.254   5.064  25.308  0.00  0.00    +0.256 C 
ATOM      2  O   UNL     1      -1.578   4.459  24.851  0.00  0.00    -0.443 OA
ENDBRANCH   3   2
ENDBRANCH   5   3
BRANCH   5   6
ATOM      6  C   UNL     1      -1.551   2.926  24.027  0.00  0.00    +0.059 C 
BRANCH   6   7
ATOM      7  C   UNL     1      -1.099   2.237  23.974  0.00  0.00    -0.020 A 
ATOM      8  C   UNL     1      -1.219   1.712  23.349  0.00  0.00    -0.001 A 
ATOM      9  C   UNL     1      -0.768   1.023  23.296  0.00  0.00    +0.037 A 
ATOM     10  C   UNL     1      -0.195   0.861  23.867  0.00  0.00    +0.139 A 
ATOM     13  C   UNL     1      -0.074   1.386  24.492  0.00  0.00    +0.037 A 
ATOM     14  C   UNL     1      -0.526   2.074  24.545  0.00  0.00    -0.001 A 
BRANCH  10  11
ATOM     11  O   UNL     1       0.257   0.173  23.814  0.00  0.00    -0.471 OA
ATOM     12  C   UNL     1      -0.058  -0.548  24.063  0.00  0.00    +0.252 C 
ENDBRANCH  10  11
ENDBRANCH   6   7
ENDBRANCH   5   6
ENDBRANCH  15   5
ENDBRANCH  18  16
TORSDOF 8
ENDMDL
MODEL 3
REMARK VINA RESULT:     -11.5      1.243      4.142
REMARK  Name = 
REMARK  8 active torsions:
REMARK  status: ('A' for Active; 'I' for Inactive)
REMARK    1  A    between atoms: O_2  and  C_3
REMARK    2  A    between atoms: C_3  and  C_5
REMARK    3  A    between atoms: C_5  and  C_6
REMARK    4  A    between atoms: C_5  and  N_15
REMARK    5  A    between atoms: C_6  and  C_7
REMARK    6  A    between atoms: C_10  and  O_11
REMARK    7  A    between atoms: C_16  and  C_18
REMARK    8  A    between atoms: N_29  and  C_30
REMARK                            x       y       z     vdW  Elec       q    Type
REMARK                         _______ _______ _______ _____ _____    ______ ____
ROOT
ATOM     18  C   UNL     1      -2.118  -0.562  24.730  0.00  0.00    +0.174 C 
ATOM     19  C   UNL     1      -2.733  -0.018  24.804  0.00  0.00    +0.124 C 
ATOM     20  N   UNL     1      -3.513  -0.283  24.849  0.00  0.00    -0.259 N 
ATOM     21  C   UNL     1      -3.678  -1.090  24.818  0.00  0.00    +0.117 C 
ATOM     22  C   UNL     1      -3.062  -1.634  24.743  0.00  0.00    +0.115 C 
ATOM     23  N   UNL     1      -2.281  -1.370  24.699  0.00  0.00    -0.270 N 
ATOM     24  C   UNL     1      -1.666  -1.913  24.624  0.00  0.00    +0.227 C 
ATOM     25  C   UNL     1      -0.886  -1.649  24.580  0.00  0.00    +0.095 C 
ATOM     26  O   UNL     1      -1.829  -2.721  24.594  0.00  0.00    -0.275 OA
ATOM     27  C   UNL     1      -4.130   0.260  24.923  0.00  0.00    +0.328 C 
ATOM     28  O   UNL     1      -4.910  -0.004  24.968  0.00  0.00    -0.250 OA
ATOM     29  N   UNL     1      -3.965   1.069  24.954  0.00  0.00    -0.162 NA
ENDROOT
BRANCH  29  30
ATOM     30  C   UNL     1      -4.582   1.612  25.029  0.00  0.00    +0.075 A 
ATOM     31  C   UNL     1      -4.672   2.213  24.469  0.00  0.00    +0.017 A 
ATOM     32  C   UNL     1      -5.288   2.756  24.544  0.00  0.00    +0.001 A 
ATOM     33  C   UNL     1      -5.814   2.699  25.177  0.00  0.00    +0.000 A 
ATOM     34  C   UNL     1      -5.724   2.099  25.735  0.00  0.00    +0.001 A 
ATOM     35  C   UNL     1      -5.108   1.555  25.661  0.00  0.00    +0.017 A 
ENDBRANCH  29  30
BRANCH  18  16
ATOM     15  N   UNL     1      -1.159   0.396  24.274  0.00  0.00    -0.194 NA
ATOM     16  C   UNL     1      -1.338  -0.297  24.685  0.00  0.00    +0.262 C 
ATOM     17  O   UNL     1      -0.735  -0.725  25.052  0.00  0.00    -0.271 OA
BRANCH  15   5
ATOM      5  C   UNL     1      -0.379   0.660  24.230  0.00  0.00    +0.198 C 
BRANCH   5   3
ATOM      3  C   UNL     1       0.073   0.500  23.558  0.00  0.00    +0.337 C 
ATOM      4  O   UNL     1      -0.251   0.604  22.807  0.00  0.00    -0.248 OA
BRANCH   3   2
ATOM      1  C   UNL     1       1.308   0.088  22.968  0.00  0.00    +0.256 C 
ATOM      2  O   UNL     1       0.850   0.235  23.638  0.00  0.00    -0.443 OA
ENDBRANCH   3   2
ENDBRANCH   5   3
BRANCH   5   6
ATOM      6  C   UNL     1      -0.051   1.085  24.856  0.00  0.00    +0.059 C 
BRANCH   6   7
ATOM      7  C   UNL     1      -0.284   1.864  24.992  0.00  0.00    -0.020 A 
ATOM      8  C   UNL     1      -0.446   2.119  25.761  0.00  0.00    -0.001 A 
ATOM      9  C   UNL     1      -0.678   2.899  25.897  0.00  0.00    +0.037 A 
ATOM     10  C   UNL     1      -0.749   3.424  25.264  0.00  0.00    +0.139 A 
ATOM     13  C   UNL     1      -0.587   3.170  24.497  0.00  0.00    +0.037 A 
ATOM     14  C   UNL     1      -0.355   2.390  24.361  0.00  0.00    -0.001 A 
BRANCH  10  11
ATOM     11  O   UNL     1      -0.981   4.204  25.400  0.00  0.00    -0.471 OA
ATOM     12  C   UNL     1      -1.778   4.412  25.349  0.00  0.00    +0.252 C 
ENDBRANCH  10  11
ENDBRANCH   6   7
ENDBRANCH   5   6
ENDBRANCH  15   5
ENDBRANCH  18  16
TORSDOF 8
ENDMDL
MODEL 4
REMARK VINA RESULT:     -11.3      1.258      4.171
REMARK  Name = 
REMARK  8 active torsions:
REMARK  status: ('A' for Active; 'I' for Inactive)
REMARK    1  A    between atoms: O_2  and  C_3
REMARK    2  A    between atoms: C_3  and  C_5
REMARK    3  A    between atoms: C_5  and  C_6
REMARK    4  A    between atoms: C_5  and  N_15
REMARK    5  A    between atoms: C_6  and  C_7
REMARK    6  A    between atoms: C_10  and  O_11
REMARK    7  A    between atoms: C_16  and  C_18
REMARK    8  A    between atoms: N_29  and  C_30
REMARK                            x       y       z     vdW  Elec       q    Type
REMARK                         _______ _______ _______ _____ _____    ______ ____
ROOT
ATOM     18  C   UNL     1      -1.636   2.393  25.224  0.00  0.00    +0.174 C 
ATOM     19  C   UNL     1      -2.458   2.336  25.240  0.00  0.00    +0.124 C 
ATOM     20  N   UNL     1      -2.917   3.017  25.322  0.00  0.00    -0.259 N 
ATOM     21  C   UNL     1      -2.554   3.754  25.387  0.00  0.00    +0.117 C 
ATOM     22  C   UNL     1      -1.731   3.811  25.370  0.00  0.00    +0.115 C 
ATOM     23  N   UNL     1      -1.271   3.131  25.289  0.00  0.00    -0.270 N 
ATOM     24  C   UNL     1      -0.449   3.188  25.273  0.00  0.00    +0.227 C 
ATOM     25  C   UNL     1       0.010   2.507  25.191  0.00  0.00    +0.095 C 
ATOM     26  O   UNL     1      -0.085   3.925  25.338  0.00  0.00    -0.275 OA
ATOM     27  C   UNL     1      -3.740   2.960  25.338  0.00  0.00    +0.328 C 
ATOM     28  O   UNL     1      -4.199   3.641  25.419  0.00  0.00    -0.250 OA
ATOM     29  N   UNL     1      -4.104   2.222  25.273  0.00  0.00    -0.162 NA
ENDROOT
BRANCH  29  30
ATOM     30  C   UNL     1      -4.927   2.166  25.289  0.00  0.00    +0.075 A 
ATOM     31  C   UNL     1      -5.334   2.287  25.997  0.00  0.00    +0.017 A 
ATOM     32  C   UNL     1      -6.157   2.231  26.013  0.00  0.00    +0.001 A 
ATOM     33  C   UNL     1      -6.572   2.053  25.323  0.00  0.00    +0.000 A 
ATOM     34  C   UNL     1      -6.165   1.932  24.616  0.00  0.00    +0.001 A 
ATOM     35  C   UNL     1      -5.342   1.988  24.599  0.00  0.00    +0.017 A 
ENDBRANCH  29  30
BRANCH  18  16
ATOM     15  N   UNL     1      -1.428   1.102  24.647  0.00  0.00    -0.194 NA
ATOM     16  C   UNL     1      -1.177   1.713  25.142  0.00  0.00    +0.262 C 
ATOM     17  O   UNL     1      -0.466   1.642  25.555  0.00  0.00    -0.271 OA
BRANCH  15   5
ATOM      5  C   UNL     1      -0.969   0.421  24.566  0.00  0.00    +0.198 C 
BRANCH   5   3
ATOM      3  C   UNL     1      -0.494   0.322  23.898  0.00  0.00    +0.337 C 
ATOM      4  O   UNL     1      -0.790   0.504  23.150  0.00  0.00    -0.248 OA
BRANCH   3   2
ATOM      1  C   UNL     1       0.754  -0.055  23.313  0.00  0.00    +0.256 C 
ATOM      2  O   UNL     1       0.277   0.040  23.979  0.00  0.00    -0.443 OA
ENDBRANCH   3   2
ENDBRANCH   5   3
BRANCH   5   6
ATOM      6  C   UNL     1      -0.985  -0.159  25.151  0.00  0.00    +0.059 C 
BRANCH   6   7
ATOM      7  C   UNL     1      -1.560  -0.750  25.131  0.00  0.00    -0.020 A 
ATOM      8  C   UNL     1      -2.298  -0.620  25.479  0.00  0.00    -0.001 A 
ATOM      9  C   UNL     1      -2.873  -1.211  25.459  0.00  0.00    +0.037 A 
ATOM     10  C   UNL     1      -2.712  -1.931  25.090  0.00  0.00    +0.139 A 
ATOM     13  C   UNL     1      -1.975  -2.061  24.743  0.00  0.00    +0.037 A 
ATOM     14  C   UNL     1      -1.400  -1.470  24.763  0.00  0.00    -0.001 A 
BRANCH  10  11
ATOM     11  O   UNL     1      -3.287  -2.522  25.070  0.00  0.00    -0.471 OA
ATOM     12  C   UNL     1      -3.723  -2.650  24.382  0.00  0.00    +0.252 C 
ENDBRANCH  10  11
ENDBRANCH   6   7
ENDBRANCH   5   6
ENDBRANCH  15   5
ENDBRANCH  18  16
TORSDOF 8
ENDMDL
MODEL 5
REMARK VINA RESULT:     -11.2      1.128      4.124
REMARK  Name = 
REMARK  8 active torsions:
REMARK  status: ('A' for Active; 'I' for Inactive)
REMARK    1  A    between atoms: O_2  and  C_3
REMARK    2  A    between atoms: C_3  and  C_5
REMARK    3  A    between atoms: C_5  and  C_6
REMARK    4  A    between atoms: C_5  and  N_15
REMARK    5  A    between atoms: C_6  and  C_7
REMARK    6  A    between atoms: C_10  and  O_11
REMARK    7  A    between atoms: C_16  and  C_18
REMARK    8  A    between atoms: N_29  and  C_30
REMARK                            x       y       z     vdW  Elec       q    Type
REMARK                         _______ _______ _______ _____ _____    ______ ____
ROOT
ATOM     18  C   UNL     1      -1.196   0.465  24.472  0.00  0.00    +0.174 C 
ATOM     19  C   UNL     1      -1.245   1.278  24.599  0.00  0.00    +0.124 C 
ATOM     20  N   UNL     1      -0.557   1.730  24.646  0.00  0.00    -0.259 N 
ATOM     21  C   UNL     1       0.180   1.370  24.566  0.00  0.00    +0.117 C 
ATOM     22  C   UNL     1       0.230   0.556  24.439  0.00  0.00    +0.115 C 
ATOM     23  N   UNL     1      -0.458   0.103  24.392  0.00  0.00    -0.270 N 
ATOM     24  C   UNL     1      -0.408  -0.710  24.265  0.00  0.00    +0.227 C 
ATOM     25  C   UNL     1      -1.096  -1.163  24.218  0.00  0.00    +0.095 C 
ATOM     26  O   UNL     1       0.329  -1.071  24.185  0.00  0.00    -0.275 OA
ATOM     27  C   UNL     1      -0.606   2.544  24.774  0.00  0.00    +0.328 C 
ATOM     28  O   UNL     1       0.082   2.997  24.821  0.00  0.00    -0.250 OA
ATOM     29  N   UNL     1      -1.344   2.905  24.854  0.00  0.00    -0.162 NA
ENDROOT
BRANCH  29  30
ATOM     30  C   UNL     1      -1.393   3.718  24.981  0.00  0.00    +0.075 A 
ATOM     31  C   UNL     1      -1.933   4.018  25.529  0.00  0.00    +0.017 A 
ATOM     32  C   UNL     1      -1.982   4.832  25.656  0.00  0.00    +0.001 A 
ATOM     33  C   UNL     1      -1.492   5.346  25.236  0.00  0.00    +0.000 A 
ATOM     34  C   UNL     1      -0.953   5.046  24.689  0.00  0.00    +0.001 A 
ATOM     35  C   UNL     1      -0.903   4.232  24.561  0.00  0.00    +0.017 A 
ENDBRANCH  29  30
BRANCH  18  16
ATOM     15  N   UNL     1      -2.498   0.137  24.962  0.00  0.00    -0.194 NA
ATOM     16  C   UNL     1      -1.884   0.012  24.425  0.00  0.00    +0.262 C 
ATOM     17  O   UNL     1      -1.958  -0.567  23.842  0.00  0.00    -0.271 OA
BRANCH  15   5
ATOM      5  C   UNL     1      -3.186  -0.315  24.915  0.00  0.00    +0.198 C 
BRANCH   5   3
ATOM      3  C   UNL     1      -3.267  -0.992  25.381  0.00  0.00    +0.337 C 
ATOM      4  O   UNL     1      -3.092  -0.962  26.186  0.00  0.00    -0.248 OA
BRANCH   3   2
ATOM      1  C   UNL     1      -3.546  -2.389  25.491  0.00  0.00    +0.256 C 
ATOM      2  O   UNL     1      -3.524  -1.698  25.041  0.00  0.00    -0.443 OA
ENDBRANCH   3   2
ENDBRANCH   5   3
BRANCH   5   6
ATOM      6  C   UNL     1      -3.792  -0.092  24.403  0.00  0.00    +0.059 C 
BRANCH   6   7
ATOM      7  C   UNL     1      -4.271   0.554  24.588  0.00  0.00    -0.020 A 
ATOM      8  C   UNL     1      -4.259   1.227  24.110  0.00  0.00    -0.001 A 
ATOM      9  C   UNL     1      -4.738   1.873  24.295  0.00  0.00    +0.037 A 
ATOM     10  C   UNL     1      -5.229   1.845  24.958  0.00  0.00    +0.139 A 
ATOM     13  C   UNL     1      -5.242   1.173  25.435  0.00  0.00    +0.037 A 
ATOM     14  C   UNL     1      -4.763   0.527  25.250  0.00  0.00    -0.001 A 
BRANCH  10  11
ATOM     11  O   UNL     1      -5.708   2.491  25.142  0.00  0.00    -0.471 OA
ATOM     12  C   UNL     1      -5.465   3.036  25.711  0.00  0.00    +0.252 C 
ENDBRANCH  10  11
ENDBRANCH   6   7
ENDBRANCH   5   6
ENDBRANCH  15   5
ENDBRANCH  18  16
TORSDOF 8
ENDMDL
MODEL 6
REMARK VINA RESULT:     -10.8      1.466      5.530
REMARK  Name = 
REMARK  8 active torsions:
REMARK  status: ('A' for Active; 'I' for Inactive)
REMARK    1  A    between atoms: O_2  and  C_3
REMARK    2  A    between atoms: C_3  and  C_5
REMARK    3  A    between atoms: C_5  and  C_6
REMARK    4  A    between atoms: C_5  and  N_15
REMARK    5  A    between atoms: C_6  and  C_7
REMARK    6  A    between atoms: C_10  and  O_11
REMARK    7  A    between atoms: C_16  and  C_18
REMARK    8  A    between atoms: N_29  and  C_30
REMARK                            x       y       z     vdW  Elec       q    Type
REMARK                         _______ _______ _______ _____ _____    ______ ____
ROOT
ATOM     18  C   UNL     1      -4.364   1.745  25.041  0.00  0.00    +0.174 C 
ATOM     19  C   UNL     1      -3.731   2.272  24.999  0.00  0.00    +0.124 C 
ATOM     20  N   UNL     1      -3.873   3.084  24.958  0.00  0.00    -0.259 N 
ATOM     21  C   UNL     1      -4.647   3.369  24.958  0.00  0.00    +0.117 C 
ATOM     22  C   UNL     1      -5.280   2.841  25.000  0.00  0.00    +0.115 C 
ATOM     23  N   UNL     1      -5.139   2.029  25.041  0.00  0.00    -0.270 N 
ATOM     24  C   UNL     1      -5.772   1.502  25.083  0.00  0.00    +0.227 C 
ATOM     25  C   UNL     1      -5.630   0.691  25.125  0.00  0.00    +0.095 C 
ATOM     26  O   UNL     1      -6.546   1.786  25.084  0.00  0.00    -0.275 OA
ATOM     27  C   UNL     1      -3.240   3.612  24.916  0.00  0.00    +0.328 C 
ATOM     28  O   UNL     1      -3.382   4.423  24.874  0.00  0.00    -0.250 OA
ATOM     29  N   UNL     1      -2.465   3.327  24.915  0.00  0.00    -0.162 NA
ENDROOT
BRANCH  29  30
ATOM     30  C   UNL     1      -1.833   3.855  24.873  0.00  0.00    +0.075 A 
ATOM     31  C   UNL     1      -1.163   3.661  24.431  0.00  0.00    +0.017 A 
ATOM     32  C   UNL     1      -0.530   4.188  24.389  0.00  0.00    +0.001 A 
ATOM     33  C   UNL     1      -0.567   4.909  24.788  0.00  0.00    +0.000 A 
ATOM     34  C   UNL     1      -1.236   5.103  25.229  0.00  0.00    +0.001 A 
ATOM     35  C   UNL     1      -1.869   4.576  25.272  0.00  0.00    +0.017 A 
ENDBRANCH  29  30
BRANCH  18  16
ATOM     15  N   UNL     1      -3.683   0.582  24.565  0.00  0.00    -0.194 NA
ATOM     16  C   UNL     1      -4.223   0.934  25.082  0.00  0.00    +0.262 C 
ATOM     17  O   UNL     1      -4.620   0.473  25.639  0.00  0.00    -0.271 OA
BRANCH  15   5
ATOM      5  C   UNL     1      -3.542  -0.230  24.606  0.00  0.00    +0.198 C 
BRANCH   5   3
ATOM      3  C   UNL     1      -3.893  -0.738  24.059  0.00  0.00    +0.337 C 
ATOM      4  O   UNL     1      -3.875  -0.555  23.255  0.00  0.00    -0.248 OA
BRANCH   3   2
ATOM      1  C   UNL     1      -4.491  -2.003  23.769  0.00  0.00    +0.256 C 
ATOM      2  O   UNL     1      -4.262  -1.429  24.316  0.00  0.00    -0.443 OA
ENDBRANCH   3   2
ENDBRANCH   5   3
BRANCH   5   6
ATOM      6  C   UNL     1      -3.050  -0.533  25.195  0.00  0.00    +0.059 C 
BRANCH   6   7
ATOM      7  C   UNL     1      -2.244  -0.631  25.049  0.00  0.00    -0.020 A 
ATOM      8  C   UNL     1      -1.897  -1.375  25.133  0.00  0.00    -0.001 A 
ATOM      9  C   UNL     1      -1.091  -1.473  24.987  0.00  0.00    +0.037 A 
ATOM     10  C   UNL     1      -0.632  -0.827  24.756  0.00  0.00    +0.139 A 
ATOM     13  C   UNL     1      -0.979  -0.084  24.672  0.00  0.00    +0.037 A 
ATOM     14  C   UNL     1      -1.785   0.014  24.818  0.00  0.00    -0.001 A 
BRANCH  10  11
ATOM     11  O   UNL     1       0.174  -0.925  24.610  0.00  0.00    -0.471 OA
ATOM     12  C   UNL     1       0.500  -0.661  23.900  0.00  0.00    +0.252 C 
ENDBRANCH  10  11
ENDBRANCH   6   7
ENDBRANCH   5   6
ENDBRANCH  15   5
ENDBRANCH  18  16
TORSDOF 8
ENDMDL
