MODEL 1
REMARK VINA RESULT:     -15.2      0.000      0.000
REMARK  Name = 
REMARK  4 active torsions:
REMARK  status: ('A' for Active; 'I' for Inactive)
REMARK    1  A    between atoms: C_8  and  C_10
REMARK    2  A    between atoms: C_10  and  C_11
REMARK    3  A    between atoms: C_16  and  C_18
REMARK    4  A    between atoms: C_29  and  C_31
REMARK                            x       y       z     vdW  Elec       q    Type
REMARK                         _______ _______ _______ _____ _____    ______ ____
ROOT
ATOM     11  C   UNL     1      -3.945   1.024  24.709  0.00  0.00    +0.050 C 
ATOM     12  C   UNL     1      -3.159   1.258  24.617  0.00  0.00    +0.063 A 
ATOM     13  C   UNL     1      -2.943   2.043  24.754  0.00  0.00    +0.023 A 
ATOM     14  C   UNL     1      -3.513   2.593  24.983  0.00  0.00    +0.034 C 
ATOM     15  C   UNL     1      -4.299   2.360  25.075  0.00  0.00    +0.010 C 
ATOM     16  C   UNL     1      -4.868   2.910  25.304  0.00  0.00    +0.059 C 
ATOM     17  C   UNL     1      -4.200   3.393  25.289  0.00  0.00    +0.005 C 
ATOM     20  C   UNL     1      -5.655   2.677  25.396  0.00  0.00    +0.154 C 
ATOM     21  O   UNL     1      -6.225   3.227  25.625  0.00  0.00    -0.223 OA
ATOM     22  C   UNL     1      -5.870   1.892  25.259  0.00  0.00    +0.033 C 
ATOM     23  C   UNL     1      -5.300   1.341  25.030  0.00  0.00    +0.003 C 
ATOM     24  C   UNL     1      -4.515   1.575  24.938  0.00  0.00    +0.006 C 
ATOM     25  C   UNL     1      -4.730   0.791  24.801  0.00  0.00    +0.000 C 
ATOM     26  S   UNL     1      -2.131   2.111  24.620  0.00  0.00    -0.054 S 
ATOM     27  C   UNL     1      -1.846   1.369  24.401  0.00  0.00    +0.185 A 
ATOM     28  N   UNL     1      -1.064   1.186  24.216  0.00  0.00    -0.154 NA
ATOM     29  C   UNL     1      -0.485   1.774  24.241  0.00  0.00    +0.246 C 
ATOM     30  O   UNL     1      -0.690   2.544  24.453  0.00  0.00    -0.273 OA
ATOM     35  N   UNL     1      -2.480   0.842  24.399  0.00  0.00    -0.227 NA
ENDROOT
BRANCH  29  31
ATOM     31  C   UNL     1       0.298   1.591  24.056  0.00  0.00    +0.071 C 
ATOM     32  C   UNL     1       1.081   1.408  23.871  0.00  0.00    +0.009 C 
ATOM     33  C   UNL     1       0.530   2.346  24.293  0.00  0.00    +0.009 C 
ATOM     34  C   UNL     1       0.065   0.835  23.820  0.00  0.00    +0.009 C 
ENDBRANCH  29  31
BRANCH  16  18
ATOM     18  C   UNL     1      -5.207   3.629  25.528  0.00  0.00    +0.184 C 
ATOM     19  O   UNL     1      -4.769   4.326  25.474  0.00  0.00    -0.220 OA
ENDBRANCH  16  18
BRANCH  11  10
ATOM     10  C   UNL     1      -4.161   0.241  24.573  0.00  0.00    +0.091 C 
BRANCH  10   8
ATOM      1  C   UNL     1      -3.756  -3.478  24.024  0.00  0.00    +0.000 C 
ATOM      2  C   UNL     1      -3.791  -2.697  24.288  0.00  0.00    +0.003 C 
ATOM      3  C   UNL     1      -4.056  -2.102  23.782  0.00  0.00    +0.022 C 
ATOM      4  C   UNL     1      -4.091  -1.321  24.045  0.00  0.00    +0.093 C 
ATOM      5  N   UNL     1      -3.861  -1.135  24.815  0.00  0.00    -0.280 N 
ATOM      6  C   UNL     1      -3.597  -1.730  25.322  0.00  0.00    +0.093 C 
ATOM      7  C   UNL     1      -3.562  -2.511  25.058  0.00  0.00    +0.022 C 
ATOM      8  C   UNL     1      -3.896  -0.355  25.079  0.00  0.00    +0.226 C 
ATOM      9  O   UNL     1      -3.667  -0.168  25.849  0.00  0.00    -0.275 OA
ENDBRANCH  10   8
ENDBRANCH  11  10
TORSDOF 4
ENDMDL
MODEL 2
REMARK VINA RESULT:     -14.3      0.878      3.779
REMARK  Name = 
REMARK  4 active torsions:
REMARK  status: ('A' for Active; 'I' for Inactive)
REMARK    1  A    between atoms: C_8  and  C_10
REMARK    2  A    between atoms: C_10  and  C_11
REMARK    3  A    between atoms: C_16  and  C_18
REMARK    4  A    between atoms: C_29  and  C_31
REMARK                            x       y       z     vdW  Elec       q    Type
REMARK                         _______ _______ _______ _____ _____    ______ ____
ROOT
ATOM     11  C   UNL     1      -3.262   1.932  24.704  0.00  0.00    +0.050 C 
ATOM     12  C   UNL     1      -3.470   1.133  24.678  0.00  0.00    +0.063 A 
ATOM     13  C   UNL     1      -4.234   0.899  24.882  0.00  0.00    +0.023 A 
ATOM     14  C   UNL     1      -4.791   1.463  25.111  0.00  0.00    +0.034 C 
ATOM     15  C   UNL     1      -4.584   2.260  25.137  0.00  0.00    +0.010 C 
ATOM     16  C   UNL     1      -5.141   2.824  25.366  0.00  0.00    +0.059 C 
ATOM     17  C   UNL     1      -5.596   2.139  25.427  0.00  0.00    +0.005 C 
ATOM     20  C   UNL     1      -4.934   3.622  25.391  0.00  0.00    +0.154 C 
ATOM     21  O   UNL     1      -5.491   4.186  25.620  0.00  0.00    -0.223 OA
ATOM     22  C   UNL     1      -4.170   3.857  25.188  0.00  0.00    +0.033 C 
ATOM     23  C   UNL     1      -3.612   3.293  24.958  0.00  0.00    +0.003 C 
ATOM     24  C   UNL     1      -3.820   2.495  24.933  0.00  0.00    +0.006 C 
ATOM     25  C   UNL     1      -3.055   2.730  24.729  0.00  0.00    +0.000 C 
ATOM     26  S   UNL     1      -4.278   0.078  24.805  0.00  0.00    -0.054 S 
ATOM     27  C   UNL     1      -3.541  -0.194  24.554  0.00  0.00    +0.185 A 
ATOM     28  N   UNL     1      -3.339  -0.980  24.407  0.00  0.00    -0.154 NA
ATOM     29  C   UNL     1      -3.899  -1.576  24.510  0.00  0.00    +0.246 C 
ATOM     30  O   UNL     1      -4.662  -1.386  24.759  0.00  0.00    -0.273 OA
ATOM     35  N   UNL     1      -3.041   0.458  24.475  0.00  0.00    -0.227 NA
ENDROOT
BRANCH  29  31
ATOM     31  C   UNL     1      -3.697  -2.363  24.362  0.00  0.00    +0.071 C 
ATOM     32  C   UNL     1      -3.495  -3.149  24.215  0.00  0.00    +0.009 C 
ATOM     33  C   UNL     1      -4.160  -2.354  23.679  0.00  0.00    +0.009 C 
ATOM     34  C   UNL     1      -3.234  -2.371  25.045  0.00  0.00    +0.009 C 
ENDBRANCH  29  31
BRANCH  16  18
ATOM     18  C   UNL     1      -5.856   3.150  25.616  0.00  0.00    +0.184 C 
ATOM     19  O   UNL     1      -6.350   2.724  26.120  0.00  0.00    -0.220 OA
ENDBRANCH  16  18
BRANCH  11  10
ATOM     10  C   UNL     1      -2.499   2.166  24.500  0.00  0.00    +0.091 C 
BRANCH  10   8
ATOM      1  C   UNL     1       1.204   1.759  23.855  0.00  0.00    +0.000 C 
ATOM      2  C   UNL     1       0.435   1.826  24.146  0.00  0.00    +0.003 C 
ATOM      3  C   UNL     1      -0.191   1.966  23.628  0.00  0.00    +0.022 C 
ATOM      4  C   UNL     1      -0.961   2.033  23.919  0.00  0.00    +0.093 C 
ATOM      5  N   UNL     1      -1.103   1.960  24.728  0.00  0.00    -0.280 N 
ATOM      6  C   UNL     1      -0.477   1.821  25.246  0.00  0.00    +0.093 C 
ATOM      7  C   UNL     1       0.292   1.754  24.955  0.00  0.00    +0.022 C 
ATOM      8  C   UNL     1      -1.872   2.027  25.018  0.00  0.00    +0.226 C 
ATOM      9  O   UNL     1      -2.016   1.955  25.827  0.00  0.00    -0.275 OA
ENDBRANCH  10   8
ENDBRANCH  11  10
TORSDOF 4
ENDMDL
MODEL 3
REMARK VINA RESULT:     -14.2      1.556      4.924
REMARK  Name = 
REMARK  4 active torsions:
REMARK  status: ('A' for Active; 'I' for Inactive)
REMARK    1  A    between atoms: C_8  and  C_10
REMARK    2  A    between atoms: C_10  and  C_11
REMARK    3  A    between atoms: C_16  and  C_18
REMARK    4  A    between atoms: C_29  and  C_31
REMARK                            x       y       z     vdW  Elec       q    Type
REMARK                         _______ _______ _______ _____ _____    ______ ____
ROOT
ATOM     11  C   UNL     1      -2.561  -0.170  24.985  0.00  0.00    +0.050 C 
ATOM     12  C   UNL     1      -3.208   0.342  25.007  0.00  0.00    +0.063 A 
ATOM     13  C   UNL     1      -3.957   0.070  24.792  0.00  0.00    +0.023 A 
ATOM     14  C   UNL     1      -4.059  -0.714  24.557  0.00  0.00    +0.034 C 
ATOM     15  C   UNL     1      -3.413  -1.226  24.535  0.00  0.00    +0.010 C 
ATOM     16  C   UNL     1      -3.515  -2.009  24.300  0.00  0.00    +0.059 C 
ATOM     17  C   UNL     1      -4.291  -1.737  24.231  0.00  0.00    +0.005 C 
ATOM     20  C   UNL     1      -2.869  -2.522  24.278  0.00  0.00    +0.154 C 
ATOM     21  O   UNL     1      -2.971  -3.306  24.043  0.00  0.00    -0.223 OA
ATOM     22  C   UNL     1      -2.120  -2.250  24.493  0.00  0.00    +0.033 C 
ATOM     23  C   UNL     1      -2.017  -1.466  24.728  0.00  0.00    +0.003 C 
ATOM     24  C   UNL     1      -2.664  -0.954  24.750  0.00  0.00    +0.006 C 
ATOM     25  C   UNL     1      -1.915  -0.682  24.964  0.00  0.00    +0.000 C 
ATOM     26  S   UNL     1      -4.487   0.698  24.867  0.00  0.00    -0.054 S 
ATOM     27  C   UNL     1      -4.066   1.357  25.128  0.00  0.00    +0.185 A 
ATOM     28  N   UNL     1      -4.380   2.105  25.276  0.00  0.00    -0.154 NA
ATOM     29  C   UNL     1      -5.186   2.245  25.165  0.00  0.00    +0.246 C 
ATOM     30  O   UNL     1      -5.676   1.635  24.905  0.00  0.00    -0.273 OA
ATOM     35  N   UNL     1      -3.276   1.138  25.214  0.00  0.00    -0.227 NA
ENDROOT
BRANCH  29  31
ATOM     31  C   UNL     1      -5.500   2.993  25.313  0.00  0.00    +0.071 C 
ATOM     32  C   UNL     1      -5.814   3.741  25.461  0.00  0.00    +0.009 C 
ATOM     33  C   UNL     1      -4.944   3.328  24.803  0.00  0.00    +0.009 C 
ATOM     34  C   UNL     1      -6.055   2.659  25.823  0.00  0.00    +0.009 C 
ENDBRANCH  29  31
BRANCH  16  18
ATOM     18  C   UNL     1      -3.887  -2.699  24.040  0.00  0.00    +0.184 C 
ATOM     19  O   UNL     1      -4.634  -2.660  23.693  0.00  0.00    -0.220 OA
ENDBRANCH  16  18
BRANCH  11  10
ATOM     10  C   UNL     1      -1.813   0.101  25.199  0.00  0.00    +0.091 C 
BRANCH  10   8
ATOM      1  C   UNL     1       0.602   2.877  26.069  0.00  0.00    +0.000 C 
ATOM      2  C   UNL     1       0.097   2.319  25.732  0.00  0.00    +0.003 C 
ATOM      3  C   UNL     1      -0.298   1.776  26.211  0.00  0.00    +0.022 C 
ATOM      4  C   UNL     1      -0.803   1.218  25.874  0.00  0.00    +0.093 C 
ATOM      5  N   UNL     1      -0.913   1.202  25.057  0.00  0.00    -0.280 N 
ATOM      6  C   UNL     1      -0.518   1.744  24.577  0.00  0.00    +0.093 C 
ATOM      7  C   UNL     1      -0.013   2.302  24.915  0.00  0.00    +0.022 C 
ATOM      8  C   UNL     1      -1.418   0.644  24.720  0.00  0.00    +0.226 C 
ATOM      9  O   UNL     1      -1.528   0.627  23.903  0.00  0.00    -0.275 OA
ENDBRANCH  10   8
ENDBRANCH  11  10
TORSDOF 4
ENDMDL
MODEL 4
REMARK VINA RESULT:     -14.0      1.461      3.962
REMARK  Name = 
REMARK  4 active torsions:
REMARK  status: ('A' for Active; 'I' for Inactive)
REMARK    1  A    between atoms: C_8  and  C_10
REMARK    2  A    between atoms: C_10  and  C_11
REMARK    3  A    between atoms: C_16  and  C_18
REMARK    4  A    between atoms: C_29  and  C_31
REMARK                            x       y       z     vdW  Elec       q    Type
REMARK                         _______ _______ _______ _____ _____    ______ ____
ROOT
ATOM     11  C   UNL     1      -3.563   0.111  24.577  0.00  0.00    +0.050 C 
ATOM     12  C   UNL     1      -2.831   0.427  24.794  0.00  0.00    +0.063 A 
ATOM     13  C   UNL     1      -2.172  -0.065  24.859  0.00  0.00    +0.023 A 
ATOM     14  C   UNL     1      -2.245  -0.873  24.708  0.00  0.00    +0.034 C 
ATOM     15  C   UNL     1      -2.975  -1.189  24.492  0.00  0.00    +0.010 C 
ATOM     16  C   UNL     1      -3.047  -1.996  24.341  0.00  0.00    +0.059 C 
ATOM     17  C   UNL     1      -2.244  -1.956  24.528  0.00  0.00    +0.005 C 
ATOM     20  C   UNL     1      -3.777  -2.313  24.125  0.00  0.00    +0.154 C 
ATOM     21  O   UNL     1      -3.850  -3.121  23.974  0.00  0.00    -0.223 OA
ATOM     22  C   UNL     1      -4.436  -1.821  24.059  0.00  0.00    +0.033 C 
ATOM     23  C   UNL     1      -4.365  -1.012  24.210  0.00  0.00    +0.003 C 
ATOM     24  C   UNL     1      -3.634  -0.697  24.426  0.00  0.00    +0.006 C 
ATOM     25  C   UNL     1      -4.293  -0.205  24.361  0.00  0.00    +0.000 C 
ATOM     26  S   UNL     1      -1.528   0.400  25.081  0.00  0.00    -0.054 S 
ATOM     27  C   UNL     1      -1.788   1.178  25.153  0.00  0.00    +0.185 A 
ATOM     28  N   UNL     1      -1.325   1.827  25.365  0.00  0.00    -0.154 NA
ATOM     29  C   UNL     1      -0.523   1.726  25.528  0.00  0.00    +0.246 C 
ATOM     30  O   UNL     1      -0.185   0.975  25.479  0.00  0.00    -0.273 OA
ATOM     35  N   UNL     1      -2.594   1.196  24.975  0.00  0.00    -0.227 NA
ENDROOT
BRANCH  29  31
ATOM     31  C   UNL     1      -0.059   2.375  25.740  0.00  0.00    +0.071 C 
ATOM     32  C   UNL     1       0.404   3.024  25.952  0.00  0.00    +0.009 C 
ATOM     33  C   UNL     1      -0.277   2.272  26.529  0.00  0.00    +0.009 C 
ATOM     34  C   UNL     1       0.158   2.478  24.951  0.00  0.00    +0.009 C 
ENDBRANCH  29  31
BRANCH  16  18
ATOM     18  C   UNL     1      -2.840  -2.791  24.255  0.00  0.00    +0.184 C 
ATOM     19  O   UNL     1      -2.047  -3.015  24.270  0.00  0.00    -0.220 OA
ENDBRANCH  16  18
BRANCH  11  10
ATOM     10  C   UNL     1      -4.221   0.602  24.511  0.00  0.00    +0.091 C 
BRANCH  10   8
ATOM      1  C   UNL     1      -5.902   3.895  25.306  0.00  0.00    +0.000 C 
ATOM      2  C   UNL     1      -5.580   3.135  25.277  0.00  0.00    +0.003 C 
ATOM      3  C   UNL     1      -5.186   2.880  24.599  0.00  0.00    +0.022 C 
ATOM      4  C   UNL     1      -4.864   2.121  24.570  0.00  0.00    +0.093 C 
ATOM      5  N   UNL     1      -4.936   1.617  25.219  0.00  0.00    -0.280 N 
ATOM      6  C   UNL     1      -5.329   1.872  25.897  0.00  0.00    +0.093 C 
ATOM      7  C   UNL     1      -5.651   2.631  25.926  0.00  0.00    +0.022 C 
ATOM      8  C   UNL     1      -4.614   0.858  25.189  0.00  0.00    +0.226 C 
ATOM      9  O   UNL     1      -4.686   0.354  25.838  0.00  0.00    -0.275 OA
ENDBRANCH  10   8
ENDBRANCH  11  10
TORSDOF 4
ENDMDL
MODEL 5
REMARK VINA RESULT:     -12.9      1.507      4.885
REMARK  Name = 
REMARK  4 active torsions:
REMARK  status: ('A' for Active; 'I' for Inactive)
REMARK    1  A    between atoms: C_8  and  C_10
REMARK    2  A    between atoms: C_10  and  C_11
REMARK    3  A    between atoms: C_16  and  C_18
REMARK    4  A    between atoms: C_29  and  C_31
REMARK                            x       y       z     vdW  Elec       q    Type
REMARK                         _______ _______ _______ _____ _____    ______ ____
ROOT
ATOM     11  C   UNL     1      -1.950   1.497  24.737  0.00  0.00    +0.050 C 
ATOM     12  C   UNL     1      -2.163   0.706  24.631  0.00  0.00    +0.063 A 
ATOM     13  C   UNL     1      -1.601   0.159  24.375  0.00  0.00    +0.023 A 
ATOM     14  C   UNL     1      -0.827   0.402  24.225  0.00  0.00    +0.034 C 
ATOM     15  C   UNL     1      -0.614   1.191  24.331  0.00  0.00    +0.010 C 
ATOM     16  C   UNL     1       0.159   1.433  24.181  0.00  0.00    +0.059 C 
ATOM     17  C   UNL     1       0.223   0.631  24.001  0.00  0.00    +0.005 C 
ATOM     20  C   UNL     1       0.373   2.223  24.287  0.00  0.00    +0.154 C 
ATOM     21  O   UNL     1       1.147   2.466  24.137  0.00  0.00    -0.223 OA
ATOM     22  C   UNL     1      -0.188   2.771  24.543  0.00  0.00    +0.033 C 
ATOM     23  C   UNL     1      -0.963   2.529  24.693  0.00  0.00    +0.003 C 
ATOM     24  C   UNL     1      -1.175   1.739  24.587  0.00  0.00    +0.006 C 
ATOM     25  C   UNL     1      -1.737   2.286  24.843  0.00  0.00    +0.000 C 
ATOM     26  S   UNL     1      -1.970  -0.578  24.320  0.00  0.00    -0.054 S 
ATOM     27  C   UNL     1      -2.758  -0.484  24.542  0.00  0.00    +0.185 A 
ATOM     28  N   UNL     1      -3.328  -1.080  24.567  0.00  0.00    -0.154 NA
ATOM     29  C   UNL     1      -3.128  -1.853  24.358  0.00  0.00    +0.246 C 
ATOM     30  O   UNL     1      -2.357  -2.028  24.124  0.00  0.00    -0.273 OA
ATOM     35  N   UNL     1      -2.878   0.309  24.734  0.00  0.00    -0.227 NA
ENDROOT
BRANCH  29  31
ATOM     31  C   UNL     1      -3.698  -2.449  24.384  0.00  0.00    +0.071 C 
ATOM     32  C   UNL     1      -4.268  -3.045  24.409  0.00  0.00    +0.009 C 
ATOM     33  C   UNL     1      -4.102  -2.089  23.761  0.00  0.00    +0.009 C 
ATOM     34  C   UNL     1      -3.294  -2.809  25.007  0.00  0.00    +0.009 C 
ENDBRANCH  29  31
BRANCH  16  18
ATOM     18  C   UNL     1       0.956   1.397  23.968  0.00  0.00    +0.184 C 
ATOM     19  O   UNL     1       1.234   0.769  23.512  0.00  0.00    -0.220 OA
ENDBRANCH  16  18
BRANCH  11  10
ATOM     10  C   UNL     1      -2.510   2.044  24.993  0.00  0.00    +0.091 C 
BRANCH  10   8
ATOM      1  C   UNL     1      -5.755   3.870  25.650  0.00  0.00    +0.000 C 
ATOM      2  C   UNL     1      -5.091   3.480  25.356  0.00  0.00    +0.003 C 
ATOM      3  C   UNL     1      -4.504   3.216  25.873  0.00  0.00    +0.022 C 
ATOM      4  C   UNL     1      -3.840   2.826  25.580  0.00  0.00    +0.093 C 
ATOM      5  N   UNL     1      -3.761   2.698  24.769  0.00  0.00    -0.280 N 
ATOM      6  C   UNL     1      -4.347   2.961  24.252  0.00  0.00    +0.093 C 
ATOM      7  C   UNL     1      -5.011   3.352  24.545  0.00  0.00    +0.022 C 
ATOM      8  C   UNL     1      -3.097   2.307  24.476  0.00  0.00    +0.226 C 
ATOM      9  O   UNL     1      -3.017   2.179  23.665  0.00  0.00    -0.275 OA
ENDBRANCH  10   8
ENDBRANCH  11  10
TORSDOF 4
ENDMDL
MODEL 6
REMARK VINA RESULT:     -12.8      1.028      3.934
REMARK  Name = 
REMARK  4 active torsions:
REMARK  status: ('A' for Active; 'I' for Inactive)
REMARK    1  A    between atoms: C_8  and  C_10
REMARK    2  A    between atoms: C_10  and  C_11
REMARK    3  A    between atoms: C_16  and  C_18
REMARK    4  A    between atoms: C_29  and  C_31
REMARK                            x       y       z     vdW  Elec       q    Type
REMARK                         _______ _______ _______ _____ _____    ______ ____
ROOT
ATOM     11  C   UNL     1      -2.028   0.826  24.449  0.00  0.00    +0.050 C 
ATOM     12  C   UNL     1      -2.619   1.356  24.676  0.00  0.00    +0.063 A 
ATOM     13  C   UNL     1      -2.432   2.147  24.817  0.00  0.00    +0.023 A 
ATOM     14  C   UNL     1      -1.654   2.409  24.731  0.00  0.00    +0.034 C 
ATOM     15  C   UNL     1      -1.064   1.880  24.504  0.00  0.00    +0.010 C 
ATOM     16  C   UNL     1      -0.287   2.141  24.419  0.00  0.00    +0.059 C 
ATOM     17  C   UNL     1      -0.651   2.847  24.643  0.00  0.00    +0.005 C 
ATOM     20  C   UNL     1       0.305   1.613  24.192  0.00  0.00    +0.154 C 
ATOM     21  O   UNL     1       1.083   1.874  24.106  0.00  0.00    -0.223 OA
ATOM     22  C   UNL     1       0.118   0.821  24.051  0.00  0.00    +0.033 C 
ATOM     23  C   UNL     1      -0.660   0.559  24.137  0.00  0.00    +0.003 C 
ATOM     24  C   UNL     1      -1.251   1.089  24.364  0.00  0.00    +0.006 C 
ATOM     25  C   UNL     1      -1.437   0.298  24.223  0.00  0.00    +0.000 C 
ATOM     26  S   UNL     1      -3.127   2.539  25.032  0.00  0.00    -0.054 S 
ATOM     27  C   UNL     1      -3.741   1.990  25.024  0.00  0.00    +0.185 A 
ATOM     28  N   UNL     1      -4.531   2.144  25.205  0.00  0.00    -0.154 NA
ATOM     29  C   UNL     1      -4.765   2.906  25.417  0.00  0.00    +0.246 C 
ATOM     30  O   UNL     1      -4.208   3.513  25.449  0.00  0.00    -0.273 OA
ATOM     35  N   UNL     1      -3.429   1.259  24.804  0.00  0.00    -0.227 NA
ENDROOT
BRANCH  29  31
ATOM     31  C   UNL     1      -5.555   3.060  25.597  0.00  0.00    +0.071 C 
ATOM     32  C   UNL     1      -6.345   3.215  25.778  0.00  0.00    +0.009 C 
ATOM     33  C   UNL     1      -5.430   3.864  25.456  0.00  0.00    +0.009 C 
ATOM     34  C   UNL     1      -5.680   2.257  25.738  0.00  0.00    +0.009 C 
ENDBRANCH  29  31
BRANCH  16  18
ATOM     18  C   UNL     1       0.365   2.648  24.411  0.00  0.00    +0.184 C 
ATOM     19  O   UNL     1       0.253   3.465  24.399  0.00  0.00    -0.220 OA
ENDBRANCH  16  18
BRANCH  11  10
ATOM     10  C   UNL     1      -2.215   0.036  24.308  0.00  0.00    +0.091 C 
BRANCH  10   8
ATOM      1  C   UNL     1      -4.026  -3.281  24.410  0.00  0.00    +0.000 C 
ATOM      2  C   UNL     1      -3.616  -2.577  24.542  0.00  0.00    +0.003 C 
ATOM      3  C   UNL     1      -3.444  -2.075  23.911  0.00  0.00    +0.022 C 
ATOM      4  C   UNL     1      -3.034  -1.371  24.043  0.00  0.00    +0.093 C 
ATOM      5  N   UNL     1      -2.797  -1.170  24.807  0.00  0.00    -0.280 N 
ATOM      6  C   UNL     1      -2.969  -1.671  25.438  0.00  0.00    +0.093 C 
ATOM      7  C   UNL     1      -3.379  -2.375  25.306  0.00  0.00    +0.022 C 
ATOM      8  C   UNL     1      -2.387  -0.466  24.939  0.00  0.00    +0.226 C 
ATOM      9  O   UNL     1      -2.150  -0.264  25.703  0.00  0.00    -0.275 OA
ENDBRANCH  10   8
ENDBRANCH  11  10
TORSDOF 4
ENDMDL
