MODEL 1
REMARK VINA RESULT:     -12.3      0.000      0.000
REMARK  Name = 
REMARK  7 active torsions:
REMARK  status: ('A' for Active; 'I' for Inactive)
REMARK    1  A    between atoms: C_5  and  C_6
REMARK    2  A    between atoms: C_6  and  C_7
REMARK    3  A    between atoms: N_9  and  C_10
REMARK    4  A    between atoms: C_10  and  C_11
REMARK    5  A    between atoms: C_19  and  C_20
REMARK    6  A    between atoms: C_20  and  N_21
REMARK    7  A    between atoms: N_24  and  C_25
REMARK                            x       y       z     vdW  Elec       q    Type
REMARK                         _______ _______ _______ _____ _____    ______ ____
ROOT
ATOM      1  O   UNL     1      -6.235   2.410  25.447  0.00  0.00    -0.218 OA
ATOM      2  C   UNL     1      -5.440   2.620  25.373  0.00  0.00    +0.213 C 
ATOM      3  C   UNL     1      -5.135   3.387  25.403  0.00  0.00    +0.212 C 
ATOM      4  O   UNL     1      -5.572   4.077  25.512  0.00  0.00    -0.218 OA
ATOM      5  C   UNL     1      -4.317   3.339  25.305  0.00  0.00    +0.157 C 
ATOM     18  O   UNL     1      -4.117   2.544  25.214  0.00  0.00    -0.351 OA
ATOM     19  C   UNL     1      -4.810   2.100  25.257  0.00  0.00    +0.170 C 
ENDROOT
BRANCH   5   6
ATOM      6  C   UNL     1      -3.793   3.976  25.298  0.00  0.00    +0.119 C 
BRANCH   6   7
ATOM      7  C   UNL     1      -3.082   3.929  25.714  0.00  0.00    +0.244 C 
ATOM      8  O   UNL     1      -3.062   4.108  26.518  0.00  0.00    -0.273 OA
ATOM      9  N   UNL     1      -2.390   3.704  25.324  0.00  0.00    -0.200 NA
BRANCH   9  10
ATOM     10  C   UNL     1      -1.680   3.657  25.740  0.00  0.00    +0.141 C 
BRANCH  10  11
ATOM     11  C   UNL     1      -1.047   3.228  25.429  0.00  0.00    -0.000 A 
ATOM     12  C   UNL     1      -0.746   3.418  24.685  0.00  0.00    -0.000 A 
ATOM     13  C   UNL     1      -0.114   2.990  24.374  0.00  0.00    +0.029 A 
ATOM     14  C   UNL     1       0.218   2.370  24.807  0.00  0.00    +0.140 A 
ATOM     15  F   UNL     1       0.851   1.941  24.496  0.00  0.00    -0.204 F 
ATOM     16  C   UNL     1      -0.083   2.180  25.551  0.00  0.00    +0.029 A 
ATOM     17  C   UNL     1      -0.716   2.609  25.862  0.00  0.00    -0.000 A 
ENDBRANCH  10  11
ENDBRANCH   9  10
ENDBRANCH   6   7
ENDBRANCH   5   6
BRANCH  19  20
ATOM     20  C   UNL     1      -4.865   1.278  25.194  0.00  0.00    +0.149 C 
BRANCH  20  21
ATOM     21  N   UNL     1      -4.363   0.870  24.682  0.00  0.00    -0.184 NA
ATOM     22  C   UNL     1      -4.281   0.052  24.751  0.00  0.00    +0.344 C 
ATOM     23  O   UNL     1      -4.700  -0.357  25.331  0.00  0.00    -0.249 OA
ATOM     24  N   UNL     1      -3.779  -0.356  24.238  0.00  0.00    -0.161 NA
BRANCH  24  25
ATOM     25  C   UNL     1      -3.698  -1.174  24.307  0.00  0.00    +0.075 A 
ATOM     26  C   UNL     1      -3.116  -1.490  24.801  0.00  0.00    +0.017 A 
ATOM     27  C   UNL     1      -3.034  -2.308  24.870  0.00  0.00    +0.001 A 
ATOM     28  C   UNL     1      -3.532  -2.809  24.447  0.00  0.00    +0.000 A 
ATOM     29  C   UNL     1      -4.113  -2.495  23.954  0.00  0.00    +0.001 A 
ATOM     30  C   UNL     1      -4.196  -1.676  23.884  0.00  0.00    +0.017 A 
ENDBRANCH  24  25
ENDBRANCH  20  21
ENDBRANCH  19  20
TORSDOF 7
ENDMDL
MODEL 2
REMARK VINA RESULT:     -12.1      2.033      3.721
REMARK  Name = 
REMARK  7 active torsions:
REMARK  status: ('A' for Active; 'I' for Inactive)
REMARK    1  A    between atoms: C_5  and  C_6
REMARK    2  A    between atoms: C_6  and  C_7
REMARK    3  A    between atoms: N_9  and  C_10
REMARK    4  A    between atoms: C_10  and  C_11
REMARK    5  A    between atoms: C_19  and  C_20
REMARK    6  A    between atoms: C_20  and  N_21
REMARK    7  A    between atoms: N_24  and  C_25
REMARK                            x       y       z     vdW  Elec       q    Type
REMARK                         _______ _______ _______ _____ _____    ______ ____
ROOT
ATOM      1  O   UNL     1       0.264   1.593  25.303  0.00  0.00    -0.218 OA
ATOM      2  C   UNL     1      -0.485   1.932  25.377  0.00  0.00    +0.213 C 
ATOM      3  C   UNL     1      -0.646   2.724  25.544  0.00  0.00    +0.212 C 
ATOM      4  O   UNL     1      -0.085   3.316  25.666  0.00  0.00    -0.218 OA
ATOM      5  C   UNL     1      -1.465   2.818  25.568  0.00  0.00    +0.157 C 
ATOM     18  O   UNL     1      -1.810   2.085  25.416  0.00  0.00    -0.351 OA
ATOM     19  C   UNL     1      -1.206   1.537  25.298  0.00  0.00    +0.170 C 
ENDROOT
BRANCH   5   6
ATOM      6  C   UNL     1      -1.867   3.523  25.717  0.00  0.00    +0.119 C 
BRANCH   6   7
ATOM      7  C   UNL     1      -2.548   3.708  25.290  0.00  0.00    +0.244 C 
ATOM      8  O   UNL     1      -2.499   4.198  24.629  0.00  0.00    -0.273 OA
ATOM      9  N   UNL     1      -3.278   3.404  25.525  0.00  0.00    -0.200 NA
BRANCH   9  10
ATOM     10  C   UNL     1      -3.959   3.589  25.099  0.00  0.00    +0.141 C 
BRANCH  10  11
ATOM     11  C   UNL     1      -4.627   3.108  25.159  0.00  0.00    -0.000 A 
ATOM     12  C   UNL     1      -5.151   3.209  25.787  0.00  0.00    -0.000 A 
ATOM     13  C   UNL     1      -5.819   2.729  25.848  0.00  0.00    +0.029 A 
ATOM     14  C   UNL     1      -5.963   2.148  25.280  0.00  0.00    +0.140 A 
ATOM     15  F   UNL     1      -6.632   1.667  25.340  0.00  0.00    -0.204 F 
ATOM     16  C   UNL     1      -5.439   2.047  24.651  0.00  0.00    +0.029 A 
ATOM     17  C   UNL     1      -4.770   2.528  24.591  0.00  0.00    -0.000 A 
ENDBRANCH  10  11
ENDBRANCH   9  10
ENDBRANCH   6   7
ENDBRANCH   5   6
BRANCH  19  20
ATOM     20  C   UNL     1      -1.303   0.735  25.130  0.00  0.00    +0.149 C 
BRANCH  20  21
ATOM     21  N   UNL     1      -1.945   0.323  25.445  0.00  0.00    -0.184 NA
ATOM     22  C   UNL     1      -2.292  -0.289  25.015  0.00  0.00    +0.344 C 
ATOM     23  O   UNL     1      -1.999  -0.489  24.272  0.00  0.00    -0.249 OA
ATOM     24  N   UNL     1      -2.935  -0.701  25.331  0.00  0.00    -0.161 NA
BRANCH  24  25
ATOM     25  C   UNL     1      -3.282  -1.313  24.901  0.00  0.00    +0.075 A 
ATOM     26  C   UNL     1      -3.871  -1.145  24.347  0.00  0.00    +0.017 A 
ATOM     27  C   UNL     1      -4.218  -1.758  23.917  0.00  0.00    +0.001 A 
ATOM     28  C   UNL     1      -3.978  -2.536  24.040  0.00  0.00    +0.000 A 
ATOM     29  C   UNL     1      -3.390  -2.704  24.593  0.00  0.00    +0.001 A 
ATOM     30  C   UNL     1      -3.042  -2.092  25.024  0.00  0.00    +0.017 A 
ENDBRANCH  24  25
ENDBRANCH  20  21
ENDBRANCH  19  20
TORSDOF 7
ENDMDL
MODEL 3
REMARK VINA RESULT:     -11.5      2.844      6.242
REMARK  Name = 
REMARK  7 active torsions:
REMARK  status: ('A' for Active; 'I' for Inactive)
REMARK    1  A    between atoms: C_5  and  C_6
REMARK    2  A    between atoms: C_6  and  C_7
REMARK    3  A    between atoms: N_9  and  C_10
REMARK    4  A    between atoms: C_10  and  C_11
REMARK    5  A    between atoms: C_19  and  C_20
REMARK    6  A    between atoms: C_20  and  N_21
REMARK    7  A    between atoms: N_24  and  C_25
REMARK                            x       y       z     vdW  Elec       q    Type
REMARK                         _______ _______ _______ _____ _____    ______ ____
ROOT
ATOM      1  O   UNL     1       1.092   0.742  22.968  0.00  0.00    -0.218 OA
ATOM      2  C   UNL     1       0.576   0.413  23.521  0.00  0.00    +0.213 C 
ATOM      3  C   UNL     1       0.530  -0.385  23.728  0.00  0.00    +0.212 C 
ATOM      4  O   UNL     1       0.993  -0.992  23.418  0.00  0.00    -0.218 OA
ATOM      5  C   UNL     1      -0.059  -0.466  24.299  0.00  0.00    +0.157 C 
ATOM     18  O   UNL     1      -0.378   0.281  24.445  0.00  0.00    -0.351 OA
ATOM     19  C   UNL     1       0.014   0.824  23.965  0.00  0.00    +0.170 C 
ENDROOT
BRANCH   5   6
ATOM      6  C   UNL     1      -0.289  -1.171  24.661  0.00  0.00    +0.119 C 
BRANCH   6   7
ATOM      7  C   UNL     1      -1.009  -1.214  25.061  0.00  0.00    +0.244 C 
ATOM      8  O   UNL     1      -1.068  -0.942  25.837  0.00  0.00    -0.273 OA
ATOM      9  N   UNL     1      -1.672  -1.530  24.683  0.00  0.00    -0.200 NA
BRANCH   9  10
ATOM     10  C   UNL     1      -2.392  -1.572  25.083  0.00  0.00    +0.141 C 
BRANCH  10  11
ATOM     11  C   UNL     1      -3.069  -1.833  24.688  0.00  0.00    -0.000 A 
ATOM     12  C   UNL     1      -3.225  -2.640  24.626  0.00  0.00    -0.000 A 
ATOM     13  C   UNL     1      -3.900  -2.901  24.232  0.00  0.00    +0.029 A 
ATOM     14  C   UNL     1      -4.421  -2.353  23.898  0.00  0.00    +0.140 A 
ATOM     15  F   UNL     1      -5.097  -2.614  23.503  0.00  0.00    -0.204 F 
ATOM     16  C   UNL     1      -4.265  -1.546  23.960  0.00  0.00    +0.029 A 
ATOM     17  C   UNL     1      -3.588  -1.285  24.355  0.00  0.00    -0.000 A 
ENDBRANCH  10  11
ENDBRANCH   9  10
ENDBRANCH   6   7
ENDBRANCH   5   6
BRANCH  19  20
ATOM     20  C   UNL     1      -0.129   1.636  23.933  0.00  0.00    +0.149 C 
BRANCH  20  21
ATOM     21  N   UNL     1      -0.234   2.064  24.630  0.00  0.00    -0.184 NA
ATOM     22  C   UNL     1      -0.654   2.773  24.619  0.00  0.00    +0.344 C 
ATOM     23  O   UNL     1      -0.970   3.055  23.912  0.00  0.00    -0.249 OA
ATOM     24  N   UNL     1      -0.759   3.202  25.317  0.00  0.00    -0.161 NA
BRANCH  24  25
ATOM     25  C   UNL     1      -1.179   3.911  25.306  0.00  0.00    +0.075 A 
ATOM     26  C   UNL     1      -1.964   3.929  25.562  0.00  0.00    +0.017 A 
ATOM     27  C   UNL     1      -2.385   4.639  25.551  0.00  0.00    +0.001 A 
ATOM     28  C   UNL     1      -2.022   5.329  25.284  0.00  0.00    +0.000 A 
ATOM     29  C   UNL     1      -1.238   5.311  25.028  0.00  0.00    +0.001 A 
ATOM     30  C   UNL     1      -0.817   4.601  25.039  0.00  0.00    +0.017 A 
ENDBRANCH  24  25
ENDBRANCH  20  21
ENDBRANCH  19  20
TORSDOF 7
ENDMDL
MODEL 4
REMARK VINA RESULT:     -11.5      2.345      5.242
REMARK  Name = 
REMARK  7 active torsions:
REMARK  status: ('A' for Active; 'I' for Inactive)
REMARK    1  A    between atoms: C_5  and  C_6
REMARK    2  A    between atoms: C_6  and  C_7
REMARK    3  A    between atoms: N_9  and  C_10
REMARK    4  A    between atoms: C_10  and  C_11
REMARK    5  A    between atoms: C_19  and  C_20
REMARK    6  A    between atoms: C_20  and  N_21
REMARK    7  A    between atoms: N_24  and  C_25
REMARK                            x       y       z     vdW  Elec       q    Type
REMARK                         _______ _______ _______ _____ _____    ______ ____
ROOT
ATOM      1  O   UNL     1       0.042   2.742  24.161  0.00  0.00    -0.218 OA
ATOM      2  C   UNL     1      -0.337   2.021  24.292  0.00  0.00    +0.213 C 
ATOM      3  C   UNL     1       0.008   1.273  24.233  0.00  0.00    +0.212 C 
ATOM      4  O   UNL     1       0.792   1.117  24.033  0.00  0.00    -0.218 OA
ATOM      5  C   UNL     1      -0.570   0.712  24.410  0.00  0.00    +0.157 C 
ATOM     18  O   UNL     1      -1.272   1.112  24.578  0.00  0.00    -0.351 OA
ATOM     19  C   UNL     1      -1.128   1.921  24.505  0.00  0.00    +0.170 C 
ENDROOT
BRANCH   5   6
ATOM      6  C   UNL     1      -0.464  -0.107  24.418  0.00  0.00    +0.119 C 
BRANCH   6   7
ATOM      7  C   UNL     1      -0.963  -0.583  24.870  0.00  0.00    +0.244 C 
ATOM      8  O   UNL     1      -0.814  -0.688  25.674  0.00  0.00    -0.273 OA
ATOM      9  N   UNL     1      -1.610  -0.954  24.518  0.00  0.00    -0.200 NA
BRANCH   9  10
ATOM     10  C   UNL     1      -2.109  -1.430  24.970  0.00  0.00    +0.141 C 
BRANCH  10  11
ATOM     11  C   UNL     1      -2.799  -1.738  24.639  0.00  0.00    -0.000 A 
ATOM     12  C   UNL     1      -2.859  -2.546  24.488  0.00  0.00    -0.000 A 
ATOM     13  C   UNL     1      -3.549  -2.854  24.156  0.00  0.00    +0.029 A 
ATOM     14  C   UNL     1      -4.179  -2.352  23.975  0.00  0.00    +0.140 A 
ATOM     15  F   UNL     1      -4.869  -2.660  23.643  0.00  0.00    -0.204 F 
ATOM     16  C   UNL     1      -4.119  -1.544  24.126  0.00  0.00    +0.029 A 
ATOM     17  C   UNL     1      -3.428  -1.236  24.458  0.00  0.00    -0.000 A 
ENDBRANCH  10  11
ENDBRANCH   9  10
ENDBRANCH   6   7
ENDBRANCH   5   6
BRANCH  19  20
ATOM     20  C   UNL     1      -1.679   2.525  24.623  0.00  0.00    +0.149 C 
BRANCH  20  21
ATOM     21  N   UNL     1      -2.429   2.470  24.286  0.00  0.00    -0.184 NA
ATOM     22  C   UNL     1      -3.097   2.648  24.736  0.00  0.00    +0.344 C 
ATOM     23  O   UNL     1      -3.014   2.881  25.522  0.00  0.00    -0.249 OA
ATOM     24  N   UNL     1      -3.848   2.593  24.399  0.00  0.00    -0.161 NA
BRANCH  24  25
ATOM     25  C   UNL     1      -4.516   2.772  24.850  0.00  0.00    +0.075 A 
ATOM     26  C   UNL     1      -4.993   2.163  25.139  0.00  0.00    +0.017 A 
ATOM     27  C   UNL     1      -5.660   2.341  25.589  0.00  0.00    +0.001 A 
ATOM     28  C   UNL     1      -5.851   3.127  25.751  0.00  0.00    +0.000 A 
ATOM     29  C   UNL     1      -5.375   3.735  25.462  0.00  0.00    +0.001 A 
ATOM     30  C   UNL     1      -4.707   3.557  25.011  0.00  0.00    +0.017 A 
ENDBRANCH  24  25
ENDBRANCH  20  21
ENDBRANCH  19  20
TORSDOF 7
ENDMDL
MODEL 5
REMARK VINA RESULT:     -11.4      2.196      5.461
REMARK  Name = 
REMARK  7 active torsions:
REMARK  status: ('A' for Active; 'I' for Inactive)
REMARK    1  A    between atoms: C_5  and  C_6
REMARK    2  A    between atoms: C_6  and  C_7
REMARK    3  A    between atoms: N_9  and  C_10
REMARK    4  A    between atoms: C_10  and  C_11
REMARK    5  A    between atoms: C_19  and  C_20
REMARK    6  A    between atoms: C_20  and  N_21
REMARK    7  A    between atoms: N_24  and  C_25
REMARK                            x       y       z     vdW  Elec       q    Type
REMARK                         _______ _______ _______ _____ _____    ______ ____
ROOT
ATOM      1  O   UNL     1      -0.352  -0.910  24.833  0.00  0.00    -0.218 OA
ATOM      2  C   UNL     1      -1.132  -0.655  24.921  0.00  0.00    +0.213 C 
ATOM      3  C   UNL     1      -1.796  -1.140  24.998  0.00  0.00    +0.212 C 
ATOM      4  O   UNL     1      -1.795  -1.964  25.001  0.00  0.00    -0.218 OA
ATOM      5  C   UNL     1      -2.458  -0.654  25.073  0.00  0.00    +0.157 C 
ATOM     18  O   UNL     1      -2.205   0.131  25.042  0.00  0.00    -0.351 OA
ATOM     19  C   UNL     1      -1.385   0.130  24.948  0.00  0.00    +0.170 C 
ENDROOT
BRANCH   5   6
ATOM      6  C   UNL     1      -3.238  -0.909  25.163  0.00  0.00    +0.119 C 
BRANCH   6   7
ATOM      7  C   UNL     1      -3.848  -0.520  24.766  0.00  0.00    +0.244 C 
ATOM      8  O   UNL     1      -4.103  -0.795  24.031  0.00  0.00    -0.273 OA
ATOM      9  N   UNL     1      -4.202   0.145  25.103  0.00  0.00    -0.200 NA
BRANCH   9  10
ATOM     10  C   UNL     1      -4.811   0.533  24.706  0.00  0.00    +0.141 C 
BRANCH  10  11
ATOM     11  C   UNL     1      -5.041   1.290  24.942  0.00  0.00    -0.000 A 
ATOM     12  C   UNL     1      -4.778   1.950  24.523  0.00  0.00    -0.000 A 
ATOM     13  C   UNL     1      -5.007   2.706  24.759  0.00  0.00    +0.029 A 
ATOM     14  C   UNL     1      -5.500   2.802  25.414  0.00  0.00    +0.140 A 
ATOM     15  F   UNL     1      -5.730   3.559  25.650  0.00  0.00    -0.204 F 
ATOM     16  C   UNL     1      -5.763   2.143  25.832  0.00  0.00    +0.029 A 
ATOM     17  C   UNL     1      -5.533   1.386  25.596  0.00  0.00    -0.000 A 
ENDBRANCH  10  11
ENDBRANCH   9  10
ENDBRANCH   6   7
ENDBRANCH   5   6
BRANCH  19  20
ATOM     20  C   UNL     1      -0.903   0.798  24.891  0.00  0.00    +0.149 C 
BRANCH  20  21
ATOM     21  N   UNL     1      -0.969   1.402  25.448  0.00  0.00    -0.184 NA
ATOM     22  C   UNL     1      -1.047   2.184  25.199  0.00  0.00    +0.344 C 
ATOM     23  O   UNL     1      -1.060   2.362  24.395  0.00  0.00    -0.249 OA
ATOM     24  N   UNL     1      -1.113   2.790  25.757  0.00  0.00    -0.161 NA
BRANCH  24  25
ATOM     25  C   UNL     1      -1.191   3.572  25.508  0.00  0.00    +0.075 A 
ATOM     26  C   UNL     1      -1.912   3.964  25.602  0.00  0.00    +0.017 A 
ATOM     27  C   UNL     1      -1.990   4.747  25.353  0.00  0.00    +0.001 A 
ATOM     28  C   UNL     1      -1.350   5.137  25.011  0.00  0.00    +0.000 A 
ATOM     29  C   UNL     1      -0.630   4.746  24.917  0.00  0.00    +0.001 A 
ATOM     30  C   UNL     1      -0.551   3.962  25.166  0.00  0.00    +0.017 A 
ENDBRANCH  24  25
ENDBRANCH  20  21
ENDBRANCH  19  20
TORSDOF 7
ENDMDL
MODEL 6
REMARK VINA RESULT:     -11.2      1.611      5.057
REMARK  Name = 
REMARK  7 active torsions:
REMARK  status: ('A' for Active; 'I' for Inactive)
REMARK    1  A    between atoms: C_5  and  C_6
REMARK    2  A    between atoms: C_6  and  C_7
REMARK    3  A    between atoms: N_9  and  C_10
REMARK    4  A    between atoms: C_10  and  C_11
REMARK    5  A    between atoms: C_19  and  C_20
REMARK    6  A    between atoms: C_20  and  N_21
REMARK    7  A    between atoms: N_24  and  C_25
REMARK                            x       y       z     vdW  Elec       q    Type
REMARK                         _______ _______ _______ _____ _____    ______ ____
ROOT
ATOM      1  O   UNL     1      -5.991   3.643  26.125  0.00  0.00    -0.218 OA
ATOM      2  C   UNL     1      -5.598   3.017  25.758  0.00  0.00    +0.213 C 
ATOM      3  C   UNL     1      -5.883   2.246  25.674  0.00  0.00    +0.212 C 
ATOM      4  O   UNL     1      -6.611   1.968  25.943  0.00  0.00    -0.218 OA
ATOM      5  C   UNL     1      -5.312   1.806  25.275  0.00  0.00    +0.157 C 
ATOM     18  O   UNL     1      -4.674   2.303  25.112  0.00  0.00    -0.351 OA
ATOM     19  C   UNL     1      -4.851   3.051  25.410  0.00  0.00    +0.170 C 
ENDROOT
BRANCH   5   6
ATOM      6  C   UNL     1      -5.369   1.007  25.074  0.00  0.00    +0.119 C 
BRANCH   6   7
ATOM      7  C   UNL     1      -4.757   0.641  24.660  0.00  0.00    +0.244 C 
ATOM      8  O   UNL     1      -4.370   1.044  24.053  0.00  0.00    -0.273 OA
ATOM      9  N   UNL     1      -4.531  -0.129  24.853  0.00  0.00    -0.200 NA
BRANCH   9  10
ATOM     10  C   UNL     1      -3.919  -0.495  24.438  0.00  0.00    +0.141 C 
BRANCH  10  11
ATOM     11  C   UNL     1      -3.805  -1.310  24.505  0.00  0.00    -0.000 A 
ATOM     12  C   UNL     1      -4.106  -1.817  23.929  0.00  0.00    -0.000 A 
ATOM     13  C   UNL     1      -3.992  -2.631  23.995  0.00  0.00    +0.029 A 
ATOM     14  C   UNL     1      -3.576  -2.938  24.638  0.00  0.00    +0.140 A 
ATOM     15  F   UNL     1      -3.462  -3.753  24.705  0.00  0.00    -0.204 F 
ATOM     16  C   UNL     1      -3.275  -2.431  25.215  0.00  0.00    +0.029 A 
ATOM     17  C   UNL     1      -3.389  -1.616  25.148  0.00  0.00    -0.000 A 
ENDBRANCH  10  11
ENDBRANCH   9  10
ENDBRANCH   6   7
ENDBRANCH   5   6
BRANCH  19  20
ATOM     20  C   UNL     1      -4.365   3.717  25.368  0.00  0.00    +0.149 C 
BRANCH  20  21
ATOM     21  N   UNL     1      -3.628   3.714  25.738  0.00  0.00    -0.184 NA
ATOM     22  C   UNL     1      -2.969   4.018  25.345  0.00  0.00    +0.344 C 
ATOM     23  O   UNL     1      -3.048   4.325  24.585  0.00  0.00    -0.249 OA
ATOM     24  N   UNL     1      -2.231   4.014  25.715  0.00  0.00    -0.161 NA
BRANCH  24  25
ATOM     25  C   UNL     1      -1.572   4.318  25.322  0.00  0.00    +0.075 A 
ATOM     26  C   UNL     1      -1.002   3.806  25.016  0.00  0.00    +0.017 A 
ATOM     27  C   UNL     1      -0.343   4.110  24.623  0.00  0.00    +0.001 A 
ATOM     28  C   UNL     1      -0.254   4.924  24.537  0.00  0.00    +0.000 A 
ATOM     29  C   UNL     1      -0.824   5.437  24.843  0.00  0.00    +0.001 A 
ATOM     30  C   UNL     1      -1.483   5.133  25.236  0.00  0.00    +0.017 A 
ENDBRANCH  24  25
ENDBRANCH  20  21
ENDBRANCH  19  20
TORSDOF 7
ENDMDL
MODEL 7
REMARK VINA RESULT:     -10.9      1.810      4.213
REMARK  Name = 
REMARK  7 active torsions:
REMARK  status: ('A' for Active; 'I' for Inactive)
REMARK    1  A    between atoms: C_5  and  C_6
REMARK    2  A    between atoms: C_6  and  C_7
REMARK    3  A    between atoms: N_9  and  C_10
REMARK    4  A    between atoms: C_10  and  C_11
REMARK    5  A    between atoms: C_19  and  C_20
REMARK    6  A    between atoms: C_20  and  N_21
REMARK    7  A    between atoms: N_24  and  C_25
REMARK                            x       y       z     vdW  Elec       q    Type
REMARK                         _______ _______ _______ _____ _____    ______ ____
ROOT
ATOM      1  O   UNL     1      -3.355  -2.451  24.463  0.00  0.00    -0.218 OA
ATOM      2  C   UNL     1      -2.798  -1.854  24.586  0.00  0.00    +0.213 C 
ATOM      3  C   UNL     1      -1.979  -1.953  24.622  0.00  0.00    +0.212 C 
ATOM      4  O   UNL     1      -1.575  -2.667  24.539  0.00  0.00    -0.218 OA
ATOM      5  C   UNL     1      -1.639  -1.214  24.753  0.00  0.00    +0.157 C 
ATOM     18  O   UNL     1      -2.246  -0.657  24.799  0.00  0.00    -0.351 OA
ATOM     19  C   UNL     1      -2.963  -1.053  24.696  0.00  0.00    +0.170 C 
ENDROOT
BRANCH   5   6
ATOM      6  C   UNL     1      -0.831  -1.058  24.826  0.00  0.00    +0.119 C 
BRANCH   6   7
ATOM      7  C   UNL     1      -0.508  -0.385  24.476  0.00  0.00    +0.244 C 
ATOM      8  O   UNL     1      -0.185  -0.428  23.718  0.00  0.00    -0.273 OA
ATOM      9  N   UNL     1      -0.507   0.332  24.885  0.00  0.00    -0.200 NA
BRANCH   9  10
ATOM     10  C   UNL     1      -0.183   1.005  24.535  0.00  0.00    +0.141 C 
BRANCH  10  11
ATOM     11  C   UNL     1      -0.358   1.753  24.839  0.00  0.00    -0.000 A 
ATOM     12  C   UNL     1      -0.127   1.950  25.605  0.00  0.00    -0.000 A 
ATOM     13  C   UNL     1      -0.301   2.697  25.909  0.00  0.00    +0.029 A 
ATOM     14  C   UNL     1      -0.707   3.246  25.446  0.00  0.00    +0.140 A 
ATOM     15  F   UNL     1      -0.881   3.994  25.749  0.00  0.00    -0.204 F 
ATOM     16  C   UNL     1      -0.938   3.049  24.679  0.00  0.00    +0.029 A 
ATOM     17  C   UNL     1      -0.763   2.301  24.375  0.00  0.00    -0.000 A 
ENDBRANCH  10  11
ENDBRANCH   9  10
ENDBRANCH   6   7
ENDBRANCH   5   6
BRANCH  19  20
ATOM     20  C   UNL     1      -3.713  -0.708  24.702  0.00  0.00    +0.149 C 
BRANCH  20  21
ATOM     21  N   UNL     1      -3.828   0.033  24.358  0.00  0.00    -0.184 NA
ATOM     22  C   UNL     1      -4.260   0.610  24.759  0.00  0.00    +0.344 C 
ATOM     23  O   UNL     1      -4.576   0.446  25.502  0.00  0.00    -0.249 OA
ATOM     24  N   UNL     1      -4.375   1.352  24.415  0.00  0.00    -0.161 NA
BRANCH  24  25
ATOM     25  C   UNL     1      -4.807   1.929  24.816  0.00  0.00    +0.075 A 
ATOM     26  C   UNL     1      -5.628   1.858  24.881  0.00  0.00    +0.017 A 
ATOM     27  C   UNL     1      -6.060   2.435  25.282  0.00  0.00    +0.001 A 
ATOM     28  C   UNL     1      -5.673   3.081  25.618  0.00  0.00    +0.000 A 
ATOM     29  C   UNL     1      -4.854   3.152  25.553  0.00  0.00    +0.001 A 
ATOM     30  C   UNL     1      -4.421   2.575  25.151  0.00  0.00    +0.017 A 
ENDBRANCH  24  25
ENDBRANCH  20  21
ENDBRANCH  19  20
TORSDOF 7
ENDMDL
