MODEL 1
REMARK VINA RESULT:     -12.1      0.000      0.000
REMARK  Name = 
REMARK  7 active torsions:
REMARK  status: ('A' for Active; 'I' for Inactive)
REMARK    1  A    between atoms: C_2  and  C_4
REMARK    2  A    between atoms: C_6  and  C_7
REMARK    3  A    between atoms: C_7  and  C_8
REMARK    4  A    between atoms: C_11  and  C_13
REMARK    5  A    between atoms: C_20  and  C_21
REMARK    6  A    between atoms: C_21  and  N_22
REMARK    7  A    between atoms: C_25  and  C_26
REMARK                            x       y       z     vdW  Elec       q    Type
REMARK                         _______ _______ _______ _____ _____    ______ ____
ROOT
ATOM      4  C   UNL     1      -4.722   1.506  24.704  0.00  0.00    +0.006 C 
ATOM      5  C   UNL     1      -4.384   2.198  24.409  0.00  0.00    +0.005 C 
ATOM      6  C   UNL     1      -3.722   2.156  23.916  0.00  0.00    +0.027 C 
ATOM     17  C   UNL     1      -3.401   1.423  23.719  0.00  0.00    -0.048 C 
ATOM     18  C   UNL     1      -2.740   1.381  23.227  0.00  0.00    +0.026 C 
ATOM     19  C   UNL     1      -3.740   0.731  24.014  0.00  0.00    -0.034 C 
ATOM     20  C   UNL     1      -4.400   0.772  24.506  0.00  0.00    +0.037 C 
ENDROOT
BRANCH   4   2
ATOM      1  C   UNL     1      -6.141   1.533  24.870  0.00  0.00    +0.000 C 
ATOM      2  C   UNL     1      -5.382   1.548  25.196  0.00  0.00    +0.000 C 
ATOM      3  C   UNL     1      -5.285   1.606  26.012  0.00  0.00    +0.000 C 
ENDBRANCH   4   2
BRANCH   6   7
ATOM      7  C   UNL     1      -3.384   2.848  23.621  0.00  0.00    +0.091 C 
BRANCH   7   8
ATOM      8  C   UNL     1      -3.026   3.384  24.135  0.00  0.00    +0.226 A 
ATOM      9  N   UNL     1      -3.394   4.029  24.497  0.00  0.00    -0.112 NA
ATOM     10  N   UNL     1      -2.832   4.413  24.964  0.00  0.00    -0.112 NA
ATOM     11  C   UNL     1      -2.118   4.007  24.890  0.00  0.00    +0.225 A 
ATOM     12  O   UNL     1      -2.238   3.371  24.378  0.00  0.00    -0.423 OA
BRANCH  11  13
ATOM     13  C   UNL     1      -1.408   4.201  25.263  0.00  0.00    +0.070 C 
ATOM     14  C   UNL     1      -0.698   4.395  25.636  0.00  0.00    +0.009 C 
ATOM     15  C   UNL     1      -1.551   3.624  25.835  0.00  0.00    +0.009 C 
ATOM     16  C   UNL     1      -1.265   4.778  24.691  0.00  0.00    +0.009 C 
ENDBRANCH  11  13
ENDBRANCH   7   8
ENDBRANCH   6   7
BRANCH  20  21
ATOM     21  C   UNL     1      -4.739   0.081  24.801  0.00  0.00    +0.076 C 
BRANCH  21  22
ATOM     22  N   UNL     1      -4.324  -0.632  24.759  0.00  0.00    -0.272 NA
ATOM     23  C   UNL     1      -3.808  -0.845  25.366  0.00  0.00    +0.072 C 
ATOM     24  C   UNL     1      -3.394  -1.558  25.324  0.00  0.00    +0.020 C 
ATOM     25  C   UNL     1      -3.497  -2.057  24.674  0.00  0.00    +0.036 C 
ATOM     28  C   UNL     1      -4.014  -1.843  24.068  0.00  0.00    +0.020 C 
ATOM     29  C   UNL     1      -4.427  -1.130  24.110  0.00  0.00    +0.072 C 
BRANCH  25  26
ATOM     26  C   UNL     1      -3.084  -2.769  24.632  0.00  0.00    +0.182 C 
ATOM     27  O   UNL     1      -2.313  -2.782  24.335  0.00  0.00    -0.220 OA
ENDBRANCH  25  26
ENDBRANCH  21  22
ENDBRANCH  20  21
TORSDOF 7
ENDMDL
MODEL 2
REMARK VINA RESULT:     -12.0      0.932      4.914
REMARK  Name = 
REMARK  7 active torsions:
REMARK  status: ('A' for Active; 'I' for Inactive)
REMARK    1  A    between atoms: C_2  and  C_4
REMARK    2  A    between atoms: C_6  and  C_7
REMARK    3  A    between atoms: C_7  and  C_8
REMARK    4  A    between atoms: C_11  and  C_13
REMARK    5  A    between atoms: C_20  and  C_21
REMARK    6  A    between atoms: C_21  and  N_22
REMARK    7  A    between atoms: C_25  and  C_26
REMARK                            x       y       z     vdW  Elec       q    Type
REMARK                         _______ _______ _______ _____ _____    ______ ____
ROOT
ATOM      4  C   UNL     1      -4.375   1.722  24.733  0.00  0.00    +0.006 C 
ATOM      5  C   UNL     1      -4.294   1.025  24.298  0.00  0.00    +0.005 C 
ATOM      6  C   UNL     1      -3.576   0.850  23.931  0.00  0.00    +0.027 C 
ATOM     17  C   UNL     1      -2.940   1.371  23.998  0.00  0.00    -0.048 C 
ATOM     18  C   UNL     1      -2.223   1.195  23.631  0.00  0.00    +0.026 C 
ATOM     19  C   UNL     1      -3.022   2.067  24.433  0.00  0.00    -0.034 C 
ATOM     20  C   UNL     1      -3.739   2.243  24.800  0.00  0.00    +0.037 C 
ENDROOT
BRANCH   4   2
ATOM      1  C   UNL     1      -5.227   1.657  25.878  0.00  0.00    +0.000 C 
ATOM      2  C   UNL     1      -5.093   1.897  25.099  0.00  0.00    +0.000 C 
ATOM      3  C   UNL     1      -5.676   2.311  24.690  0.00  0.00    +0.000 C 
ENDBRANCH   4   2
BRANCH   6   7
ATOM      7  C   UNL     1      -3.495   0.153  23.497  0.00  0.00    +0.091 C 
BRANCH   7   8
ATOM      8  C   UNL     1      -3.711  -0.569  23.831  0.00  0.00    +0.226 A 
ATOM      9  N   UNL     1      -4.436  -0.951  23.732  0.00  0.00    -0.112 NA
ATOM     10  N   UNL     1      -4.414  -1.655  24.163  0.00  0.00    -0.112 NA
ATOM     11  C   UNL     1      -3.675  -1.707  24.528  0.00  0.00    +0.225 A 
ATOM     12  O   UNL     1      -3.241  -1.036  24.322  0.00  0.00    -0.423 OA
BRANCH  11  13
ATOM     13  C   UNL     1      -3.416  -2.322  25.012  0.00  0.00    +0.070 C 
ATOM     14  C   UNL     1      -3.157  -2.938  25.497  0.00  0.00    +0.009 C 
ATOM     15  C   UNL     1      -3.389  -2.825  24.360  0.00  0.00    +0.009 C 
ATOM     16  C   UNL     1      -3.443  -1.820  25.666  0.00  0.00    +0.009 C 
ENDBRANCH  11  13
ENDBRANCH   7   8
ENDBRANCH   6   7
BRANCH  20  21
ATOM     21  C   UNL     1      -3.821   2.939  25.234  0.00  0.00    +0.076 C 
BRANCH  21  22
ATOM     22  N   UNL     1      -3.211   3.497  25.238  0.00  0.00    -0.272 NA
ATOM     23  C   UNL     1      -3.170   4.068  24.644  0.00  0.00    +0.072 C 
ATOM     24  C   UNL     1      -2.562   4.624  24.649  0.00  0.00    +0.020 C 
ATOM     25  C   UNL     1      -1.993   4.610  25.248  0.00  0.00    +0.036 C 
ATOM     28  C   UNL     1      -2.035   4.039  25.841  0.00  0.00    +0.020 C 
ATOM     29  C   UNL     1      -2.644   3.482  25.836  0.00  0.00    +0.072 C 
BRANCH  25  26
ATOM     26  C   UNL     1      -1.385   5.166  25.252  0.00  0.00    +0.182 C 
ATOM     27  O   UNL     1      -0.686   5.017  24.839  0.00  0.00    -0.220 OA
ENDBRANCH  25  26
ENDBRANCH  21  22
ENDBRANCH  20  21
TORSDOF 7
ENDMDL
MODEL 3
REMARK VINA RESULT:     -11.4      0.888      1.835
REMARK  Name = 
REMARK  7 active torsions:
REMARK  status: ('A' for Active; 'I' for Inactive)
REMARK    1  A    between atoms: C_2  and  C_4
REMARK    2  A    between atoms: C_6  and  C_7
REMARK    3  A    between atoms: C_7  and  C_8
REMARK    4  A    between atoms: C_11  and  C_13
REMARK    5  A    between atoms: C_20  and  C_21
REMARK    6  A    between atoms: C_21  and  N_22
REMARK    7  A    between atoms: C_25  and  C_26
REMARK                            x       y       z     vdW  Elec       q    Type
REMARK                         _______ _______ _______ _____ _____    ______ ____
ROOT
ATOM      4  C   UNL     1      -3.049   1.758  23.564  0.00  0.00    +0.006 C 
ATOM      5  C   UNL     1      -3.191   2.492  23.913  0.00  0.00    +0.005 C 
ATOM      6  C   UNL     1      -3.744   2.559  24.523  0.00  0.00    +0.027 C 
ATOM     17  C   UNL     1      -4.154   1.891  24.783  0.00  0.00    -0.048 C 
ATOM     18  C   UNL     1      -4.706   1.958  25.391  0.00  0.00    +0.026 C 
ATOM     19  C   UNL     1      -4.011   1.158  24.433  0.00  0.00    -0.034 C 
ATOM     20  C   UNL     1      -3.459   1.091  23.824  0.00  0.00    +0.037 C 
ENDROOT
BRANCH   4   2
ATOM      1  C   UNL     1      -2.731   1.806  22.172  0.00  0.00    +0.000 C 
ATOM      2  C   UNL     1      -2.497   1.692  22.955  0.00  0.00    +0.000 C 
ATOM      3  C   UNL     1      -1.711   1.513  23.128  0.00  0.00    +0.000 C 
ENDBRANCH   4   2
BRANCH   6   7
ATOM      7  C   UNL     1      -3.886   3.292  24.872  0.00  0.00    +0.091 C 
BRANCH   7   8
ATOM      8  C   UNL     1      -3.263   3.719  25.204  0.00  0.00    +0.226 A 
ATOM      9  N   UNL     1      -3.091   3.778  26.009  0.00  0.00    -0.112 NA
ATOM     10  N   UNL     1      -2.424   4.257  26.092  0.00  0.00    -0.112 NA
ATOM     11  C   UNL     1      -2.185   4.494  25.339  0.00  0.00    +0.225 A 
ATOM     12  O   UNL     1      -2.703   4.161  24.790  0.00  0.00    -0.423 OA
BRANCH  11  13
ATOM     13  C   UNL     1      -1.540   4.978  25.165  0.00  0.00    +0.070 C 
ATOM     14  C   UNL     1      -0.895   5.462  24.990  0.00  0.00    +0.009 C 
ATOM     15  C   UNL     1      -1.033   4.334  25.253  0.00  0.00    +0.009 C 
ATOM     16  C   UNL     1      -2.047   5.623  25.076  0.00  0.00    +0.009 C 
ENDBRANCH  11  13
ENDBRANCH   7   8
ENDBRANCH   6   7
BRANCH  20  21
ATOM     21  C   UNL     1      -3.317   0.358  23.475  0.00  0.00    +0.076 C 
BRANCH  21  22
ATOM     22  N   UNL     1      -3.387  -0.333  23.922  0.00  0.00    -0.272 NA
ATOM     23  C   UNL     1      -2.793  -0.540  24.455  0.00  0.00    +0.072 C 
ATOM     24  C   UNL     1      -2.863  -1.231  24.902  0.00  0.00    +0.020 C 
ATOM     25  C   UNL     1      -3.527  -1.713  24.815  0.00  0.00    +0.036 C 
ATOM     28  C   UNL     1      -4.121  -1.504  24.281  0.00  0.00    +0.020 C 
ATOM     29  C   UNL     1      -4.050  -0.814  23.835  0.00  0.00    +0.072 C 
BRANCH  25  26
ATOM     26  C   UNL     1      -3.597  -2.402  25.261  0.00  0.00    +0.182 C 
ATOM     27  O   UNL     1      -3.623  -3.137  24.885  0.00  0.00    -0.220 OA
ENDBRANCH  25  26
ENDBRANCH  21  22
ENDBRANCH  20  21
TORSDOF 7
ENDMDL
MODEL 4
REMARK VINA RESULT:     -11.3      1.516      5.436
REMARK  Name = 
REMARK  7 active torsions:
REMARK  status: ('A' for Active; 'I' for Inactive)
REMARK    1  A    between atoms: C_2  and  C_4
REMARK    2  A    between atoms: C_6  and  C_7
REMARK    3  A    between atoms: C_7  and  C_8
REMARK    4  A    between atoms: C_11  and  C_13
REMARK    5  A    between atoms: C_20  and  C_21
REMARK    6  A    between atoms: C_21  and  N_22
REMARK    7  A    between atoms: C_25  and  C_26
REMARK                            x       y       z     vdW  Elec       q    Type
REMARK                         _______ _______ _______ _____ _____    ______ ____
ROOT
ATOM      4  C   UNL     1      -1.592   0.885  24.689  0.00  0.00    +0.006 C 
ATOM      5  C   UNL     1      -2.234   0.459  24.395  0.00  0.00    +0.005 C 
ATOM      6  C   UNL     1      -2.918   0.856  24.156  0.00  0.00    +0.027 C 
ATOM     17  C   UNL     1      -2.958   1.678  24.211  0.00  0.00    -0.048 C 
ATOM     18  C   UNL     1      -3.640   2.074  23.972  0.00  0.00    +0.026 C 
ATOM     19  C   UNL     1      -2.315   2.103  24.505  0.00  0.00    -0.034 C 
ATOM     20  C   UNL     1      -1.632   1.707  24.744  0.00  0.00    +0.037 C 
ENDROOT
BRANCH   4   2
ATOM      1  C   UNL     1      -0.321   0.312  24.376  0.00  0.00    +0.000 C 
ATOM      2  C   UNL     1      -0.910   0.488  24.928  0.00  0.00    +0.000 C 
ATOM      3  C   UNL     1      -0.816   0.266  25.716  0.00  0.00    +0.000 C 
ENDBRANCH   4   2
BRANCH   6   7
ATOM      7  C   UNL     1      -3.560   0.430  23.861  0.00  0.00    +0.091 C 
BRANCH   7   8
ATOM      8  C   UNL     1      -3.766  -0.292  24.201  0.00  0.00    +0.226 A 
ATOM      9  N   UNL     1      -4.213  -0.395  24.887  0.00  0.00    -0.112 NA
ATOM     10  N   UNL     1      -4.286  -1.205  25.025  0.00  0.00    -0.112 NA
ATOM     11  C   UNL     1      -3.884  -1.603  24.424  0.00  0.00    +0.225 A 
ATOM     12  O   UNL     1      -3.563  -1.038  23.915  0.00  0.00    -0.423 OA
BRANCH  11  13
ATOM     13  C   UNL     1      -3.815  -2.421  24.345  0.00  0.00    +0.070 C 
ATOM     14  C   UNL     1      -3.747  -3.240  24.266  0.00  0.00    +0.009 C 
ATOM     15  C   UNL     1      -4.254  -2.391  23.647  0.00  0.00    +0.009 C 
ATOM     16  C   UNL     1      -3.377  -2.452  25.043  0.00  0.00    +0.009 C 
ENDBRANCH  11  13
ENDBRANCH   7   8
ENDBRANCH   6   7
BRANCH  20  21
ATOM     21  C   UNL     1      -0.990   2.132  25.039  0.00  0.00    +0.076 C 
BRANCH  21  22
ATOM     22  N   UNL     1      -1.004   2.958  25.033  0.00  0.00    -0.272 NA
ATOM     23  C   UNL     1      -0.681   3.371  24.395  0.00  0.00    +0.072 C 
ATOM     24  C   UNL     1      -0.695   4.196  24.390  0.00  0.00    +0.020 C 
ATOM     25  C   UNL     1      -1.032   4.608  25.021  0.00  0.00    +0.036 C 
ATOM     28  C   UNL     1      -1.354   4.193  25.658  0.00  0.00    +0.020 C 
ATOM     29  C   UNL     1      -1.340   3.369  25.663  0.00  0.00    +0.072 C 
BRANCH  25  26
ATOM     26  C   UNL     1      -1.046   5.431  25.015  0.00  0.00    +0.182 C 
ATOM     27  O   UNL     1      -1.765   5.833  25.076  0.00  0.00    -0.220 OA
ENDBRANCH  25  26
ENDBRANCH  21  22
ENDBRANCH  20  21
TORSDOF 7
ENDMDL
MODEL 5
REMARK VINA RESULT:     -10.8      1.890      3.379
REMARK  Name = 
REMARK  7 active torsions:
REMARK  status: ('A' for Active; 'I' for Inactive)
REMARK    1  A    between atoms: C_2  and  C_4
REMARK    2  A    between atoms: C_6  and  C_7
REMARK    3  A    between atoms: C_7  and  C_8
REMARK    4  A    between atoms: C_11  and  C_13
REMARK    5  A    between atoms: C_20  and  C_21
REMARK    6  A    between atoms: C_21  and  N_22
REMARK    7  A    between atoms: C_25  and  C_26
REMARK                            x       y       z     vdW  Elec       q    Type
REMARK                         _______ _______ _______ _____ _____    ______ ____
ROOT
ATOM      4  C   UNL     1      -1.570   2.400  24.666  0.00  0.00    +0.006 C 
ATOM      5  C   UNL     1      -2.259   2.760  24.390  0.00  0.00    +0.005 C 
ATOM      6  C   UNL     1      -2.764   2.348  23.883  0.00  0.00    +0.027 C 
ATOM     17  C   UNL     1      -2.580   1.578  23.653  0.00  0.00    -0.048 C 
ATOM     18  C   UNL     1      -3.085   1.167  23.147  0.00  0.00    +0.026 C 
ATOM     19  C   UNL     1      -1.890   1.219  23.930  0.00  0.00    -0.034 C 
ATOM     20  C   UNL     1      -1.385   1.630  24.436  0.00  0.00    +0.037 C 
ENDROOT
BRANCH   4   2
ATOM      1  C   UNL     1      -0.404   3.202  24.868  0.00  0.00    +0.000 C 
ATOM      2  C   UNL     1      -1.065   2.812  25.172  0.00  0.00    +0.000 C 
ATOM      3  C   UNL     1      -1.221   2.834  25.981  0.00  0.00    +0.000 C 
ENDBRANCH   4   2
BRANCH   6   7
ATOM      7  C   UNL     1      -3.453   2.708  23.608  0.00  0.00    +0.091 C 
BRANCH   7   8
ATOM      8  C   UNL     1      -4.046   2.926  24.137  0.00  0.00    +0.226 A 
ATOM      9  N   UNL     1      -4.249   3.698  24.348  0.00  0.00    -0.112 NA
ATOM     10  N   UNL     1      -4.869   3.659  24.891  0.00  0.00    -0.112 NA
ATOM     11  C   UNL     1      -5.048   2.864  25.017  0.00  0.00    +0.225 A 
ATOM     12  O   UNL     1      -4.539   2.411  24.551  0.00  0.00    -0.423 OA
BRANCH  11  13
ATOM     13  C   UNL     1      -5.633   2.572  25.520  0.00  0.00    +0.070 C 
ATOM     14  C   UNL     1      -6.219   2.281  26.023  0.00  0.00    +0.009 C 
ATOM     15  C   UNL     1      -5.346   3.047  26.130  0.00  0.00    +0.009 C 
ATOM     16  C   UNL     1      -5.922   2.097  24.910  0.00  0.00    +0.009 C 
ENDBRANCH  11  13
ENDBRANCH   7   8
ENDBRANCH   6   7
BRANCH  20  21
ATOM     21  C   UNL     1      -0.696   1.271  24.712  0.00  0.00    +0.076 C 
BRANCH  21  22
ATOM     22  N   UNL     1      -0.662   0.449  24.791  0.00  0.00    -0.272 NA
ATOM     23  C   UNL     1      -0.290  -0.005  24.212  0.00  0.00    +0.072 C 
ATOM     24  C   UNL     1      -0.255  -0.826  24.291  0.00  0.00    +0.020 C 
ATOM     25  C   UNL     1      -0.594  -1.191  24.950  0.00  0.00    +0.036 C 
ATOM     28  C   UNL     1      -0.966  -0.736  25.528  0.00  0.00    +0.020 C 
ATOM     29  C   UNL     1      -1.000   0.085  25.449  0.00  0.00    +0.072 C 
BRANCH  25  26
ATOM     26  C   UNL     1      -0.559  -2.011  25.029  0.00  0.00    +0.182 C 
ATOM     27  O   UNL     1      -1.235  -2.467  24.897  0.00  0.00    -0.220 OA
ENDBRANCH  25  26
ENDBRANCH  21  22
ENDBRANCH  20  21
TORSDOF 7
ENDMDL
