MODEL 1
REMARK VINA RESULT:     -11.7      0.000      0.000
REMARK  Name = 
REMARK  6 active torsions:
REMARK  status: ('A' for Active; 'I' for Inactive)
REMARK    1  A    between atoms: N_2  and  C_4
REMARK    2  A    between atoms: C_7  and  C_10
REMARK    3  A    between atoms: N_12  and  C_13
REMARK    4  A    between atoms: C_13  and  C_14
REMARK    5  A    between atoms: C_21  and  C_22
REMARK    6  A    between atoms: C_22  and  N_23
REMARK                            x       y       z     vdW  Elec       q    Type
REMARK                         _______ _______ _______ _____ _____    ______ ____
ROOT
ATOM     14  C   UNL     1       0.138   0.262  23.538  0.00  0.00    +0.079 C 
ATOM     15  C   UNL     1      -0.255   0.087  24.186  0.00  0.00    +0.018 C 
ATOM     16  C   UNL     1      -0.863   0.521  24.500  0.00  0.00    +0.005 C 
ATOM     17  C   UNL     1      -1.184   0.151  25.252  0.00  0.00    +0.017 C 
ATOM     18  C   UNL     1      -0.792   0.197  24.730  0.00  0.00    +0.072 C 
ATOM     19  N   UNL     1      -0.482   0.698  23.864  0.00  0.00    -0.272 NA
ATOM     20  C   UNL     1      -0.889   1.472  23.602  0.00  0.00    +0.073 C 
ATOM     21  C   UNL     1      -1.250   1.265  24.242  0.00  0.00    +0.032 C 
ENDROOT
BRANCH  14  13
ATOM     13  C   UNL     1       0.719   0.122  22.969  0.00  0.00    +0.131 C 
BRANCH  13  12
ATOM     10  C   UNL     1       2.098   0.048  22.602  0.00  0.00    +0.265 C 
ATOM     11  O   UNL     1       1.882  -0.084  21.818  0.00  0.00    -0.268 OA
ATOM     12  N   UNL     1       1.516   0.151  23.179  0.00  0.00    -0.200 NA
BRANCH  10   7
ATOM      4  C   UNL     1       4.490   0.137  23.229  0.00  0.00    +0.048 A 
ATOM      5  C   UNL     1       4.052  -0.547  23.371  0.00  0.00    +0.015 A 
ATOM      6  C   UNL     1       3.254  -0.576  23.162  0.00  0.00    +0.006 A 
ATOM      7  C   UNL     1       2.895   0.078  22.811  0.00  0.00    +0.055 A 
ATOM      8  C   UNL     1       3.334   0.762  22.670  0.00  0.00    +0.006 A 
ATOM      9  C   UNL     1       4.131   0.792  22.879  0.00  0.00    +0.015 A 
BRANCH   4   2
ATOM      1  C   UNL     1       5.520   0.566  24.122  0.00  0.00    +0.112 C 
ATOM      2  N   UNL     1       5.288   0.167  23.439  0.00  0.00    -0.304 N 
ATOM      3  C   UNL     1       5.852  -0.202  22.965  0.00  0.00    +0.112 C 
ENDBRANCH   4   2
ENDBRANCH  10   7
ENDBRANCH  13  12
ENDBRANCH  14  13
BRANCH  21  22
ATOM     22  C   UNL     1      -1.872   1.659  24.613  0.00  0.00    +0.073 C 
BRANCH  22  23
ATOM     23  N   UNL     1      -1.732   2.366  25.014  0.00  0.00    -0.272 NA
ATOM     24  C   UNL     1      -1.307   2.966  25.410  0.00  0.00    +0.074 C 
ATOM     25  C   UNL     1      -2.047   3.590  25.610  0.00  0.00    +0.039 C 
ATOM     26  C   UNL     1      -2.534   4.198  25.847  0.00  0.00    +0.011 C 
ATOM     27  C   UNL     1      -2.595   3.585  25.510  0.00  0.00    +0.054 C 
ATOM     28  C   UNL     1      -1.869   2.993  25.324  0.00  0.00    +0.078 C 
ATOM     29  C   UNL     1      -3.219   3.041  25.110  0.00  0.00    +0.041 A 
ATOM     30  C   UNL     1      -4.026   3.005  24.946  0.00  0.00    +0.013 A 
ATOM     31  C   UNL     1      -4.337   2.355  24.545  0.00  0.00    +0.006 A 
ATOM     32  C   UNL     1      -3.840   1.741  24.306  0.00  0.00    +0.061 A 
ATOM     33  C   UNL     1      -3.032   1.777  24.469  0.00  0.00    +0.261 A 
ATOM     34  O   UNL     1      -2.535   1.163  24.231  0.00  0.00    -0.267 OA
ATOM     35  N   UNL     1      -2.721   2.427  24.871  0.00  0.00    -0.299 N 
ATOM     36  C   UNL     1      -2.691   3.015  25.190  0.00  0.00    +0.110 C 
ENDBRANCH  22  23
ENDBRANCH  21  22
TORSDOF 6
ENDMDL
MODEL 2
REMARK VINA RESULT:     -11.5      0.722      1.541
REMARK  Name = 
REMARK  6 active torsions:
REMARK  status: ('A' for Active; 'I' for Inactive)
REMARK    1  A    between atoms: N_2  and  C_4
REMARK    2  A    between atoms: C_7  and  C_10
REMARK    3  A    between atoms: N_12  and  C_13
REMARK    4  A    between atoms: C_13  and  C_14
REMARK    5  A    between atoms: C_21  and  C_22
REMARK    6  A    between atoms: C_22  and  N_23
REMARK                            x       y       z     vdW  Elec       q    Type
REMARK                         _______ _______ _______ _____ _____    ______ ____
ROOT
ATOM     14  C   UNL     1       0.027   0.588  23.734  0.00  0.00    +0.079 C 
ATOM     15  C   UNL     1      -0.185   0.707  24.474  0.00  0.00    +0.018 C 
ATOM     16  C   UNL     1      -0.892   1.018  24.717  0.00  0.00    +0.005 C 
ATOM     17  C   UNL     1      -0.942   1.074  25.611  0.00  0.00    +0.017 C 
ATOM     18  C   UNL     1      -0.661   0.932  25.038  0.00  0.00    +0.072 C 
ATOM     19  N   UNL     1      -0.691   0.904  23.991  0.00  0.00    -0.272 NA
ATOM     20  C   UNL     1      -1.426   1.199  23.536  0.00  0.00    +0.073 C 
ATOM     21  C   UNL     1      -1.595   1.300  24.274  0.00  0.00    +0.032 C 
ENDROOT
BRANCH  14  13
ATOM     13  C   UNL     1       0.555   0.340  23.152  0.00  0.00    +0.131 C 
BRANCH  13  12
ATOM     10  C   UNL     1       1.896   0.122  22.708  0.00  0.00    +0.265 C 
ATOM     11  O   UNL     1       1.613  -0.129  21.975  0.00  0.00    -0.268 OA
ATOM     12  N   UNL     1       1.368   0.357  23.296  0.00  0.00    -0.200 NA
BRANCH  10   7
ATOM      4  C   UNL     1       4.332   0.171  23.142  0.00  0.00    +0.048 A 
ATOM      5  C   UNL     1       3.899  -0.514  23.297  0.00  0.00    +0.015 A 
ATOM      6  C   UNL     1       3.087  -0.530  23.152  0.00  0.00    +0.006 A 
ATOM      7  C   UNL     1       2.708   0.138  22.853  0.00  0.00    +0.055 A 
ATOM      8  C   UNL     1       3.141   0.823  22.698  0.00  0.00    +0.006 A 
ATOM      9  C   UNL     1       3.953   0.840  22.843  0.00  0.00    +0.015 A 
BRANCH   4   2
ATOM      1  C   UNL     1       5.663  -0.184  22.765  0.00  0.00    +0.112 C 
ATOM      2  N   UNL     1       5.144   0.188  23.287  0.00  0.00    -0.304 N 
ATOM      3  C   UNL     1       5.436   0.575  23.954  0.00  0.00    +0.112 C 
ENDBRANCH   4   2
ENDBRANCH  10   7
ENDBRANCH  13  12
ENDBRANCH  14  13
BRANCH  21  22
ATOM     22  C   UNL     1      -2.292   1.609  24.587  0.00  0.00    +0.073 C 
BRANCH  22  23
ATOM     23  N   UNL     1      -2.981   1.153  24.590  0.00  0.00    -0.272 NA
ATOM     24  C   UNL     1      -3.466   0.476  24.542  0.00  0.00    +0.074 C 
ATOM     25  C   UNL     1      -4.350   0.895  24.686  0.00  0.00    +0.039 C 
ATOM     26  C   UNL     1      -5.136   1.081  24.788  0.00  0.00    +0.011 C 
ATOM     27  C   UNL     1      -4.520   1.418  24.775  0.00  0.00    +0.054 C 
ATOM     28  C   UNL     1      -3.674   0.998  24.635  0.00  0.00    +0.078 C 
ATOM     29  C   UNL     1      -4.156   2.258  24.857  0.00  0.00    +0.041 A 
ATOM     30  C   UNL     1      -4.377   3.041  24.988  0.00  0.00    +0.013 A 
ATOM     31  C   UNL     1      -3.803   3.633  25.015  0.00  0.00    +0.006 A 
ATOM     32  C   UNL     1      -3.007   3.440  24.912  0.00  0.00    +0.061 A 
ATOM     33  C   UNL     1      -2.786   2.656  24.781  0.00  0.00    +0.261 A 
ATOM     34  O   UNL     1      -1.990   2.464  24.677  0.00  0.00    -0.267 OA
ATOM     35  N   UNL     1      -3.361   2.065  24.754  0.00  0.00    -0.299 N 
ATOM     36  C   UNL     1      -3.960   1.768  24.770  0.00  0.00    +0.110 C 
ENDBRANCH  22  23
ENDBRANCH  21  22
TORSDOF 6
ENDMDL
MODEL 3
REMARK VINA RESULT:     -11.4      1.368      2.170
REMARK  Name = 
REMARK  6 active torsions:
REMARK  status: ('A' for Active; 'I' for Inactive)
REMARK    1  A    between atoms: N_2  and  C_4
REMARK    2  A    between atoms: C_7  and  C_10
REMARK    3  A    between atoms: N_12  and  C_13
REMARK    4  A    between atoms: C_13  and  C_14
REMARK    5  A    between atoms: C_21  and  C_22
REMARK    6  A    between atoms: C_22  and  N_23
REMARK                            x       y       z     vdW  Elec       q    Type
REMARK                         _______ _______ _______ _____ _____    ______ ____
ROOT
ATOM     14  C   UNL     1       0.411   0.598  23.506  0.00  0.00    +0.079 C 
ATOM     15  C   UNL     1       0.143   1.000  24.117  0.00  0.00    +0.018 C 
ATOM     16  C   UNL     1      -0.594   0.923  24.444  0.00  0.00    +0.005 C 
ATOM     17  C   UNL     1      -0.708   1.475  25.141  0.00  0.00    +0.017 C 
ATOM     18  C   UNL     1      -0.382   1.202  24.645  0.00  0.00    +0.072 C 
ATOM     19  N   UNL     1      -0.338   0.527  23.845  0.00  0.00    -0.272 NA
ATOM     20  C   UNL     1      -1.053  -0.002  23.641  0.00  0.00    +0.073 C 
ATOM     21  C   UNL     1      -1.278   0.411  24.242  0.00  0.00    +0.032 C 
ENDROOT
BRANCH  14  13
ATOM     13  C   UNL     1       0.989   0.400  22.953  0.00  0.00    +0.131 C 
BRANCH  13  12
ATOM     10  C   UNL     1       2.361   0.165  22.626  0.00  0.00    +0.265 C 
ATOM     11  O   UNL     1       2.142  -0.041  21.858  0.00  0.00    -0.268 OA
ATOM     12  N   UNL     1       1.784   0.385  23.174  0.00  0.00    -0.200 NA
BRANCH  10   7
ATOM      4  C   UNL     1       4.744   0.121  23.290  0.00  0.00    +0.048 A 
ATOM      5  C   UNL     1       4.270  -0.542  23.413  0.00  0.00    +0.015 A 
ATOM      6  C   UNL     1       3.475  -0.527  23.192  0.00  0.00    +0.006 A 
ATOM      7  C   UNL     1       3.155   0.150  22.848  0.00  0.00    +0.055 A 
ATOM      8  C   UNL     1       3.630   0.814  22.725  0.00  0.00    +0.006 A 
ATOM      9  C   UNL     1       4.425   0.799  22.946  0.00  0.00    +0.015 A 
BRANCH   4   2
ATOM      1  C   UNL     1       6.096  -0.260  23.025  0.00  0.00    +0.112 C 
ATOM      2  N   UNL     1       5.539   0.107  23.511  0.00  0.00    -0.304 N 
ATOM      3  C   UNL     1       5.777   0.458  24.218  0.00  0.00    +0.112 C 
ENDBRANCH   4   2
ENDBRANCH  10   7
ENDBRANCH  13  12
ENDBRANCH  14  13
BRANCH  21  22
ATOM     22  C   UNL     1      -2.009   0.383  24.621  0.00  0.00    +0.073 C 
BRANCH  22  23
ATOM     23  N   UNL     1      -2.218  -0.280  25.067  0.00  0.00    -0.272 NA
ATOM     24  C   UNL     1      -2.124  -0.987  25.501  0.00  0.00    +0.074 C 
ATOM     25  C   UNL     1      -3.068  -1.163  25.736  0.00  0.00    +0.039 C 
ATOM     26  C   UNL     1      -3.782  -1.446  26.007  0.00  0.00    +0.011 C 
ATOM     27  C   UNL     1      -3.548  -0.900  25.632  0.00  0.00    +0.054 C 
ATOM     28  C   UNL     1      -2.632  -0.744  25.414  0.00  0.00    +0.078 C 
ATOM     29  C   UNL     1      -3.842  -0.147  25.195  0.00  0.00    +0.041 A 
ATOM     30  C   UNL     1      -4.536   0.265  25.025  0.00  0.00    +0.013 A 
ATOM     31  C   UNL     1      -4.505   0.960  24.582  0.00  0.00    +0.006 A 
ATOM     32  C   UNL     1      -3.780   1.243  24.308  0.00  0.00    +0.061 A 
ATOM     33  C   UNL     1      -3.086   0.831  24.478  0.00  0.00    +0.261 A 
ATOM     34  O   UNL     1      -2.360   1.114  24.205  0.00  0.00    -0.267 OA
ATOM     35  N   UNL     1      -3.117   0.136  24.921  0.00  0.00    -0.299 N 
ATOM     36  C   UNL     1      -3.365  -0.375  25.276  0.00  0.00    +0.110 C 
ENDBRANCH  22  23
ENDBRANCH  21  22
TORSDOF 6
ENDMDL
MODEL 4
REMARK VINA RESULT:     -10.8      1.369      2.572
REMARK  Name = 
REMARK  6 active torsions:
REMARK  status: ('A' for Active; 'I' for Inactive)
REMARK    1  A    between atoms: N_2  and  C_4
REMARK    2  A    between atoms: C_7  and  C_10
REMARK    3  A    between atoms: N_12  and  C_13
REMARK    4  A    between atoms: C_13  and  C_14
REMARK    5  A    between atoms: C_21  and  C_22
REMARK    6  A    between atoms: C_22  and  N_23
REMARK                            x       y       z     vdW  Elec       q    Type
REMARK                         _______ _______ _______ _____ _____    ______ ____
ROOT
ATOM     14  C   UNL     1      -1.511   0.835  23.741  0.00  0.00    +0.079 C 
ATOM     15  C   UNL     1      -1.924   1.333  23.308  0.00  0.00    +0.018 C 
ATOM     16  C   UNL     1      -2.593   1.722  23.547  0.00  0.00    +0.005 C 
ATOM     17  C   UNL     1      -2.920   2.251  22.901  0.00  0.00    +0.017 C 
ATOM     18  C   UNL     1      -2.502   1.824  23.167  0.00  0.00    +0.072 C 
ATOM     19  N   UNL     1      -2.194   1.236  23.976  0.00  0.00    -0.272 NA
ATOM     20  C   UNL     1      -2.663   1.235  24.759  0.00  0.00    +0.073 C 
ATOM     21  C   UNL     1      -3.039   1.717  24.303  0.00  0.00    +0.032 C 
ENDROOT
BRANCH  14  13
ATOM     13  C   UNL     1      -0.884   0.314  23.867  0.00  0.00    +0.131 C 
BRANCH  13  12
ATOM     10  C   UNL     1       0.461  -0.081  23.593  0.00  0.00    +0.265 C 
ATOM     11  O   UNL     1       0.317  -0.814  23.941  0.00  0.00    -0.268 OA
ATOM     12  N   UNL     1      -0.139   0.484  23.556  0.00  0.00    -0.200 NA
BRANCH  10   7
ATOM      4  C   UNL     1       2.697   0.427  22.661  0.00  0.00    +0.048 A 
ATOM      5  C   UNL     1       2.387   0.893  23.267  0.00  0.00    +0.015 A 
ATOM      6  C   UNL     1       1.642   0.724  23.578  0.00  0.00    +0.006 A 
ATOM      7  C   UNL     1       1.207   0.089  23.282  0.00  0.00    +0.055 A 
ATOM      8  C   UNL     1       1.516  -0.377  22.676  0.00  0.00    +0.006 A 
ATOM      9  C   UNL     1       2.262  -0.208  22.366  0.00  0.00    +0.015 A 
BRANCH   4   2
ATOM      1  C   UNL     1       3.594   0.467  21.550  0.00  0.00    +0.112 C 
ATOM      2  N   UNL     1       3.442   0.596  22.350  0.00  0.00    -0.304 N 
ATOM      3  C   UNL     1       4.035   0.895  22.839  0.00  0.00    +0.112 C 
ENDBRANCH   4   2
ENDBRANCH  10   7
ENDBRANCH  13  12
ENDBRANCH  14  13
BRANCH  21  22
ATOM     22  C   UNL     1      -3.722   2.143  24.482  0.00  0.00    +0.073 C 
BRANCH  22  23
ATOM     23  N   UNL     1      -4.436   1.746  24.606  0.00  0.00    -0.272 NA
ATOM     24  C   UNL     1      -4.995   1.126  24.590  0.00  0.00    +0.074 C 
ATOM     25  C   UNL     1      -5.752   1.574  25.039  0.00  0.00    +0.039 C 
ATOM     26  C   UNL     1      -6.456   1.796  25.385  0.00  0.00    +0.011 C 
ATOM     27  C   UNL     1      -5.829   2.083  25.254  0.00  0.00    +0.054 C 
ATOM     28  C   UNL     1      -5.106   1.636  24.818  0.00  0.00    +0.078 C 
ATOM     29  C   UNL     1      -5.357   2.864  25.363  0.00  0.00    +0.041 A 
ATOM     30  C   UNL     1      -5.440   3.624  25.673  0.00  0.00    +0.013 A 
ATOM     31  C   UNL     1      -4.811   4.157  25.631  0.00  0.00    +0.006 A 
ATOM     32  C   UNL     1      -4.100   3.930  25.279  0.00  0.00    +0.061 A 
ATOM     33  C   UNL     1      -4.018   3.170  24.970  0.00  0.00    +0.261 A 
ATOM     34  O   UNL     1      -3.307   2.942  24.618  0.00  0.00    -0.267 OA
ATOM     35  N   UNL     1      -4.646   2.637  25.012  0.00  0.00    -0.299 N 
ATOM     36  C   UNL     1      -5.252   2.387  25.148  0.00  0.00    +0.110 C 
ENDBRANCH  22  23
ENDBRANCH  21  22
TORSDOF 6
ENDMDL
