MODEL 1
REMARK VINA RESULT:      -9.2      0.000      0.000
REMARK  Name = 
REMARK  5 active torsions:
REMARK  status: ('A' for Active; 'I' for Inactive)
REMARK    1  A    between atoms: C_2  and  N_4
REMARK    2  A    between atoms: N_7  and  C_8
REMARK    3  A    between atoms: C_8  and  C_9
REMARK    4  A    between atoms: C_12  and  N_13
REMARK    5  A    between atoms: N_13  and  C_14
REMARK                            x       y       z     vdW  Elec       q    Type
REMARK                         _______ _______ _______ _____ _____    ______ ____
ROOT
ATOM      9  C   UNL     1      -3.267   1.278  24.495  0.00  0.00    +0.169 C 
ATOM     10  O   UNL     1      -2.683   0.759  24.231  0.00  0.00    -0.350 OA
ATOM     11  C   UNL     1      -3.000  -0.003  24.230  0.00  0.00    +0.162 C 
ATOM     12  C   UNL     1      -3.780   0.046  24.494  0.00  0.00    +0.135 C 
ATOM     19  C   UNL     1      -3.946   0.837  24.657  0.00  0.00    +0.199 C 
ATOM     20  O   UNL     1      -4.663   1.135  24.934  0.00  0.00    -0.219 OA
ENDROOT
BRANCH   9   8
ATOM      8  C   UNL     1      -3.188   2.095  24.581  0.00  0.00    +0.149 C 
BRANCH   8   7
ATOM      4  N   UNL     1      -1.693   3.533  25.262  0.00  0.00    -0.189 NA
ATOM      5  C   UNL     1      -2.370   3.220  24.907  0.00  0.00    +0.339 C 
ATOM      6  O   UNL     1      -2.904   3.719  24.525  0.00  0.00    -0.249 OA
ATOM      7  N   UNL     1      -2.511   2.408  24.935  0.00  0.00    -0.185 NA
BRANCH   4   2
ATOM      1  C   UNL     1      -0.900   4.636  24.820  0.00  0.00    +0.023 C 
ATOM      2  C   UNL     1      -1.552   4.345  25.234  0.00  0.00    +0.097 C 
ATOM      3  C   UNL     1      -2.063   4.867  25.618  0.00  0.00    +0.023 C 
ENDBRANCH   4   2
ENDBRANCH   8   7
ENDBRANCH   9   8
BRANCH  12  13
ATOM     13  N   UNL     1      -4.304  -0.587  24.579  0.00  0.00    -0.216 NA
BRANCH  13  14
ATOM     14  C   UNL     1      -4.018  -1.361  24.572  0.00  0.00    +0.073 C 
ATOM     15  C   UNL     1      -4.077  -1.893  23.944  0.00  0.00    +0.017 C 
ATOM     16  C   UNL     1      -3.719  -2.600  24.175  0.00  0.00    +0.001 C 
ATOM     17  C   UNL     1      -3.440  -2.504  24.945  0.00  0.00    +0.001 C 
ATOM     18  C   UNL     1      -3.625  -1.739  25.190  0.00  0.00    +0.017 C 
ENDBRANCH  13  14
ENDBRANCH  12  13
TORSDOF 5
ENDMDL
MODEL 2
REMARK VINA RESULT:      -8.9      1.156      5.257
REMARK  Name = 
REMARK  5 active torsions:
REMARK  status: ('A' for Active; 'I' for Inactive)
REMARK    1  A    between atoms: C_2  and  N_4
REMARK    2  A    between atoms: N_7  and  C_8
REMARK    3  A    between atoms: C_8  and  C_9
REMARK    4  A    between atoms: C_12  and  N_13
REMARK    5  A    between atoms: N_13  and  C_14
REMARK                            x       y       z     vdW  Elec       q    Type
REMARK                         _______ _______ _______ _____ _____    ______ ____
ROOT
ATOM      9  C   UNL     1      -2.036   1.214  24.936  0.00  0.00    +0.169 C 
ATOM     10  O   UNL     1      -2.571   1.786  24.677  0.00  0.00    -0.350 OA
ATOM     11  C   UNL     1      -2.291   2.525  24.916  0.00  0.00    +0.162 C 
ATOM     12  C   UNL     1      -1.582   2.408  25.323  0.00  0.00    +0.135 C 
ATOM     19  C   UNL     1      -1.425   1.599  25.336  0.00  0.00    +0.199 C 
ATOM     20  O   UNL     1      -0.771   1.238  25.686  0.00  0.00    -0.219 OA
ENDROOT
BRANCH   9   8
ATOM      8  C   UNL     1      -2.100   0.400  24.818  0.00  0.00    +0.149 C 
BRANCH   8   7
ATOM      4  N   UNL     1      -3.651  -1.136  24.771  0.00  0.00    -0.189 NA
ATOM      5  C   UNL     1      -2.920  -0.763  24.685  0.00  0.00    +0.339 C 
ATOM      6  O   UNL     1      -2.276  -1.182  24.383  0.00  0.00    -0.249 OA
ATOM      7  N   UNL     1      -2.832   0.028  24.903  0.00  0.00    -0.185 NA
BRANCH   4   2
ATOM      1  C   UNL     1      -4.116  -2.119  23.845  0.00  0.00    +0.023 C 
ATOM      2  C   UNL     1      -3.739  -1.927  24.553  0.00  0.00    +0.097 C 
ATOM      3  C   UNL     1      -3.449  -2.524  25.042  0.00  0.00    +0.023 C 
ENDBRANCH   4   2
ENDBRANCH   8   7
ENDBRANCH   9   8
BRANCH  12  13
ATOM     13  N   UNL     1      -1.114   3.000  25.658  0.00  0.00    -0.216 NA
BRANCH  13  14
ATOM     14  C   UNL     1      -1.192   3.781  25.404  0.00  0.00    +0.073 C 
ATOM     15  C   UNL     1      -0.686   4.174  24.885  0.00  0.00    +0.017 C 
ATOM     16  C   UNL     1      -0.971   4.942  24.784  0.00  0.00    +0.001 C 
ATOM     17  C   UNL     1      -1.652   5.023  25.241  0.00  0.00    +0.001 C 
ATOM     18  C   UNL     1      -1.789   4.305  25.625  0.00  0.00    +0.017 C 
ENDBRANCH  13  14
ENDBRANCH  12  13
TORSDOF 5
ENDMDL
MODEL 3
REMARK VINA RESULT:      -7.0     16.213     18.815
REMARK  Name = 
REMARK  5 active torsions:
REMARK  status: ('A' for Active; 'I' for Inactive)
REMARK    1  A    between atoms: C_2  and  N_4
REMARK    2  A    between atoms: N_7  and  C_8
REMARK    3  A    between atoms: C_8  and  C_9
REMARK    4  A    between atoms: C_12  and  N_13
REMARK    5  A    between atoms: N_13  and  C_14
REMARK                            x       y       z     vdW  Elec       q    Type
REMARK                         _______ _______ _______ _____ _____    ______ ____
ROOT
ATOM      9  C   UNL     1      13.617   6.981  20.249  0.00  0.00    +0.169 C 
ATOM     10  O   UNL     1      14.100   6.580  20.784  0.00  0.00    -0.350 OA
ATOM     11  C   UNL     1      14.847   6.497  20.444  0.00  0.00    +0.162 C 
ATOM     12  C   UNL     1      14.825   6.847  19.697  0.00  0.00    +0.135 C 
ATOM     19  C   UNL     1      14.066   7.146  19.576  0.00  0.00    +0.199 C 
ATOM     20  O   UNL     1      13.802   7.541  18.901  0.00  0.00    -0.219 OA
ENDROOT
BRANCH   9   8
ATOM      8  C   UNL     1      12.826   7.182  20.364  0.00  0.00    +0.149 C 
BRANCH   8   7
ATOM      4  N   UNL     1      11.472   7.676  22.004  0.00  0.00    -0.189 NA
ATOM      5  C   UNL     1      11.751   7.522  21.242  0.00  0.00    +0.339 C 
ATOM      6  O   UNL     1      11.235   7.554  20.599  0.00  0.00    -0.249 OA
ATOM      7  N   UNL     1      12.546   7.336  21.125  0.00  0.00    -0.185 NA
BRANCH   4   2
ATOM      1  C   UNL     1      10.453   8.645  22.255  0.00  0.00    +0.023 C 
ATOM      2  C   UNL     1      10.677   7.862  22.121  0.00  0.00    +0.097 C 
ATOM      3  C   UNL     1      10.106   7.266  22.104  0.00  0.00    +0.023 C 
ENDBRANCH   4   2
ENDBRANCH   8   7
ENDBRANCH   9   8
BRANCH  12  13
ATOM     13  N   UNL     1      15.454   6.890  19.164  0.00  0.00    -0.216 NA
BRANCH  13  14
ATOM     14  C   UNL     1      16.219   6.706  19.414  0.00  0.00    +0.073 C 
ATOM     15  C   UNL     1      16.684   7.159  19.922  0.00  0.00    +0.017 C 
ATOM     16  C   UNL     1      17.405   6.769  20.022  0.00  0.00    +0.001 C 
ATOM     17  C   UNL     1      17.385   6.077  19.575  0.00  0.00    +0.001 C 
ATOM     18  C   UNL     1      16.651   6.037  19.199  0.00  0.00    +0.017 C 
ENDBRANCH  13  14
ENDBRANCH  12  13
TORSDOF 5
ENDMDL
MODEL 4
REMARK VINA RESULT:      -6.7     17.791     19.521
REMARK  Name = 
REMARK  5 active torsions:
REMARK  status: ('A' for Active; 'I' for Inactive)
REMARK    1  A    between atoms: C_2  and  N_4
REMARK    2  A    between atoms: N_7  and  C_8
REMARK    3  A    between atoms: C_8  and  C_9
REMARK    4  A    between atoms: C_12  and  N_13
REMARK    5  A    between atoms: N_13  and  C_14
REMARK                            x       y       z     vdW  Elec       q    Type
REMARK                         _______ _______ _______ _____ _____    ______ ____
ROOT
ATOM      9  C   UNL     1      13.693   7.514  18.612  0.00  0.00    +0.169 C 
ATOM     10  O   UNL     1      14.357   7.948  18.386  0.00  0.00    -0.350 OA
ATOM     11  C   UNL     1      14.987   7.722  18.868  0.00  0.00    +0.162 C 
ATOM     12  C   UNL     1      14.712   7.146  19.392  0.00  0.00    +0.135 C 
ATOM     19  C   UNL     1      13.913   7.018  19.234  0.00  0.00    +0.199 C 
ATOM     20  O   UNL     1      13.420   6.487  19.629  0.00  0.00    -0.219 OA
ENDROOT
BRANCH   9   8
ATOM      8  C   UNL     1      12.941   7.566  18.276  0.00  0.00    +0.149 C 
BRANCH   8   7
ATOM      4  N   UNL     1      11.827   8.905  16.959  0.00  0.00    -0.189 NA
ATOM      5  C   UNL     1      12.043   8.232  17.386  0.00  0.00    +0.339 C 
ATOM      6  O   UNL     1      11.575   7.553  17.350  0.00  0.00    -0.249 OA
ATOM      7  N   UNL     1      12.726   8.239  17.849  0.00  0.00    -0.185 NA
BRANCH   4   2
ATOM      1  C   UNL     1      10.420   8.695  16.836  0.00  0.00    +0.023 C 
ATOM      2  C   UNL     1      11.145   8.898  16.497  0.00  0.00    +0.097 C 
ATOM      3  C   UNL     1      11.186   9.093  15.696  0.00  0.00    +0.023 C 
ENDBRANCH   4   2
ENDBRANCH   8   7
ENDBRANCH   9   8
BRANCH  12  13
ATOM     13  N   UNL     1      15.159   6.766  19.972  0.00  0.00    -0.216 NA
BRANCH  13  14
ATOM     14  C   UNL     1      15.971   6.666  19.866  0.00  0.00    +0.073 C 
ATOM     15  C   UNL     1      16.566   7.047  20.292  0.00  0.00    +0.017 C 
ATOM     16  C   UNL     1      17.294   6.783  20.005  0.00  0.00    +0.001 C 
ATOM     17  C   UNL     1      17.148   6.240  19.402  0.00  0.00    +0.001 C 
ATOM     18  C   UNL     1      16.331   6.167  19.316  0.00  0.00    +0.017 C 
ENDBRANCH  13  14
ENDBRANCH  12  13
TORSDOF 5
ENDMDL
MODEL 5
REMARK VINA RESULT:      -6.3     17.926     19.533
REMARK  Name = 
REMARK  5 active torsions:
REMARK  status: ('A' for Active; 'I' for Inactive)
REMARK    1  A    between atoms: C_2  and  N_4
REMARK    2  A    between atoms: N_7  and  C_8
REMARK    3  A    between atoms: C_8  and  C_9
REMARK    4  A    between atoms: C_12  and  N_13
REMARK    5  A    between atoms: N_13  and  C_14
REMARK                            x       y       z     vdW  Elec       q    Type
REMARK                         _______ _______ _______ _____ _____    ______ ____
ROOT
ATOM      9  C   UNL     1      13.757   7.598  18.388  0.00  0.00    +0.169 C 
ATOM     10  O   UNL     1      13.843   7.596  17.568  0.00  0.00    -0.350 OA
ATOM     11  C   UNL     1      13.249   8.071  17.247  0.00  0.00    +0.162 C 
ATOM     12  C   UNL     1      12.796   8.367  17.870  0.00  0.00    +0.135 C 
ATOM     19  C   UNL     1      13.110   8.075  18.575  0.00  0.00    +0.199 C 
ATOM     20  O   UNL     1      12.827   8.232  19.334  0.00  0.00    -0.219 OA
ENDROOT
BRANCH   9   8
ATOM      8  C   UNL     1      14.234   7.195  18.927  0.00  0.00    +0.149 C 
BRANCH   8   7
ATOM      4  N   UNL     1      16.361   6.922  19.338  0.00  0.00    -0.189 NA
ATOM      5  C   UNL     1      15.545   6.800  19.338  0.00  0.00    +0.339 C 
ATOM      6  O   UNL     1      15.223   6.163  19.751  0.00  0.00    -0.249 OA
ATOM      7  N   UNL     1      15.051   7.317  18.926  0.00  0.00    -0.185 NA
BRANCH   4   2
ATOM      1  C   UNL     1      17.221   5.782  19.352  0.00  0.00    +0.023 C 
ATOM      2  C   UNL     1      16.855   6.406  19.750  0.00  0.00    +0.097 C 
ATOM      3  C   UNL     1      16.982   6.512  20.558  0.00  0.00    +0.023 C 
ENDBRANCH   4   2
ENDBRANCH   8   7
ENDBRANCH   9   8
BRANCH  12  13
ATOM     13  N   UNL     1      12.144   8.867  17.800  0.00  0.00    -0.216 NA
BRANCH  13  14
ATOM     14  C   UNL     1      11.620   8.775  17.170  0.00  0.00    +0.073 C 
ATOM     15  C   UNL     1      11.710   9.094  16.414  0.00  0.00    +0.017 C 
ATOM     16  C   UNL     1      11.060   8.863  15.961  0.00  0.00    +0.001 C 
ATOM     17  C   UNL     1      10.569   8.403  16.436  0.00  0.00    +0.001 C 
ATOM     18  C   UNL     1      10.915   8.348  17.183  0.00  0.00    +0.017 C 
ENDBRANCH  13  14
ENDBRANCH  12  13
TORSDOF 5
ENDMDL
MODEL 6
REMARK VINA RESULT:      -6.1     15.584     18.302
REMARK  Name = 
REMARK  5 active torsions:
REMARK  status: ('A' for Active; 'I' for Inactive)
REMARK    1  A    between atoms: C_2  and  N_4
REMARK    2  A    between atoms: N_7  and  C_8
REMARK    3  A    between atoms: C_8  and  C_9
REMARK    4  A    between atoms: C_12  and  N_13
REMARK    5  A    between atoms: N_13  and  C_14
REMARK                            x       y       z     vdW  Elec       q    Type
REMARK                         _______ _______ _______ _____ _____    ______ ____
ROOT
ATOM      9  C   UNL     1      12.520   7.317  19.205  0.00  0.00    +0.169 C 
ATOM     10  O   UNL     1      12.083   7.464  18.521  0.00  0.00    -0.350 OA
ATOM     11  C   UNL     1      12.612   7.615  17.907  0.00  0.00    +0.162 C 
ATOM     12  C   UNL     1      13.377   7.561  18.211  0.00  0.00    +0.135 C 
ATOM     19  C   UNL     1      13.320   7.377  19.013  0.00  0.00    +0.199 C 
ATOM     20  O   UNL     1      13.953   7.271  19.532  0.00  0.00    -0.219 OA
ENDROOT
BRANCH   9   8
ATOM      8  C   UNL     1      12.212   7.140  19.950  0.00  0.00    +0.149 C 
BRANCH   8   7
ATOM      4  N   UNL     1      10.689   7.893  21.321  0.00  0.00    -0.189 NA
ATOM      5  C   UNL     1      11.324   7.457  21.023  0.00  0.00    +0.339 C 
ATOM      6  O   UNL     1      11.703   6.902  21.501  0.00  0.00    -0.249 OA
ATOM      7  N   UNL     1      11.578   7.577  20.247  0.00  0.00    -0.185 NA
BRANCH   4   2
ATOM      1  C   UNL     1      10.617   8.328  22.679  0.00  0.00    +0.023 C 
ATOM      2  C   UNL     1      10.435   7.773  22.096  0.00  0.00    +0.097 C 
ATOM      3  C   UNL     1       9.999   7.100  22.289  0.00  0.00    +0.023 C 
ENDBRANCH   4   2
ENDBRANCH   8   7
ENDBRANCH   9   8
BRANCH  12  13
ATOM     13  N   UNL     1      14.076   7.672  17.787  0.00  0.00    -0.216 NA
BRANCH  13  14
ATOM     14  C   UNL     1      14.064   8.089  17.075  0.00  0.00    +0.073 C 
ATOM     15  C   UNL     1      14.052   7.757  16.320  0.00  0.00    +0.017 C 
ATOM     16  C   UNL     1      14.043   8.374  15.771  0.00  0.00    +0.001 C 
ATOM     17  C   UNL     1      14.048   9.085  16.187  0.00  0.00    +0.001 C 
ATOM     18  C   UNL     1      14.062   8.909  16.993  0.00  0.00    +0.017 C 
ENDBRANCH  13  14
ENDBRANCH  12  13
TORSDOF 5
ENDMDL
MODEL 7
REMARK VINA RESULT:      -6.1     15.884     18.072
REMARK  Name = 
REMARK  5 active torsions:
REMARK  status: ('A' for Active; 'I' for Inactive)
REMARK    1  A    between atoms: C_2  and  N_4
REMARK    2  A    between atoms: N_7  and  C_8
REMARK    3  A    between atoms: C_8  and  C_9
REMARK    4  A    between atoms: C_12  and  N_13
REMARK    5  A    between atoms: N_13  and  C_14
REMARK                            x       y       z     vdW  Elec       q    Type
REMARK                         _______ _______ _______ _____ _____    ______ ____
ROOT
ATOM      9  C   UNL     1      12.370   7.736  19.050  0.00  0.00    +0.169 C 
ATOM     10  O   UNL     1      11.695   8.182  19.207  0.00  0.00    -0.350 OA
ATOM     11  C   UNL     1      11.469   8.040  19.988  0.00  0.00    +0.162 C 
ATOM     12  C   UNL     1      12.006   7.505  20.314  0.00  0.00    +0.135 C 
ATOM     19  C   UNL     1      12.563   7.317  19.735  0.00  0.00    +0.199 C 
ATOM     20  O   UNL     1      13.200   6.800  19.824  0.00  0.00    -0.219 OA
ENDROOT
BRANCH   9   8
ATOM      8  C   UNL     1      12.781   7.712  18.336  0.00  0.00    +0.149 C 
BRANCH   8   7
ATOM      4  N   UNL     1      13.343   9.093  16.741  0.00  0.00    -0.189 NA
ATOM      5  C   UNL     1      13.169   8.392  17.140  0.00  0.00    +0.339 C 
ATOM      6  O   UNL     1      13.207   7.670  16.742  0.00  0.00    -0.249 OA
ATOM      7  N   UNL     1      12.956   8.413  17.937  0.00  0.00    -0.185 NA
BRANCH   4   2
ATOM      1  C   UNL     1      14.352   9.032  15.732  0.00  0.00    +0.023 C 
ATOM      2  C   UNL     1      13.556   9.071  15.944  0.00  0.00    +0.097 C 
ATOM      3  C   UNL     1      12.973   9.089  15.360  0.00  0.00    +0.023 C 
ENDBRANCH   4   2
ENDBRANCH   8   7
ENDBRANCH   9   8
BRANCH  12  13
ATOM     13  N   UNL     1      11.988   7.209  21.084  0.00  0.00    -0.216 NA
BRANCH  13  14
ATOM     14  C   UNL     1      11.428   7.491  21.620  0.00  0.00    +0.073 C 
ATOM     15  C   UNL     1      10.713   7.125  21.809  0.00  0.00    +0.017 C 
ATOM     16  C   UNL     1      10.326   7.595  22.367  0.00  0.00    +0.001 C 
ATOM     17  C   UNL     1      10.803   8.249  22.522  0.00  0.00    +0.001 C 
ATOM     18  C   UNL     1      11.483   8.185  22.061  0.00  0.00    +0.017 C 
ENDBRANCH  13  14
ENDBRANCH  12  13
TORSDOF 5
ENDMDL
