MODEL 1
REMARK VINA RESULT:     -13.1      0.000      0.000
REMARK  Name = 
REMARK  6 active torsions:
REMARK  status: ('A' for Active; 'I' for Inactive)
REMARK    1  A    between atoms: C_2  and  C_3
REMARK    2  A    between atoms: C_2  and  C_25
REMARK    3  A    between atoms: C_10  and  N_11
REMARK    4  A    between atoms: C_12  and  C_14
REMARK    5  A    between atoms: N_27  and  C_28
REMARK    6  A    between atoms: C_28  and  C_29
REMARK                            x       y       z     vdW  Elec       q    Type
REMARK                         _______ _______ _______ _____ _____    ______ ____
ROOT
ATOM      3  C   UNL     1      -3.987   3.134  24.567  0.00  0.00    +0.039 C 
ATOM      4  C   UNL     1      -4.611   3.253  25.095  0.00  0.00    +0.003 C 
ATOM      5  C   UNL     1      -5.056   2.611  25.358  0.00  0.00    +0.000 C 
ATOM      6  C   UNL     1      -4.877   1.850  25.096  0.00  0.00    +0.002 C 
ATOM      7  C   UNL     1      -5.500   1.968  25.622  0.00  0.00    +0.000 C 
ATOM      8  C   UNL     1      -5.322   1.207  25.359  0.00  0.00    +0.002 C 
ATOM      9  C   UNL     1      -5.143   0.446  25.096  0.00  0.00    +0.022 C 
ATOM     10  C   UNL     1      -4.519   0.327  24.569  0.00  0.00    +0.096 C 
ATOM     20  C   UNL     1      -4.074   0.970  24.305  0.00  0.00    +0.022 C 
ATOM     21  C   UNL     1      -3.451   0.851  23.779  0.00  0.00    +0.002 C 
ATOM     22  C   UNL     1      -4.253   1.731  24.568  0.00  0.00    +0.032 C 
ATOM     23  C   UNL     1      -3.808   2.374  24.305  0.00  0.00    +0.152 C 
ATOM     24  O   UNL     1      -3.184   2.255  23.778  0.00  0.00    -0.223 OA
ENDROOT
BRANCH  10  11
ATOM     11  N   UNL     1      -4.341  -0.434  24.306  0.00  0.00    -0.203 NA
ATOM     12  C   UNL     1      -4.116  -1.016  24.846  0.00  0.00    +0.265 C 
ATOM     13  O   UNL     1      -4.070  -0.836  25.651  0.00  0.00    -0.268 OA
BRANCH  12  14
ATOM     14  C   UNL     1      -3.938  -1.777  24.583  0.00  0.00    +0.058 A 
ATOM     15  C   UNL     1      -4.310  -2.080  23.913  0.00  0.00    +0.025 A 
ATOM     16  C   UNL     1      -4.132  -2.842  23.650  0.00  0.00    +0.099 A 
ATOM     17  N   UNL     1      -3.581  -3.300  24.059  0.00  0.00    -0.242 NA
ATOM     18  C   UNL     1      -3.208  -2.997  24.730  0.00  0.00    +0.099 A 
ATOM     19  C   UNL     1      -3.387  -2.236  24.992  0.00  0.00    +0.025 A 
ENDBRANCH  12  14
ENDBRANCH  10  11
BRANCH   3   2
ATOM      1  C   UNL     1      -3.712   4.128  23.577  0.00  0.00    +0.010 C 
ATOM      2  C   UNL     1      -3.542   3.778  24.304  0.00  0.00    +0.081 C 
BRANCH   2  25
ATOM     25  C   UNL     1      -2.926   4.070  24.768  0.00  0.00    +0.241 C 
ATOM     26  O   UNL     1      -3.040   4.748  25.226  0.00  0.00    -0.273 OA
ATOM     27  N   UNL     1      -2.195   3.685  24.776  0.00  0.00    -0.199 NA
BRANCH  27  28
ATOM     28  C   UNL     1      -1.580   3.978  25.239  0.00  0.00    +0.160 C 
BRANCH  28  29
ATOM     29  C   UNL     1      -0.948   3.489  25.442  0.00  0.00    +0.081 A 
ATOM     30  N   UNL     1      -0.352   3.334  24.893  0.00  0.00    -0.246 NA
ATOM     31  C   UNL     1       0.280   2.845  25.097  0.00  0.00    +0.099 A 
ATOM     32  C   UNL     1       0.317   2.510  25.850  0.00  0.00    +0.021 A 
ATOM     33  C   UNL     1      -0.279   2.665  26.400  0.00  0.00    +0.003 A 
ATOM     34  C   UNL     1      -0.912   3.155  26.196  0.00  0.00    +0.017 A 
ENDBRANCH  28  29
ENDBRANCH  27  28
ENDBRANCH   2  25
ENDBRANCH   3   2
TORSDOF 6
ENDMDL
MODEL 2
REMARK VINA RESULT:     -12.0      3.047      4.950
REMARK  Name = 
REMARK  6 active torsions:
REMARK  status: ('A' for Active; 'I' for Inactive)
REMARK    1  A    between atoms: C_2  and  C_3
REMARK    2  A    between atoms: C_2  and  C_25
REMARK    3  A    between atoms: C_10  and  N_11
REMARK    4  A    between atoms: C_12  and  C_14
REMARK    5  A    between atoms: N_27  and  C_28
REMARK    6  A    between atoms: C_28  and  C_29
REMARK                            x       y       z     vdW  Elec       q    Type
REMARK                         _______ _______ _______ _____ _____    ______ ____
ROOT
ATOM      3  C   UNL     1      -0.027   0.666  23.973  0.00  0.00    +0.039 C 
ATOM      4  C   UNL     1       0.384   1.380  24.038  0.00  0.00    +0.003 C 
ATOM      5  C   UNL     1      -0.006   2.059  24.294  0.00  0.00    +0.000 C 
ATOM      6  C   UNL     1      -0.807   2.026  24.486  0.00  0.00    +0.002 C 
ATOM      7  C   UNL     1      -0.397   2.738  24.550  0.00  0.00    +0.000 C 
ATOM      8  C   UNL     1      -1.199   2.706  24.743  0.00  0.00    +0.002 C 
ATOM      9  C   UNL     1      -2.000   2.673  24.935  0.00  0.00    +0.022 C 
ATOM     10  C   UNL     1      -2.411   1.960  24.870  0.00  0.00    +0.096 C 
ATOM     20  C   UNL     1      -2.020   1.281  24.614  0.00  0.00    +0.022 C 
ATOM     21  C   UNL     1      -2.431   0.568  24.549  0.00  0.00    +0.002 C 
ATOM     22  C   UNL     1      -1.219   1.313  24.421  0.00  0.00    +0.032 C 
ATOM     23  C   UNL     1      -0.828   0.634  24.165  0.00  0.00    +0.152 C 
ATOM     24  O   UNL     1      -1.239  -0.079  24.101  0.00  0.00    -0.223 OA
ENDROOT
BRANCH  10  11
ATOM     11  N   UNL     1      -3.213   1.928  25.063  0.00  0.00    -0.203 NA
ATOM     12  C   UNL     1      -3.716   2.542  24.841  0.00  0.00    +0.265 C 
ATOM     13  O   UNL     1      -3.417   3.191  24.426  0.00  0.00    -0.268 OA
BRANCH  12  14
ATOM     14  C   UNL     1      -4.518   2.510  25.033  0.00  0.00    +0.058 A 
ATOM     15  C   UNL     1      -5.019   1.996  24.628  0.00  0.00    +0.025 A 
ATOM     16  C   UNL     1      -5.821   1.964  24.821  0.00  0.00    +0.099 A 
ATOM     17  N   UNL     1      -6.121   2.447  25.419  0.00  0.00    -0.242 NA
ATOM     18  C   UNL     1      -5.619   2.962  25.824  0.00  0.00    +0.099 A 
ATOM     19  C   UNL     1      -4.817   2.993  25.631  0.00  0.00    +0.025 A 
ENDBRANCH  12  14
ENDBRANCH  10  11
BRANCH   3   2
ATOM      1  C   UNL     1       0.222  -0.737  24.085  0.00  0.00    +0.010 C 
ATOM      2  C   UNL     1       0.365  -0.013  23.716  0.00  0.00    +0.081 C 
BRANCH   2  25
ATOM     25  C   UNL     1       0.900   0.032  23.090  0.00  0.00    +0.241 C 
ATOM     26  O   UNL     1       0.623   0.066  22.312  0.00  0.00    -0.273 OA
ATOM     27  N   UNL     1       1.711   0.041  23.240  0.00  0.00    -0.199 NA
BRANCH  27  28
ATOM     28  C   UNL     1       2.246   0.086  22.614  0.00  0.00    +0.160 C 
BRANCH  28  29
ATOM     29  C   UNL     1       3.052   0.176  22.765  0.00  0.00    +0.081 A 
ATOM     30  N   UNL     1       3.484  -0.448  23.085  0.00  0.00    -0.246 NA
ATOM     31  C   UNL     1       4.290  -0.357  23.236  0.00  0.00    +0.099 A 
ATOM     32  C   UNL     1       4.664   0.358  23.066  0.00  0.00    +0.021 A 
ATOM     33  C   UNL     1       4.231   0.983  22.745  0.00  0.00    +0.003 A 
ATOM     34  C   UNL     1       3.424   0.892  22.594  0.00  0.00    +0.017 A 
ENDBRANCH  28  29
ENDBRANCH  27  28
ENDBRANCH   2  25
ENDBRANCH   3   2
TORSDOF 6
ENDMDL
MODEL 3
REMARK VINA RESULT:     -11.8      1.453      4.980
REMARK  Name = 
REMARK  6 active torsions:
REMARK  status: ('A' for Active; 'I' for Inactive)
REMARK    1  A    between atoms: C_2  and  C_3
REMARK    2  A    between atoms: C_2  and  C_25
REMARK    3  A    between atoms: C_10  and  N_11
REMARK    4  A    between atoms: C_12  and  C_14
REMARK    5  A    between atoms: N_27  and  C_28
REMARK    6  A    between atoms: C_28  and  C_29
REMARK                            x       y       z     vdW  Elec       q    Type
REMARK                         _______ _______ _______ _____ _____    ______ ____
ROOT
ATOM      3  C   UNL     1      -4.290   0.308  24.541  0.00  0.00    +0.039 C 
ATOM      4  C   UNL     1      -4.972   0.490  24.971  0.00  0.00    +0.003 C 
ATOM      5  C   UNL     1      -5.090   1.256  25.252  0.00  0.00    +0.000 C 
ATOM      6  C   UNL     1      -4.528   1.840  25.105  0.00  0.00    +0.002 C 
ATOM      7  C   UNL     1      -5.208   2.021  25.534  0.00  0.00    +0.000 C 
ATOM      8  C   UNL     1      -4.645   2.607  25.386  0.00  0.00    +0.002 C 
ATOM      9  C   UNL     1      -4.083   3.192  25.239  0.00  0.00    +0.022 C 
ATOM     10  C   UNL     1      -3.402   3.010  24.809  0.00  0.00    +0.096 C 
ATOM     20  C   UNL     1      -3.284   2.244  24.527  0.00  0.00    +0.022 C 
ATOM     21  C   UNL     1      -2.603   2.063  24.098  0.00  0.00    +0.002 C 
ATOM     22  C   UNL     1      -3.846   1.659  24.675  0.00  0.00    +0.032 C 
ATOM     23  C   UNL     1      -3.728   0.893  24.394  0.00  0.00    +0.152 C 
ATOM     24  O   UNL     1      -3.048   0.711  23.964  0.00  0.00    -0.223 OA
ENDROOT
BRANCH  10  11
ATOM     11  N   UNL     1      -2.839   3.596  24.661  0.00  0.00    -0.203 NA
ATOM     12  C   UNL     1      -2.449   3.961  25.289  0.00  0.00    +0.265 C 
ATOM     13  O   UNL     1      -2.621   3.741  26.066  0.00  0.00    -0.268 OA
BRANCH  12  14
ATOM     14  C   UNL     1      -1.887   4.547  25.141  0.00  0.00    +0.058 A 
ATOM     15  C   UNL     1      -2.115   5.338  25.104  0.00  0.00    +0.025 A 
ATOM     16  C   UNL     1      -1.553   5.924  24.957  0.00  0.00    +0.099 A 
ATOM     17  N   UNL     1      -0.762   5.717  24.846  0.00  0.00    -0.242 NA
ATOM     18  C   UNL     1      -0.533   4.925  24.883  0.00  0.00    +0.099 A 
ATOM     19  C   UNL     1      -1.096   4.340  25.031  0.00  0.00    +0.025 A 
ENDBRANCH  12  14
ENDBRANCH  10  11
BRANCH   3   2
ATOM      1  C   UNL     1      -4.412  -0.660  23.496  0.00  0.00    +0.010 C 
ATOM      2  C   UNL     1      -4.173  -0.459  24.260  0.00  0.00    +0.081 C 
BRANCH   2  25
ATOM     25  C   UNL     1      -3.816  -1.024  24.743  0.00  0.00    +0.241 C 
ATOM     26  O   UNL     1      -4.243  -1.368  25.361  0.00  0.00    -0.273 OA
ATOM     27  N   UNL     1      -3.032  -1.247  24.609  0.00  0.00    -0.199 NA
BRANCH  27  28
ATOM     28  C   UNL     1      -2.676  -1.812  25.091  0.00  0.00    +0.160 C 
BRANCH  28  29
ATOM     29  C   UNL     1      -1.855  -1.894  25.094  0.00  0.00    +0.081 A 
ATOM     30  N   UNL     1      -1.393  -1.407  25.573  0.00  0.00    -0.246 NA
ATOM     31  C   UNL     1      -0.573  -1.490  25.576  0.00  0.00    +0.099 A 
ATOM     32  C   UNL     1      -0.214  -2.060  25.099  0.00  0.00    +0.021 A 
ATOM     33  C   UNL     1      -0.676  -2.547  24.619  0.00  0.00    +0.003 A 
ATOM     34  C   UNL     1      -1.497  -2.464  24.617  0.00  0.00    +0.017 A 
ENDBRANCH  28  29
ENDBRANCH  27  28
ENDBRANCH   2  25
ENDBRANCH   3   2
TORSDOF 6
ENDMDL
MODEL 4
REMARK VINA RESULT:     -11.1      2.506      4.626
REMARK  Name = 
REMARK  6 active torsions:
REMARK  status: ('A' for Active; 'I' for Inactive)
REMARK    1  A    between atoms: C_2  and  C_3
REMARK    2  A    between atoms: C_2  and  C_25
REMARK    3  A    between atoms: C_10  and  N_11
REMARK    4  A    between atoms: C_12  and  C_14
REMARK    5  A    between atoms: N_27  and  C_28
REMARK    6  A    between atoms: C_28  and  C_29
REMARK                            x       y       z     vdW  Elec       q    Type
REMARK                         _______ _______ _______ _____ _____    ______ ____
ROOT
ATOM      3  C   UNL     1      -1.717  -1.126  24.679  0.00  0.00    +0.039 C 
ATOM      4  C   UNL     1      -2.227  -1.720  24.415  0.00  0.00    +0.003 C 
ATOM      5  C   UNL     1      -3.040  -1.589  24.400  0.00  0.00    +0.000 C 
ATOM      6  C   UNL     1      -3.346  -0.865  24.649  0.00  0.00    +0.002 C 
ATOM      7  C   UNL     1      -3.854  -1.457  24.386  0.00  0.00    +0.000 C 
ATOM      8  C   UNL     1      -4.160  -0.733  24.635  0.00  0.00    +0.002 C 
ATOM      9  C   UNL     1      -4.466  -0.009  24.884  0.00  0.00    +0.022 C 
ATOM     10  C   UNL     1      -3.956   0.586  25.148  0.00  0.00    +0.096 C 
ATOM     20  C   UNL     1      -3.142   0.454  25.163  0.00  0.00    +0.022 C 
ATOM     21  C   UNL     1      -2.634   1.047  25.426  0.00  0.00    +0.002 C 
ATOM     22  C   UNL     1      -2.836  -0.271  24.913  0.00  0.00    +0.032 C 
ATOM     23  C   UNL     1      -2.023  -0.402  24.928  0.00  0.00    +0.152 C 
ATOM     24  O   UNL     1      -1.514   0.191  25.192  0.00  0.00    -0.223 OA
ENDROOT
BRANCH  10  11
ATOM     11  N   UNL     1      -4.262   1.310  25.397  0.00  0.00    -0.203 NA
ATOM     12  C   UNL     1      -4.835   1.694  24.946  0.00  0.00    +0.265 C 
ATOM     13  O   UNL     1      -5.103   1.353  24.243  0.00  0.00    -0.268 OA
BRANCH  12  14
ATOM     14  C   UNL     1      -5.141   2.419  25.195  0.00  0.00    +0.058 A 
ATOM     15  C   UNL     1      -4.766   3.121  24.981  0.00  0.00    +0.025 A 
ATOM     16  C   UNL     1      -5.072   3.845  25.231  0.00  0.00    +0.099 A 
ATOM     17  N   UNL     1      -5.754   3.867  25.694  0.00  0.00    -0.242 NA
ATOM     18  C   UNL     1      -6.131   3.164  25.908  0.00  0.00    +0.099 A 
ATOM     19  C   UNL     1      -5.824   2.440  25.658  0.00  0.00    +0.025 A 
ENDBRANCH  12  14
ENDBRANCH  10  11
BRANCH   3   2
ATOM      1  C   UNL     1      -0.522  -1.421  25.407  0.00  0.00    +0.010 C 
ATOM      2  C   UNL     1      -0.903  -1.258  24.693  0.00  0.00    +0.081 C 
BRANCH   2  25
ATOM     25  C   UNL     1      -0.468  -1.228  23.992  0.00  0.00    +0.241 C 
ATOM     26  O   UNL     1      -0.598  -1.790  23.401  0.00  0.00    -0.273 OA
ATOM     27  N   UNL     1       0.096  -0.635  23.882  0.00  0.00    -0.199 NA
BRANCH  27  28
ATOM     28  C   UNL     1       0.530  -0.605  23.182  0.00  0.00    +0.160 C 
BRANCH  28  29
ATOM     29  C   UNL     1       1.174  -0.093  23.117  0.00  0.00    +0.081 A 
ATOM     30  N   UNL     1       1.137   0.661  23.450  0.00  0.00    -0.246 NA
ATOM     31  C   UNL     1       1.781   1.172  23.385  0.00  0.00    +0.099 A 
ATOM     32  C   UNL     1       2.462   0.930  22.986  0.00  0.00    +0.021 A 
ATOM     33  C   UNL     1       2.498   0.177  22.653  0.00  0.00    +0.003 A 
ATOM     34  C   UNL     1       1.853  -0.336  22.718  0.00  0.00    +0.017 A 
ENDBRANCH  28  29
ENDBRANCH  27  28
ENDBRANCH   2  25
ENDBRANCH   3   2
TORSDOF 6
ENDMDL
MODEL 5
REMARK VINA RESULT:     -11.0      1.828      3.506
REMARK  Name = 
REMARK  6 active torsions:
REMARK  status: ('A' for Active; 'I' for Inactive)
REMARK    1  A    between atoms: C_2  and  C_3
REMARK    2  A    between atoms: C_2  and  C_25
REMARK    3  A    between atoms: C_10  and  N_11
REMARK    4  A    between atoms: C_12  and  C_14
REMARK    5  A    between atoms: N_27  and  C_28
REMARK    6  A    between atoms: C_28  and  C_29
REMARK                            x       y       z     vdW  Elec       q    Type
REMARK                         _______ _______ _______ _____ _____    ______ ____
ROOT
ATOM      3  C   UNL     1      -0.221   2.038  25.292  0.00  0.00    +0.039 C 
ATOM      4  C   UNL     1       0.288   2.039  24.642  0.00  0.00    +0.003 C 
ATOM      5  C   UNL     1       0.308   1.390  24.133  0.00  0.00    +0.000 C 
ATOM      6  C   UNL     1      -0.180   0.741  24.273  0.00  0.00    +0.002 C 
ATOM      7  C   UNL     1       0.329   0.742  23.625  0.00  0.00    +0.000 C 
ATOM      8  C   UNL     1      -0.160   0.091  23.764  0.00  0.00    +0.002 C 
ATOM      9  C   UNL     1      -0.648  -0.558  23.904  0.00  0.00    +0.022 C 
ATOM     10  C   UNL     1      -1.157  -0.559  24.555  0.00  0.00    +0.096 C 
ATOM     20  C   UNL     1      -1.177   0.089  25.063  0.00  0.00    +0.022 C 
ATOM     21  C   UNL     1      -1.686   0.088  25.713  0.00  0.00    +0.002 C 
ATOM     22  C   UNL     1      -0.689   0.740  24.923  0.00  0.00    +0.032 C 
ATOM     23  C   UNL     1      -0.709   1.388  25.432  0.00  0.00    +0.152 C 
ATOM     24  O   UNL     1      -1.218   1.387  26.081  0.00  0.00    -0.223 OA
ENDROOT
BRANCH  10  11
ATOM     11  N   UNL     1      -1.645  -1.210  24.694  0.00  0.00    -0.203 NA
ATOM     12  C   UNL     1      -2.257  -1.387  24.171  0.00  0.00    +0.265 C 
ATOM     13  O   UNL     1      -2.382  -0.913  23.507  0.00  0.00    -0.268 OA
BRANCH  12  14
ATOM     14  C   UNL     1      -2.745  -2.037  24.311  0.00  0.00    +0.058 A 
ATOM     15  C   UNL     1      -2.419  -2.752  24.560  0.00  0.00    +0.025 A 
ATOM     16  C   UNL     1      -2.908  -3.403  24.700  0.00  0.00    +0.099 A 
ATOM     17  N   UNL     1      -3.723  -3.337  24.590  0.00  0.00    -0.242 NA
ATOM     18  C   UNL     1      -4.050  -2.621  24.341  0.00  0.00    +0.099 A 
ATOM     19  C   UNL     1      -3.561  -1.971  24.202  0.00  0.00    +0.025 A 
ENDBRANCH  12  14
ENDBRANCH  10  11
BRANCH   3   2
ATOM      1  C   UNL     1       0.162   2.661  26.520  0.00  0.00    +0.010 C 
ATOM      2  C   UNL     1      -0.241   2.687  25.801  0.00  0.00    +0.081 C 
BRANCH   2  25
ATOM     25  C   UNL     1      -0.665   3.363  25.590  0.00  0.00    +0.241 C 
ATOM     26  O   UNL     1      -0.277   4.000  25.237  0.00  0.00    -0.273 OA
ATOM     27  N   UNL     1      -1.478   3.401  25.731  0.00  0.00    -0.199 NA
BRANCH  27  28
ATOM     28  C   UNL     1      -1.901   4.076  25.521  0.00  0.00    +0.160 C 
BRANCH  28  29
ATOM     29  C   UNL     1      -2.720   4.038  25.427  0.00  0.00    +0.081 A 
ATOM     30  N   UNL     1      -3.046   3.947  24.675  0.00  0.00    -0.246 NA
ATOM     31  C   UNL     1      -3.864   3.909  24.582  0.00  0.00    +0.099 A 
ATOM     32  C   UNL     1      -4.357   3.961  25.242  0.00  0.00    +0.021 A 
ATOM     33  C   UNL     1      -4.031   4.052  25.994  0.00  0.00    +0.003 A 
ATOM     34  C   UNL     1      -3.212   4.091  26.087  0.00  0.00    +0.017 A 
ENDBRANCH  28  29
ENDBRANCH  27  28
ENDBRANCH   2  25
ENDBRANCH   3   2
TORSDOF 6
ENDMDL
MODEL 6
REMARK VINA RESULT:     -10.9      1.939      5.173
REMARK  Name = 
REMARK  6 active torsions:
REMARK  status: ('A' for Active; 'I' for Inactive)
REMARK    1  A    between atoms: C_2  and  C_3
REMARK    2  A    between atoms: C_2  and  C_25
REMARK    3  A    between atoms: C_10  and  N_11
REMARK    4  A    between atoms: C_12  and  C_14
REMARK    5  A    between atoms: N_27  and  C_28
REMARK    6  A    between atoms: C_28  and  C_29
REMARK                            x       y       z     vdW  Elec       q    Type
REMARK                         _______ _______ _______ _____ _____    ______ ____
ROOT
ATOM      3  C   UNL     1      -0.654   0.955  24.432  0.00  0.00    +0.039 C 
ATOM      4  C   UNL     1      -0.110   1.319  24.936  0.00  0.00    +0.003 C 
ATOM      5  C   UNL     1      -0.329   1.991  25.361  0.00  0.00    +0.000 C 
ATOM      6  C   UNL     1      -1.090   2.299  25.283  0.00  0.00    +0.002 C 
ATOM      7  C   UNL     1      -0.548   2.663  25.786  0.00  0.00    +0.000 C 
ATOM      8  C   UNL     1      -1.309   2.972  25.708  0.00  0.00    +0.002 C 
ATOM      9  C   UNL     1      -2.069   3.280  25.629  0.00  0.00    +0.022 C 
ATOM     10  C   UNL     1      -2.612   2.916  25.124  0.00  0.00    +0.096 C 
ATOM     20  C   UNL     1      -2.394   2.244  24.699  0.00  0.00    +0.022 C 
ATOM     21  C   UNL     1      -2.936   1.881  24.195  0.00  0.00    +0.002 C 
ATOM     22  C   UNL     1      -1.633   1.935  24.778  0.00  0.00    +0.032 C 
ATOM     23  C   UNL     1      -1.414   1.264  24.353  0.00  0.00    +0.152 C 
ATOM     24  O   UNL     1      -1.956   0.900  23.849  0.00  0.00    -0.223 OA
ENDROOT
BRANCH  10  11
ATOM     11  N   UNL     1      -3.373   3.225  25.046  0.00  0.00    -0.203 NA
ATOM     12  C   UNL     1      -3.822   3.393  25.717  0.00  0.00    +0.265 C 
ATOM     13  O   UNL     1      -3.510   3.252  26.468  0.00  0.00    -0.268 OA
BRANCH  12  14
ATOM     14  C   UNL     1      -4.583   3.703  25.638  0.00  0.00    +0.058 A 
ATOM     15  C   UNL     1      -4.688   4.499  25.455  0.00  0.00    +0.025 A 
ATOM     16  C   UNL     1      -5.449   4.808  25.376  0.00  0.00    +0.099 A 
ATOM     17  N   UNL     1      -6.105   4.319  25.482  0.00  0.00    -0.242 NA
ATOM     18  C   UNL     1      -6.000   3.521  25.666  0.00  0.00    +0.099 A 
ATOM     19  C   UNL     1      -5.239   3.214  25.744  0.00  0.00    +0.025 A 
ENDBRANCH  12  14
ENDBRANCH  10  11
BRANCH   3   2
ATOM      1  C   UNL     1      -0.170   0.353  23.228  0.00  0.00    +0.010 C 
ATOM      2  C   UNL     1      -0.434   0.283  24.007  0.00  0.00    +0.081 C 
BRANCH   2  25
ATOM     25  C   UNL     1      -0.479  -0.461  24.360  0.00  0.00    +0.241 C 
ATOM     26  O   UNL     1       0.184  -0.782  24.733  0.00  0.00    -0.273 OA
ATOM     27  N   UNL     1      -1.188  -0.885  24.341  0.00  0.00    -0.199 NA
BRANCH  27  28
ATOM     28  C   UNL     1      -1.233  -1.628  24.695  0.00  0.00    +0.160 C 
BRANCH  28  29
ATOM     29  C   UNL     1      -1.955  -2.025  24.732  0.00  0.00    +0.081 A 
ATOM     30  N   UNL     1      -2.137  -2.604  24.174  0.00  0.00    -0.246 NA
ATOM     31  C   UNL     1      -2.859  -3.000  24.211  0.00  0.00    +0.099 A 
ATOM     32  C   UNL     1      -3.400  -2.818  24.807  0.00  0.00    +0.021 A 
ATOM     33  C   UNL     1      -3.218  -2.238  25.365  0.00  0.00    +0.003 A 
ATOM     34  C   UNL     1      -2.495  -1.841  25.328  0.00  0.00    +0.017 A 
ENDBRANCH  28  29
ENDBRANCH  27  28
ENDBRANCH   2  25
ENDBRANCH   3   2
TORSDOF 6
ENDMDL
MODEL 7
REMARK VINA RESULT:     -10.9      2.432      4.584
REMARK  Name = 
REMARK  6 active torsions:
REMARK  status: ('A' for Active; 'I' for Inactive)
REMARK    1  A    between atoms: C_2  and  C_3
REMARK    2  A    between atoms: C_2  and  C_25
REMARK    3  A    between atoms: C_10  and  N_11
REMARK    4  A    between atoms: C_12  and  C_14
REMARK    5  A    between atoms: N_27  and  C_28
REMARK    6  A    between atoms: C_28  and  C_29
REMARK                            x       y       z     vdW  Elec       q    Type
REMARK                         _______ _______ _______ _____ _____    ______ ____
ROOT
ATOM      3  C   UNL     1      -1.983   3.570  25.444  0.00  0.00    +0.039 C 
ATOM      4  C   UNL     1      -1.676   3.502  26.208  0.00  0.00    +0.003 C 
ATOM      5  C   UNL     1      -0.994   3.058  26.340  0.00  0.00    +0.000 C 
ATOM      6  C   UNL     1      -0.618   2.683  25.710  0.00  0.00    +0.002 C 
ATOM      7  C   UNL     1      -0.311   2.614  26.471  0.00  0.00    +0.000 C 
ATOM      8  C   UNL     1       0.065   2.238  25.841  0.00  0.00    +0.002 C 
ATOM      9  C   UNL     1       0.441   1.863  25.211  0.00  0.00    +0.022 C 
ATOM     10  C   UNL     1       0.135   1.932  24.447  0.00  0.00    +0.096 C 
ATOM     20  C   UNL     1      -0.548   2.375  24.315  0.00  0.00    +0.022 C 
ATOM     21  C   UNL     1      -0.854   2.444  23.552  0.00  0.00    +0.002 C 
ATOM     22  C   UNL     1      -0.924   2.751  24.946  0.00  0.00    +0.032 C 
ATOM     23  C   UNL     1      -1.606   3.195  24.814  0.00  0.00    +0.152 C 
ATOM     24  O   UNL     1      -1.913   3.263  24.051  0.00  0.00    -0.223 OA
ENDROOT
BRANCH  10  11
ATOM     11  N   UNL     1       0.511   1.556  23.816  0.00  0.00    -0.203 NA
ATOM     12  C   UNL     1       0.642   0.742  23.839  0.00  0.00    +0.265 C 
ATOM     13  O   UNL     1       0.395   0.302  24.493  0.00  0.00    -0.268 OA
BRANCH  12  14
ATOM     14  C   UNL     1       1.019   0.366  23.208  0.00  0.00    +0.058 A 
ATOM     15  C   UNL     1       0.591  -0.131  22.709  0.00  0.00    +0.025 A 
ATOM     16  C   UNL     1       0.968  -0.507  22.078  0.00  0.00    +0.099 A 
ATOM     17  N   UNL     1       1.773  -0.385  21.947  0.00  0.00    -0.242 NA
ATOM     18  C   UNL     1       2.202   0.113  22.447  0.00  0.00    +0.099 A 
ATOM     19  C   UNL     1       1.824   0.488  23.077  0.00  0.00    +0.025 A 
ENDBRANCH  12  14
ENDBRANCH  10  11
BRANCH   3   2
ATOM      1  C   UNL     1      -2.653   4.646  24.781  0.00  0.00    +0.010 C 
ATOM      2  C   UNL     1      -2.665   4.014  25.313  0.00  0.00    +0.081 C 
BRANCH   2  25
ATOM     25  C   UNL     1      -3.362   3.827  25.714  0.00  0.00    +0.241 C 
ATOM     26  O   UNL     1      -3.519   4.167  26.450  0.00  0.00    -0.273 OA
ATOM     27  N   UNL     1      -3.903   3.301  25.378  0.00  0.00    -0.199 NA
BRANCH  27  28
ATOM     28  C   UNL     1      -4.598   3.114  25.779  0.00  0.00    +0.160 C 
BRANCH  28  29
ATOM     29  C   UNL     1      -5.106   2.538  25.477  0.00  0.00    +0.081 A 
ATOM     30  N   UNL     1      -5.889   2.730  25.299  0.00  0.00    -0.246 NA
ATOM     31  C   UNL     1      -6.396   2.154  24.998  0.00  0.00    +0.099 A 
ATOM     32  C   UNL     1      -6.121   1.385  24.875  0.00  0.00    +0.021 A 
ATOM     33  C   UNL     1      -5.339   1.194  25.053  0.00  0.00    +0.003 A 
ATOM     34  C   UNL     1      -4.831   1.771  25.354  0.00  0.00    +0.017 A 
ENDBRANCH  28  29
ENDBRANCH  27  28
ENDBRANCH   2  25
ENDBRANCH   3   2
TORSDOF 6
ENDMDL
MODEL 8
REMARK VINA RESULT:     -10.8      2.108      6.169
REMARK  Name = 
REMARK  6 active torsions:
REMARK  status: ('A' for Active; 'I' for Inactive)
REMARK    1  A    between atoms: C_2  and  C_3
REMARK    2  A    between atoms: C_2  and  C_25
REMARK    3  A    between atoms: C_10  and  N_11
REMARK    4  A    between atoms: C_12  and  C_14
REMARK    5  A    between atoms: N_27  and  C_28
REMARK    6  A    between atoms: C_28  and  C_29
REMARK                            x       y       z     vdW  Elec       q    Type
REMARK                         _______ _______ _______ _____ _____    ______ ____
ROOT
ATOM      3  C   UNL     1      -0.508  -0.923  24.889  0.00  0.00    +0.039 C 
ATOM      4  C   UNL     1      -0.098  -1.004  24.177  0.00  0.00    +0.003 C 
ATOM      5  C   UNL     1       0.132  -0.335  23.754  0.00  0.00    +0.000 C 
ATOM      6  C   UNL     1      -0.047   0.416  24.043  0.00  0.00    +0.002 C 
ATOM      7  C   UNL     1       0.362   0.335  23.332  0.00  0.00    +0.000 C 
ATOM      8  C   UNL     1       0.183   1.087  23.620  0.00  0.00    +0.002 C 
ATOM      9  C   UNL     1       0.004   1.838  23.909  0.00  0.00    +0.022 C 
ATOM     10  C   UNL     1      -0.407   1.920  24.621  0.00  0.00    +0.096 C 
ATOM     20  C   UNL     1      -0.637   1.250  25.043  0.00  0.00    +0.022 C 
ATOM     21  C   UNL     1      -1.046   1.332  25.755  0.00  0.00    +0.002 C 
ATOM     22  C   UNL     1      -0.457   0.498  24.755  0.00  0.00    +0.032 C 
ATOM     23  C   UNL     1      -0.687  -0.171  25.177  0.00  0.00    +0.152 C 
ATOM     24  O   UNL     1      -1.097  -0.090  25.889  0.00  0.00    -0.223 OA
ENDROOT
BRANCH  10  11
ATOM     11  N   UNL     1      -0.586   2.672  24.909  0.00  0.00    -0.203 NA
ATOM     12  C   UNL     1      -1.012   3.202  24.444  0.00  0.00    +0.265 C 
ATOM     13  O   UNL     1      -1.261   2.980  23.688  0.00  0.00    -0.268 OA
BRANCH  12  14
ATOM     14  C   UNL     1      -1.192   3.954  24.732  0.00  0.00    +0.058 A 
ATOM     15  C   UNL     1      -0.647   4.568  24.650  0.00  0.00    +0.025 A 
ATOM     16  C   UNL     1      -0.827   5.320  24.939  0.00  0.00    +0.099 A 
ATOM     17  N   UNL     1      -1.551   5.458  25.309  0.00  0.00    -0.242 NA
ATOM     18  C   UNL     1      -2.096   4.843  25.391  0.00  0.00    +0.099 A 
ATOM     19  C   UNL     1      -1.916   4.092  25.102  0.00  0.00    +0.025 A 
ENDBRANCH  12  14
ENDBRANCH  10  11
BRANCH   3   2
ATOM      1  C   UNL     1      -0.420  -1.742  26.058  0.00  0.00    +0.010 C 
ATOM      2  C   UNL     1      -0.738  -1.593  25.311  0.00  0.00    +0.081 C 
BRANCH   2  25
ATOM     25  C   UNL     1      -1.288  -2.116  24.986  0.00  0.00    +0.241 C 
ATOM     26  O   UNL     1      -1.031  -2.810  24.620  0.00  0.00    -0.273 OA
ATOM     27  N   UNL     1      -2.095  -1.946  25.028  0.00  0.00    -0.199 NA
BRANCH  27  28
ATOM     28  C   UNL     1      -2.644  -2.468  24.704  0.00  0.00    +0.160 C 
BRANCH  28  29
ATOM     29  C   UNL     1      -3.365  -2.185  24.420  0.00  0.00    +0.081 A 
ATOM     30  N   UNL     1      -3.672  -1.475  24.707  0.00  0.00    -0.246 NA
ATOM     31  C   UNL     1      -4.393  -1.194  24.423  0.00  0.00    +0.099 A 
ATOM     32  C   UNL     1      -4.808  -1.622  23.852  0.00  0.00    +0.021 A 
ATOM     33  C   UNL     1      -4.501  -2.332  23.566  0.00  0.00    +0.003 A 
ATOM     34  C   UNL     1      -3.779  -2.614  23.850  0.00  0.00    +0.017 A 
ENDBRANCH  28  29
ENDBRANCH  27  28
ENDBRANCH   2  25
ENDBRANCH   3   2
TORSDOF 6
ENDMDL
MODEL 9
REMARK VINA RESULT:     -10.6      2.614      4.790
REMARK  Name = 
REMARK  6 active torsions:
REMARK  status: ('A' for Active; 'I' for Inactive)
REMARK    1  A    between atoms: C_2  and  C_3
REMARK    2  A    between atoms: C_2  and  C_25
REMARK    3  A    between atoms: C_10  and  N_11
REMARK    4  A    between atoms: C_12  and  C_14
REMARK    5  A    between atoms: N_27  and  C_28
REMARK    6  A    between atoms: C_28  and  C_29
REMARK                            x       y       z     vdW  Elec       q    Type
REMARK                         _______ _______ _______ _____ _____    ______ ____
ROOT
ATOM      3  C   UNL     1      -3.237  -0.145  24.731  0.00  0.00    +0.039 C 
ATOM      4  C   UNL     1      -3.113  -0.681  25.347  0.00  0.00    +0.003 C 
ATOM      5  C   UNL     1      -2.349  -0.927  25.532  0.00  0.00    +0.000 C 
ATOM      6  C   UNL     1      -1.707  -0.639  25.102  0.00  0.00    +0.002 C 
ATOM      7  C   UNL     1      -1.584  -1.174  25.717  0.00  0.00    +0.000 C 
ATOM      8  C   UNL     1      -0.941  -0.886  25.286  0.00  0.00    +0.002 C 
ATOM      9  C   UNL     1      -0.300  -0.597  24.856  0.00  0.00    +0.022 C 
ATOM     10  C   UNL     1      -0.424  -0.061  24.240  0.00  0.00    +0.096 C 
ATOM     20  C   UNL     1      -1.188   0.185  24.055  0.00  0.00    +0.022 C 
ATOM     21  C   UNL     1      -1.312   0.720  23.440  0.00  0.00    +0.002 C 
ATOM     22  C   UNL     1      -1.831  -0.103  24.486  0.00  0.00    +0.032 C 
ATOM     23  C   UNL     1      -2.595   0.143  24.301  0.00  0.00    +0.152 C 
ATOM     24  O   UNL     1      -2.719   0.678  23.685  0.00  0.00    -0.223 OA
ENDROOT
BRANCH  10  11
ATOM     11  N   UNL     1       0.219   0.227  23.810  0.00  0.00    -0.203 NA
ATOM     12  C   UNL     1       0.818  -0.286  23.568  0.00  0.00    +0.265 C 
ATOM     13  O   UNL     1       0.775  -1.089  23.757  0.00  0.00    -0.268 OA
BRANCH  12  14
ATOM     14  C   UNL     1       1.460   0.003  23.138  0.00  0.00    +0.058 A 
ATOM     15  C   UNL     1       1.894   0.643  23.423  0.00  0.00    +0.025 A 
ATOM     16  C   UNL     1       2.536   0.931  22.992  0.00  0.00    +0.099 A 
ATOM     17  N   UNL     1       2.744   0.578  22.276  0.00  0.00    -0.242 NA
ATOM     18  C   UNL     1       2.310  -0.063  21.991  0.00  0.00    +0.099 A 
ATOM     19  C   UNL     1       1.668  -0.351  22.422  0.00  0.00    +0.025 A 
ENDBRANCH  12  14
ENDBRANCH  10  11
BRANCH   3   2
ATOM      1  C   UNL     1      -4.333  -0.089  23.815  0.00  0.00    +0.010 C 
ATOM      2  C   UNL     1      -4.003   0.101  24.547  0.00  0.00    +0.081 C 
BRANCH   2  25
ATOM     25  C   UNL     1      -4.438   0.538  25.095  0.00  0.00    +0.241 C 
ATOM     26  O   UNL     1      -4.790   0.160  25.739  0.00  0.00    -0.273 OA
ATOM     27  N   UNL     1      -4.521   1.354  24.999  0.00  0.00    -0.199 NA
BRANCH  27  28
ATOM     28  C   UNL     1      -4.956   1.791  25.546  0.00  0.00    +0.160 C 
BRANCH  28  29
ATOM     29  C   UNL     1      -4.945   2.615  25.519  0.00  0.00    +0.081 A 
ATOM     30  N   UNL     1      -4.227   3.020  25.551  0.00  0.00    -0.246 NA
ATOM     31  C   UNL     1      -4.218   3.844  25.524  0.00  0.00    +0.099 A 
ATOM     32  C   UNL     1      -4.926   4.264  25.464  0.00  0.00    +0.021 A 
ATOM     33  C   UNL     1      -5.643   3.859  25.432  0.00  0.00    +0.003 A 
ATOM     34  C   UNL     1      -5.654   3.034  25.459  0.00  0.00    +0.017 A 
ENDBRANCH  28  29
ENDBRANCH  27  28
ENDBRANCH   2  25
ENDBRANCH   3   2
TORSDOF 6
ENDMDL
MODEL 10
REMARK VINA RESULT:     -10.3      1.678      3.524
REMARK  Name = 
REMARK  6 active torsions:
REMARK  status: ('A' for Active; 'I' for Inactive)
REMARK    1  A    between atoms: C_2  and  C_3
REMARK    2  A    between atoms: C_2  and  C_25
REMARK    3  A    between atoms: C_10  and  N_11
REMARK    4  A    between atoms: C_12  and  C_14
REMARK    5  A    between atoms: N_27  and  C_28
REMARK    6  A    between atoms: C_28  and  C_29
REMARK                            x       y       z     vdW  Elec       q    Type
REMARK                         _______ _______ _______ _____ _____    ______ ____
ROOT
ATOM      3  C   UNL     1      -2.040   3.365  25.266  0.00  0.00    +0.039 C 
ATOM      4  C   UNL     1      -1.431   3.509  25.804  0.00  0.00    +0.003 C 
ATOM      5  C   UNL     1      -0.910   2.904  26.009  0.00  0.00    +0.000 C 
ATOM      6  C   UNL     1      -0.998   2.154  25.677  0.00  0.00    +0.002 C 
ATOM      7  C   UNL     1      -0.390   2.298  26.214  0.00  0.00    +0.000 C 
ATOM      8  C   UNL     1      -0.477   1.548  25.882  0.00  0.00    +0.002 C 
ATOM      9  C   UNL     1      -0.565   0.799  25.549  0.00  0.00    +0.022 C 
ATOM     10  C   UNL     1      -1.174   0.655  25.011  0.00  0.00    +0.096 C 
ATOM     20  C   UNL     1      -1.695   1.260  24.806  0.00  0.00    +0.022 C 
ATOM     21  C   UNL     1      -2.303   1.116  24.268  0.00  0.00    +0.002 C 
ATOM     22  C   UNL     1      -1.607   2.010  25.138  0.00  0.00    +0.032 C 
ATOM     23  C   UNL     1      -2.128   2.616  24.933  0.00  0.00    +0.152 C 
ATOM     24  O   UNL     1      -2.737   2.472  24.396  0.00  0.00    -0.223 OA
ENDROOT
BRANCH  10  11
ATOM     11  N   UNL     1      -1.261  -0.096  24.678  0.00  0.00    -0.203 NA
ATOM     12  C   UNL     1      -1.403  -0.748  25.162  0.00  0.00    +0.265 C 
ATOM     13  O   UNL     1      -1.458  -0.651  25.981  0.00  0.00    -0.268 OA
BRANCH  12  14
ATOM     14  C   UNL     1      -1.490  -1.498  24.830  0.00  0.00    +0.058 A 
ATOM     15  C   UNL     1      -0.832  -1.900  24.538  0.00  0.00    +0.025 A 
ATOM     16  C   UNL     1      -0.919  -2.650  24.206  0.00  0.00    +0.099 A 
ATOM     17  N   UNL     1      -1.666  -2.998  24.165  0.00  0.00    -0.242 NA
ATOM     18  C   UNL     1      -2.325  -2.596  24.457  0.00  0.00    +0.099 A 
ATOM     19  C   UNL     1      -2.237  -1.846  24.789  0.00  0.00    +0.025 A 
ENDBRANCH  12  14
ENDBRANCH  10  11
BRANCH   3   2
ATOM      1  C   UNL     1      -2.387   4.470  24.427  0.00  0.00    +0.010 C 
ATOM      2  C   UNL     1      -2.561   3.971  25.061  0.00  0.00    +0.081 C 
BRANCH   2  25
ATOM     25  C   UNL     1      -3.257   4.080  25.491  0.00  0.00    +0.241 C 
ATOM     26  O   UNL     1      -3.259   4.565  26.159  0.00  0.00    -0.273 OA
ATOM     27  N   UNL     1      -3.952   3.702  25.254  0.00  0.00    -0.199 NA
BRANCH  27  28
ATOM     28  C   UNL     1      -4.647   3.810  25.683  0.00  0.00    +0.160 C 
BRANCH  28  29
ATOM     29  C   UNL     1      -5.222   3.218  25.694  0.00  0.00    +0.081 A 
ATOM     30  N   UNL     1      -5.472   2.899  26.413  0.00  0.00    -0.246 NA
ATOM     31  C   UNL     1      -6.047   2.308  26.423  0.00  0.00    +0.099 A 
ATOM     32  C   UNL     1      -6.372   2.035  25.715  0.00  0.00    +0.021 A 
ATOM     33  C   UNL     1      -6.121   2.355  24.997  0.00  0.00    +0.003 A 
ATOM     34  C   UNL     1      -5.546   2.947  24.986  0.00  0.00    +0.017 A 
ENDBRANCH  28  29
ENDBRANCH  27  28
ENDBRANCH   2  25
ENDBRANCH   3   2
TORSDOF 6
ENDMDL
