MODEL 1
REMARK VINA RESULT:     -11.0      0.000      0.000
REMARK  Name = 
REMARK  2 active torsions:
REMARK  status: ('A' for Active; 'I' for Inactive)
REMARK    1  A    between atoms: C_4  and  C_14
REMARK    2  A    between atoms: C_5  and  N_8
REMARK                            x       y       z     vdW  Elec       q    Type
REMARK                         _______ _______ _______ _____ _____    ______ ____
ROOT
ATOM      1  O   UNL     1      -5.913   2.277  25.214  0.00  0.00    -0.220 OA
ATOM      2  C   UNL     1      -5.265   1.807  25.012  0.00  0.00    +0.184 C 
ATOM      3  C   UNL     1      -5.224   0.986  25.076  0.00  0.00    +0.041 C 
ATOM      4  C   UNL     1      -4.478   0.747  24.815  0.00  0.00    +0.042 C 
ATOM      5  C   UNL     1      -4.059   1.421  24.591  0.00  0.00    +0.095 C 
ATOM      6  C   UNL     1      -4.545   2.077  24.712  0.00  0.00    +0.197 C 
ATOM      7  O   UNL     1      -4.345   2.863  24.560  0.00  0.00    -0.219 OA
ENDROOT
BRANCH   5   8
ATOM      8  N   UNL     1      -3.288   1.437  24.296  0.00  0.00    -0.271 NA
ATOM      9  C   UNL     1      -2.649   1.491  24.815  0.00  0.00    +0.072 C 
ATOM     10  C   UNL     1      -1.878   1.507  24.520  0.00  0.00    +0.017 C 
ATOM     11  C   UNL     1      -1.748   1.468  23.705  0.00  0.00    +0.003 C 
ATOM     12  C   UNL     1      -2.387   1.413  23.187  0.00  0.00    +0.017 C 
ATOM     13  C   UNL     1      -3.158   1.397  23.482  0.00  0.00    +0.072 C 
ENDBRANCH   5   8
BRANCH   4  14
ATOM     14  C   UNL     1      -4.201  -0.030  24.785  0.00  0.00    -0.021 A 
ATOM     15  C   UNL     1      -3.814  -0.355  25.437  0.00  0.00    -0.004 A 
ATOM     16  C   UNL     1      -3.537  -1.131  25.406  0.00  0.00    -0.000 A 
ATOM     17  C   UNL     1      -3.645  -1.582  24.725  0.00  0.00    -0.000 A 
ATOM     18  C   UNL     1      -4.032  -1.256  24.072  0.00  0.00    -0.000 A 
ATOM     19  C   UNL     1      -4.310  -0.480  24.102  0.00  0.00    -0.004 A 
ENDBRANCH   4  14
TORSDOF 2
ENDMDL
MODEL 2
REMARK VINA RESULT:     -10.3      1.764      3.247
REMARK  Name = 
REMARK  2 active torsions:
REMARK  status: ('A' for Active; 'I' for Inactive)
REMARK    1  A    between atoms: C_4  and  C_14
REMARK    2  A    between atoms: C_5  and  N_8
REMARK                            x       y       z     vdW  Elec       q    Type
REMARK                         _______ _______ _______ _____ _____    ______ ____
ROOT
ATOM      1  O   UNL     1      -5.531   3.461  26.035  0.00  0.00    -0.220 OA
ATOM      2  C   UNL     1      -4.803   3.334  25.667  0.00  0.00    +0.184 C 
ATOM      3  C   UNL     1      -4.090   3.697  25.866  0.00  0.00    +0.041 C 
ATOM      4  C   UNL     1      -3.507   3.409  25.357  0.00  0.00    +0.042 C 
ATOM      5  C   UNL     1      -3.861   2.869  24.844  0.00  0.00    +0.095 C 
ATOM      6  C   UNL     1      -4.662   2.822  25.035  0.00  0.00    +0.197 C 
ATOM      7  O   UNL     1      -5.223   2.347  24.660  0.00  0.00    -0.219 OA
ENDROOT
BRANCH   5   8
ATOM      8  N   UNL     1      -3.480   2.449  24.244  0.00  0.00    -0.271 NA
ATOM      9  C   UNL     1      -3.152   1.709  24.404  0.00  0.00    +0.072 C 
ATOM     10  C   UNL     1      -2.771   1.289  23.804  0.00  0.00    +0.017 C 
ATOM     11  C   UNL     1      -2.719   1.610  23.045  0.00  0.00    +0.003 C 
ATOM     12  C   UNL     1      -3.048   2.349  22.886  0.00  0.00    +0.017 C 
ATOM     13  C   UNL     1      -3.429   2.769  23.486  0.00  0.00    +0.072 C 
ENDBRANCH   5   8
BRANCH   4  14
ATOM     14  C   UNL     1      -2.710   3.624  25.360  0.00  0.00    -0.021 A 
ATOM     15  C   UNL     1      -2.462   4.292  24.944  0.00  0.00    -0.004 A 
ATOM     16  C   UNL     1      -1.665   4.507  24.948  0.00  0.00    -0.000 A 
ATOM     17  C   UNL     1      -1.118   4.055  25.367  0.00  0.00    -0.000 A 
ATOM     18  C   UNL     1      -1.366   3.387  25.783  0.00  0.00    -0.000 A 
ATOM     19  C   UNL     1      -2.163   3.172  25.780  0.00  0.00    -0.004 A 
ENDBRANCH   4  14
TORSDOF 2
ENDMDL
MODEL 3
REMARK VINA RESULT:     -10.3      2.228      3.182
REMARK  Name = 
REMARK  2 active torsions:
REMARK  status: ('A' for Active; 'I' for Inactive)
REMARK    1  A    between atoms: C_4  and  C_14
REMARK    2  A    between atoms: C_5  and  N_8
REMARK                            x       y       z     vdW  Elec       q    Type
REMARK                         _______ _______ _______ _____ _____    ______ ____
ROOT
ATOM      1  O   UNL     1      -4.338  -2.826  23.763  0.00  0.00    -0.220 OA
ATOM      2  C   UNL     1      -3.985  -2.127  24.026  0.00  0.00    +0.184 C 
ATOM      3  C   UNL     1      -4.321  -1.374  23.997  0.00  0.00    +0.041 C 
ATOM      4  C   UNL     1      -3.778  -0.841  24.316  0.00  0.00    +0.042 C 
ATOM      5  C   UNL     1      -3.107  -1.265  24.543  0.00  0.00    +0.095 C 
ATOM      6  C   UNL     1      -3.236  -2.060  24.363  0.00  0.00    +0.197 C 
ATOM      7  O   UNL     1      -2.706  -2.678  24.498  0.00  0.00    -0.219 OA
ENDROOT
BRANCH   5   8
ATOM      8  N   UNL     1      -2.428  -0.949  24.888  0.00  0.00    -0.271 NA
ATOM      9  C   UNL     1      -1.805  -0.691  24.413  0.00  0.00    +0.072 C 
ATOM     10  C   UNL     1      -1.125  -0.375  24.758  0.00  0.00    +0.017 C 
ATOM     11  C   UNL     1      -1.070  -0.317  25.580  0.00  0.00    +0.003 C 
ATOM     12  C   UNL     1      -1.692  -0.575  26.055  0.00  0.00    +0.017 C 
ATOM     13  C   UNL     1      -2.372  -0.891  25.709  0.00  0.00    +0.072 C 
ENDBRANCH   5   8
BRANCH   4  14
ATOM     14  C   UNL     1      -3.887  -0.027  24.396  0.00  0.00    -0.021 A 
ATOM     15  C   UNL     1      -4.272   0.274  25.060  0.00  0.00    -0.004 A 
ATOM     16  C   UNL     1      -4.380   1.089  25.139  0.00  0.00    -0.000 A 
ATOM     17  C   UNL     1      -4.104   1.601  24.555  0.00  0.00    -0.000 A 
ATOM     18  C   UNL     1      -3.719   1.299  23.890  0.00  0.00    -0.000 A 
ATOM     19  C   UNL     1      -3.610   0.485  23.811  0.00  0.00    -0.004 A 
ENDBRANCH   4  14
TORSDOF 2
ENDMDL
MODEL 4
REMARK VINA RESULT:     -10.1      1.143      2.422
REMARK  Name = 
REMARK  2 active torsions:
REMARK  status: ('A' for Active; 'I' for Inactive)
REMARK    1  A    between atoms: C_4  and  C_14
REMARK    2  A    between atoms: C_5  and  N_8
REMARK                            x       y       z     vdW  Elec       q    Type
REMARK                         _______ _______ _______ _____ _____    ______ ____
ROOT
ATOM      1  O   UNL     1      -2.488   2.256  22.371  0.00  0.00    -0.220 OA
ATOM      2  C   UNL     1      -2.930   1.943  22.995  0.00  0.00    +0.184 C 
ATOM      3  C   UNL     1      -2.874   1.177  23.292  0.00  0.00    +0.041 C 
ATOM      4  C   UNL     1      -3.414   1.103  23.911  0.00  0.00    +0.042 C 
ATOM      5  C   UNL     1      -3.804   1.825  23.996  0.00  0.00    +0.095 C 
ATOM      6  C   UNL     1      -3.505   2.345  23.430  0.00  0.00    +0.197 C 
ATOM      7  O   UNL     1      -3.741   3.128  23.319  0.00  0.00    -0.219 OA
ENDROOT
BRANCH   5   8
ATOM      8  N   UNL     1      -4.391   1.997  24.551  0.00  0.00    -0.271 NA
ATOM      9  C   UNL     1      -5.178   1.811  24.389  0.00  0.00    +0.072 C 
ATOM     10  C   UNL     1      -5.764   1.983  24.944  0.00  0.00    +0.017 C 
ATOM     11  C   UNL     1      -5.562   2.340  25.660  0.00  0.00    +0.003 C 
ATOM     12  C   UNL     1      -4.775   2.525  25.821  0.00  0.00    +0.017 C 
ATOM     13  C   UNL     1      -4.189   2.353  25.267  0.00  0.00    +0.072 C 
ENDBRANCH   5   8
BRANCH   4  14
ATOM     14  C   UNL     1      -3.542   0.426  24.366  0.00  0.00    -0.021 A 
ATOM     15  C   UNL     1      -3.109   0.308  25.058  0.00  0.00    -0.004 A 
ATOM     16  C   UNL     1      -3.237  -0.369  25.513  0.00  0.00    -0.000 A 
ATOM     17  C   UNL     1      -3.796  -0.926  25.275  0.00  0.00    -0.000 A 
ATOM     18  C   UNL     1      -4.229  -0.808  24.582  0.00  0.00    -0.000 A 
ATOM     19  C   UNL     1      -4.101  -0.131  24.128  0.00  0.00    -0.004 A 
ENDBRANCH   4  14
TORSDOF 2
ENDMDL
MODEL 5
REMARK VINA RESULT:      -9.9      1.859      2.744
REMARK  Name = 
REMARK  2 active torsions:
REMARK  status: ('A' for Active; 'I' for Inactive)
REMARK    1  A    between atoms: C_4  and  C_14
REMARK    2  A    between atoms: C_5  and  N_8
REMARK                            x       y       z     vdW  Elec       q    Type
REMARK                         _______ _______ _______ _____ _____    ______ ____
ROOT
ATOM      1  O   UNL     1      -5.733   3.186  25.853  0.00  0.00    -0.220 OA
ATOM      2  C   UNL     1      -4.986   3.117  25.509  0.00  0.00    +0.184 C 
ATOM      3  C   UNL     1      -4.796   2.653  24.854  0.00  0.00    +0.041 C 
ATOM      4  C   UNL     1      -3.991   2.749  24.699  0.00  0.00    +0.042 C 
ATOM      5  C   UNL     1      -3.684   3.272  25.259  0.00  0.00    +0.095 C 
ATOM      6  C   UNL     1      -4.300   3.499  25.760  0.00  0.00    +0.197 C 
ATOM      7  O   UNL     1      -4.237   4.018  26.398  0.00  0.00    -0.219 OA
ENDROOT
BRANCH   5   8
ATOM      8  N   UNL     1      -2.899   3.523  25.309  0.00  0.00    -0.271 NA
ATOM      9  C   UNL     1      -2.662   4.213  24.926  0.00  0.00    +0.072 C 
ATOM     10  C   UNL     1      -1.878   4.464  24.976  0.00  0.00    +0.017 C 
ATOM     11  C   UNL     1      -1.331   4.024  25.410  0.00  0.00    +0.003 C 
ATOM     12  C   UNL     1      -1.569   3.334  25.793  0.00  0.00    +0.017 C 
ATOM     13  C   UNL     1      -2.353   3.082  25.743  0.00  0.00    +0.072 C 
ENDBRANCH   5   8
BRANCH   4  14
ATOM     14  C   UNL     1      -3.567   2.386  24.091  0.00  0.00    -0.021 A 
ATOM     15  C   UNL     1      -3.486   2.764  23.363  0.00  0.00    -0.004 A 
ATOM     16  C   UNL     1      -3.062   2.401  22.755  0.00  0.00    -0.000 A 
ATOM     17  C   UNL     1      -2.720   1.661  22.875  0.00  0.00    -0.000 A 
ATOM     18  C   UNL     1      -2.801   1.282  23.605  0.00  0.00    -0.000 A 
ATOM     19  C   UNL     1      -3.225   1.646  24.213  0.00  0.00    -0.004 A 
ENDBRANCH   4  14
TORSDOF 2
ENDMDL
