MODEL 1
REMARK VINA RESULT:     -13.6      0.000      0.000
REMARK  Name = 
REMARK  4 active torsions:
REMARK  status: ('A' for Active; 'I' for Inactive)
REMARK    1  A    between atoms: C_5  and  C_6
REMARK    2  A    between atoms: C_6  and  N_7
REMARK    3  A    between atoms: C_12  and  C_13
REMARK    4  A    between atoms: C_15  and  C_18
REMARK                            x       y       z     vdW  Elec       q    Type
REMARK                         _______ _______ _______ _____ _____    ______ ____
ROOT
ATOM      7  N   UNL     1      -3.510   2.423  24.919  0.00  0.00    -0.257 NA
ATOM      8  C   UNL     1      -3.703   3.167  25.215  0.00  0.00    +0.121 C 
ATOM      9  C   UNL     1      -4.492   3.363  25.358  0.00  0.00    +0.090 A 
ATOM     10  C   UNL     1      -5.087   2.813  25.205  0.00  0.00    +0.077 A 
ATOM     11  C   UNL     1      -4.894   2.067  24.908  0.00  0.00    +0.073 C 
ATOM     12  C   UNL     1      -4.105   1.873  24.765  0.00  0.00    +0.144 C 
ATOM     26  N   UNL     1      -5.810   3.158  25.399  0.00  0.00    -0.227 NA
ATOM     27  C   UNL     1      -5.662   3.922  25.672  0.00  0.00    +0.198 A 
ATOM     28  N   UNL     1      -4.848   4.048  25.647  0.00  0.00    -0.226 NA
ENDROOT
BRANCH  12  13
ATOM     13  C   UNL     1      -3.912   1.127  24.469  0.00  0.00    +0.251 A 
ATOM     14  N   UNL     1      -3.932   0.418  24.888  0.00  0.00    -0.190 NA
ATOM     15  C   UNL     1      -3.697  -0.188  24.378  0.00  0.00    +0.203 A 
ATOM     16  N   UNL     1      -3.532   0.148  23.644  0.00  0.00    -0.056 NA
ATOM     17  O   UNL     1      -3.664   0.962  23.699  0.00  0.00    -0.336 OA
BRANCH  15  18
ATOM     18  C   UNL     1      -3.639  -0.988  24.570  0.00  0.00    +0.040 A 
ATOM     19  C   UNL     1      -3.225  -1.221  25.245  0.00  0.00    +0.006 A 
ATOM     20  C   UNL     1      -3.167  -2.022  25.436  0.00  0.00    +0.031 A 
ATOM     21  C   UNL     1      -3.522  -2.588  24.954  0.00  0.00    +0.151 A 
ATOM     22  F   UNL     1      -3.464  -3.389  25.145  0.00  0.00    -0.203 F 
ATOM     23  C   UNL     1      -3.936  -2.355  24.279  0.00  0.00    +0.085 A 
ATOM     24 CL   UNL     1      -4.291  -2.922  23.796  0.00  0.00    -0.080 Cl
ATOM     25  C   UNL     1      -3.994  -1.555  24.087  0.00  0.00    +0.017 A 
ENDBRANCH  15  18
ENDBRANCH  12  13
BRANCH   7   6
ATOM      6  C   UNL     1      -2.721   2.228  24.775  0.00  0.00    +0.100 C 
BRANCH   6   5
ATOM      1  F   UNL     1      -0.338   4.416  25.424  0.00  0.00    -0.204 F 
ATOM      2  C   UNL     1      -0.933   3.869  25.262  0.00  0.00    +0.140 A 
ATOM      3  C   UNL     1      -1.316   3.881  24.532  0.00  0.00    +0.029 A 
ATOM      4  C   UNL     1      -1.912   3.334  24.370  0.00  0.00    -0.001 A 
ATOM      5  C   UNL     1      -2.125   2.775  24.938  0.00  0.00    -0.006 A 
ATOM     29  C   UNL     1      -1.742   2.763  25.669  0.00  0.00    -0.001 A 
ATOM     30  C   UNL     1      -1.146   3.310  25.831  0.00  0.00    +0.029 A 
ENDBRANCH   6   5
ENDBRANCH   7   6
TORSDOF 4
ENDMDL
MODEL 2
REMARK VINA RESULT:     -13.3      2.204      5.162
REMARK  Name = 
REMARK  4 active torsions:
REMARK  status: ('A' for Active; 'I' for Inactive)
REMARK    1  A    between atoms: C_5  and  C_6
REMARK    2  A    between atoms: C_6  and  N_7
REMARK    3  A    between atoms: C_12  and  C_13
REMARK    4  A    between atoms: C_15  and  C_18
REMARK                            x       y       z     vdW  Elec       q    Type
REMARK                         _______ _______ _______ _____ _____    ______ ____
ROOT
ATOM      7  N   UNL     1      -2.292   0.005  24.302  0.00  0.00    -0.257 NA
ATOM      8  C   UNL     1      -1.668  -0.527  24.383  0.00  0.00    +0.121 C 
ATOM      9  C   UNL     1      -0.897  -0.289  24.213  0.00  0.00    +0.090 A 
ATOM     10  C   UNL     1      -0.751   0.483  23.960  0.00  0.00    +0.077 A 
ATOM     11  C   UNL     1      -1.376   1.016  23.878  0.00  0.00    +0.073 C 
ATOM     12  C   UNL     1      -2.146   0.776  24.049  0.00  0.00    +0.144 C 
ATOM     26  N   UNL     1       0.060   0.560  23.833  0.00  0.00    -0.227 NA
ATOM     27  C   UNL     1       0.416  -0.163  24.007  0.00  0.00    +0.198 A 
ATOM     28  N   UNL     1      -0.176  -0.688  24.241  0.00  0.00    -0.226 NA
ENDROOT
BRANCH  12  13
ATOM     13  C   UNL     1      -2.770   1.309  23.968  0.00  0.00    +0.251 A 
ATOM     14  N   UNL     1      -3.140   1.722  24.578  0.00  0.00    -0.190 NA
ATOM     15  C   UNL     1      -3.733   2.192  24.248  0.00  0.00    +0.203 A 
ATOM     16  N   UNL     1      -3.730   2.069  23.433  0.00  0.00    -0.056 NA
ATOM     17  O   UNL     1      -3.135   1.523  23.259  0.00  0.00    -0.336 OA
BRANCH  15  18
ATOM     18  C   UNL     1      -4.239   2.695  24.661  0.00  0.00    +0.040 A 
ATOM     19  C   UNL     1      -4.060   3.497  24.727  0.00  0.00    +0.006 A 
ATOM     20  C   UNL     1      -4.568   4.000  25.141  0.00  0.00    +0.031 A 
ATOM     21  C   UNL     1      -5.253   3.701  25.488  0.00  0.00    +0.151 A 
ATOM     22  F   UNL     1      -5.760   4.204  25.902  0.00  0.00    -0.203 F 
ATOM     23  C   UNL     1      -5.432   2.898  25.422  0.00  0.00    +0.085 A 
ATOM     24 CL   UNL     1      -6.118   2.598  25.770  0.00  0.00    -0.080 Cl
ATOM     25  C   UNL     1      -4.925   2.395  25.009  0.00  0.00    +0.017 A 
ENDBRANCH  15  18
ENDBRANCH  12  13
BRANCH   7   6
ATOM      6  C   UNL     1      -3.063  -0.234  24.473  0.00  0.00    +0.100 C 
BRANCH   6   5
ATOM      1  F   UNL     1      -3.680  -3.381  25.252  0.00  0.00    -0.204 F 
ATOM      2  C   UNL     1      -3.526  -2.594  25.057  0.00  0.00    +0.140 A 
ATOM      3  C   UNL     1      -3.323  -2.055  25.647  0.00  0.00    +0.029 A 
ATOM      4  C   UNL     1      -3.169  -1.269  25.453  0.00  0.00    -0.001 A 
ATOM      5  C   UNL     1      -3.217  -1.021  24.667  0.00  0.00    -0.006 A 
ATOM     29  C   UNL     1      -3.420  -1.560  24.076  0.00  0.00    -0.001 A 
ATOM     30  C   UNL     1      -3.574  -2.347  24.271  0.00  0.00    +0.029 A 
ENDBRANCH   6   5
ENDBRANCH   7   6
TORSDOF 4
ENDMDL
MODEL 3
REMARK VINA RESULT:     -12.3      1.422      2.646
REMARK  Name = 
REMARK  4 active torsions:
REMARK  status: ('A' for Active; 'I' for Inactive)
REMARK    1  A    between atoms: C_5  and  C_6
REMARK    2  A    between atoms: C_6  and  N_7
REMARK    3  A    between atoms: C_12  and  C_13
REMARK    4  A    between atoms: C_15  and  C_18
REMARK                            x       y       z     vdW  Elec       q    Type
REMARK                         _______ _______ _______ _____ _____    ______ ____
ROOT
ATOM      7  N   UNL     1      -2.962   2.388  24.821  0.00  0.00    -0.257 NA
ATOM      8  C   UNL     1      -2.726   3.122  25.113  0.00  0.00    +0.121 C 
ATOM      9  C   UNL     1      -1.927   3.272  25.258  0.00  0.00    +0.090 A 
ATOM     10  C   UNL     1      -1.365   2.687  25.110  0.00  0.00    +0.077 A 
ATOM     11  C   UNL     1      -1.601   1.951  24.818  0.00  0.00    +0.073 C 
ATOM     12  C   UNL     1      -2.399   1.803  24.674  0.00  0.00    +0.144 C 
ATOM     26  N   UNL     1      -0.623   2.991  25.304  0.00  0.00    -0.227 NA
ATOM     27  C   UNL     1      -0.727   3.764  25.572  0.00  0.00    +0.198 A 
ATOM     28  N   UNL     1      -1.533   3.937  25.543  0.00  0.00    -0.226 NA
ENDROOT
BRANCH  12  13
ATOM     13  C   UNL     1      -2.634   1.068  24.381  0.00  0.00    +0.251 A 
ATOM     14  N   UNL     1      -2.753   0.384  24.826  0.00  0.00    -0.190 NA
ATOM     15  C   UNL     1      -2.985  -0.219  24.312  0.00  0.00    +0.203 A 
ATOM     16  N   UNL     1      -3.009   0.093  23.549  0.00  0.00    -0.056 NA
ATOM     17  O   UNL     1      -2.792   0.889  23.591  0.00  0.00    -0.336 OA
BRANCH  15  18
ATOM     18  C   UNL     1      -3.161  -0.996  24.524  0.00  0.00    +0.040 A 
ATOM     19  C   UNL     1      -2.816  -1.329  25.196  0.00  0.00    +0.006 A 
ATOM     20  C   UNL     1      -2.993  -2.107  25.407  0.00  0.00    +0.031 A 
ATOM     21  C   UNL     1      -3.513  -2.551  24.947  0.00  0.00    +0.151 A 
ATOM     22  F   UNL     1      -3.690  -3.329  25.159  0.00  0.00    -0.203 F 
ATOM     23  C   UNL     1      -3.858  -2.219  24.276  0.00  0.00    +0.085 A 
ATOM     24 CL   UNL     1      -4.379  -2.664  23.815  0.00  0.00    -0.080 Cl
ATOM     25  C   UNL     1      -3.682  -1.441  24.064  0.00  0.00    +0.017 A 
ENDBRANCH  15  18
ENDBRANCH  12  13
BRANCH   7   6
ATOM      6  C   UNL     1      -3.759   2.238  24.677  0.00  0.00    +0.100 C 
BRANCH   6   5
ATOM      1  F   UNL     1      -6.055   4.347  25.760  0.00  0.00    -0.204 F 
ATOM      2  C   UNL     1      -5.481   3.820  25.489  0.00  0.00    +0.140 A 
ATOM      3  C   UNL     1      -5.075   3.977  24.789  0.00  0.00    +0.029 A 
ATOM      4  C   UNL     1      -4.501   3.449  24.518  0.00  0.00    -0.001 A 
ATOM      5  C   UNL     1      -4.333   2.766  24.948  0.00  0.00    -0.006 A 
ATOM     29  C   UNL     1      -4.740   2.609  25.649  0.00  0.00    -0.001 A 
ATOM     30  C   UNL     1      -5.314   3.136  25.920  0.00  0.00    +0.029 A 
ENDBRANCH   6   5
ENDBRANCH   7   6
TORSDOF 4
ENDMDL
MODEL 4
REMARK VINA RESULT:     -12.0      2.560      5.577
REMARK  Name = 
REMARK  4 active torsions:
REMARK  status: ('A' for Active; 'I' for Inactive)
REMARK    1  A    between atoms: C_5  and  C_6
REMARK    2  A    between atoms: C_6  and  N_7
REMARK    3  A    between atoms: C_12  and  C_13
REMARK    4  A    between atoms: C_15  and  C_18
REMARK                            x       y       z     vdW  Elec       q    Type
REMARK                         _______ _______ _______ _____ _____    ______ ____
ROOT
ATOM      7  N   UNL     1      -1.757   0.084  24.377  0.00  0.00    -0.257 NA
ATOM      8  C   UNL     1      -1.289  -0.592  24.317  0.00  0.00    +0.121 C 
ATOM      9  C   UNL     1      -0.523  -0.538  24.015  0.00  0.00    +0.090 A 
ATOM     10  C   UNL     1      -0.225   0.192  23.772  0.00  0.00    +0.077 A 
ATOM     11  C   UNL     1      -0.694   0.869  23.831  0.00  0.00    +0.073 C 
ATOM     12  C   UNL     1      -1.460   0.815  24.134  0.00  0.00    +0.144 C 
ATOM     26  N   UNL     1       0.544   0.076  23.498  0.00  0.00    -0.227 NA
ATOM     27  C   UNL     1       0.722  -0.726  23.572  0.00  0.00    +0.198 A 
ATOM     28  N   UNL     1       0.063  -1.105  23.891  0.00  0.00    -0.226 NA
ENDROOT
BRANCH  12  13
ATOM     13  C   UNL     1      -1.927   1.491  24.193  0.00  0.00    +0.251 A 
ATOM     14  N   UNL     1      -1.874   2.069  24.779  0.00  0.00    -0.190 NA
ATOM     15  C   UNL     1      -2.445   2.644  24.624  0.00  0.00    +0.203 A 
ATOM     16  N   UNL     1      -2.852   2.422  23.942  0.00  0.00    -0.056 NA
ATOM     17  O   UNL     1      -2.532   1.709  23.675  0.00  0.00    -0.336 OA
BRANCH  15  18
ATOM     18  C   UNL     1      -2.584   3.322  25.073  0.00  0.00    +0.040 A 
ATOM     19  C   UNL     1      -3.224   3.349  25.593  0.00  0.00    +0.006 A 
ATOM     20  C   UNL     1      -3.362   4.028  26.041  0.00  0.00    +0.031 A 
ATOM     21  C   UNL     1      -2.861   4.679  25.970  0.00  0.00    +0.151 A 
ATOM     22  F   UNL     1      -3.000   5.358  26.418  0.00  0.00    -0.203 F 
ATOM     23  C   UNL     1      -2.222   4.652  25.450  0.00  0.00    +0.085 A 
ATOM     24 CL   UNL     1      -1.720   5.304  25.378  0.00  0.00    -0.080 Cl
ATOM     25  C   UNL     1      -2.082   3.974  25.001  0.00  0.00    +0.017 A 
ENDBRANCH  15  18
ENDBRANCH  12  13
BRANCH   7   6
ATOM      6  C   UNL     1      -2.522   0.031  24.679  0.00  0.00    +0.100 C 
BRANCH   6   5
ATOM      1  F   UNL     1      -3.803  -2.921  25.413  0.00  0.00    -0.204 F 
ATOM      2  C   UNL     1      -3.483  -2.183  25.229  0.00  0.00    +0.140 A 
ATOM      3  C   UNL     1      -3.544  -1.886  24.463  0.00  0.00    +0.029 A 
ATOM      4  C   UNL     1      -3.224  -1.148  24.279  0.00  0.00    -0.001 A 
ATOM      5  C   UNL     1      -2.842  -0.707  24.863  0.00  0.00    -0.006 A 
ATOM     29  C   UNL     1      -2.781  -1.005  25.630  0.00  0.00    -0.001 A 
ATOM     30  C   UNL     1      -3.101  -1.742  25.814  0.00  0.00    +0.029 A 
ENDBRANCH   6   5
ENDBRANCH   7   6
TORSDOF 4
ENDMDL
