MODEL 1
REMARK VINA RESULT:      -9.2      0.000      0.000
REMARK  Name = 
REMARK  7 active torsions:
REMARK  status: ('A' for Active; 'I' for Inactive)
REMARK    1  A    between atoms: C_2  and  C_4
REMARK    2  A    between atoms: C_6  and  C_7
REMARK    3  A    between atoms: C_7  and  C_8
REMARK    4  A    between atoms: C_11  and  C_13
REMARK    5  A    between atoms: C_22  and  C_23
REMARK    6  A    between atoms: C_23  and  N_24
REMARK    7  A    between atoms: N_27  and  C_30
REMARK                            x       y       z     vdW  Elec       q    Type
REMARK                         _______ _______ _______ _____ _____    ______ ____
ROOT
ATOM      4  C   UNL     1      -3.253  -0.770  25.125  0.00  0.00    +0.006 C 
ATOM      5  C   UNL     1      -3.965  -0.385  24.968  0.00  0.00    +0.005 C 
ATOM      6  C   UNL     1      -4.005   0.184  24.371  0.00  0.00    +0.027 C 
ATOM     19  C   UNL     1      -3.332   0.367  23.931  0.00  0.00    -0.048 C 
ATOM     20  C   UNL     1      -3.371   0.935  23.335  0.00  0.00    +0.026 C 
ATOM     21  C   UNL     1      -2.619  -0.018  24.088  0.00  0.00    -0.034 C 
ATOM     22  C   UNL     1      -2.580  -0.586  24.685  0.00  0.00    +0.037 C 
ENDROOT
BRANCH   4   2
ATOM      1  C   UNL     1      -3.015  -1.116  26.490  0.00  0.00    +0.000 C 
ATOM      2  C   UNL     1      -3.214  -1.338  25.721  0.00  0.00    +0.000 C 
ATOM      3  C   UNL     1      -3.373  -2.130  25.548  0.00  0.00    +0.000 C 
ENDBRANCH   4   2
BRANCH   6   7
ATOM      7  C   UNL     1      -4.717   0.568  24.215  0.00  0.00    +0.091 C 
BRANCH   7   8
ATOM      8  C   UNL     1      -5.009   1.129  24.746  0.00  0.00    +0.227 A 
ATOM      9  N   UNL     1      -5.463   0.970  25.417  0.00  0.00    -0.111 NA
ATOM     10  N   UNL     1      -5.632   1.689  25.785  0.00  0.00    -0.106 NA
ATOM     11  C   UNL     1      -5.283   2.291  25.342  0.00  0.00    +0.267 A 
ATOM     12  O   UNL     1      -4.898   1.944  24.700  0.00  0.00    -0.418 OA
BRANCH  11  13
ATOM     13  C   UNL     1      -5.314   3.098  25.510  0.00  0.00    +0.136 A 
ATOM     14  C   UNL     1      -5.987   3.574  25.482  0.00  0.00    +0.123 A 
ATOM     15  N   UNL     1      -5.766   4.341  25.692  0.00  0.00    -0.222 NA
ATOM     16  C   UNL     1      -4.956   4.339  25.849  0.00  0.00    +0.179 A 
ATOM     17  N   UNL     1      -4.676   3.571  25.737  0.00  0.00    -0.303 N 
ATOM     18  C   UNL     1      -3.897   3.320  25.835  0.00  0.00    +0.132 C 
ENDBRANCH  11  13
ENDBRANCH   7   8
ENDBRANCH   6   7
BRANCH  22  23
ATOM     23  C   UNL     1      -1.867  -0.971  24.841  0.00  0.00    +0.076 C 
BRANCH  23  24
ATOM     24  N   UNL     1      -1.168  -0.700  24.498  0.00  0.00    -0.269 NA
ATOM     25  C   UNL     1      -0.839  -1.103  23.857  0.00  0.00    +0.094 C 
ATOM     26  C   UNL     1      -0.140  -0.832  23.514  0.00  0.00    +0.110 C 
ATOM     27  N   UNL     1       0.231  -0.157  23.812  0.00  0.00    -0.289 N 
ATOM     28  C   UNL     1      -0.098   0.246  24.452  0.00  0.00    +0.110 C 
ATOM     29  C   UNL     1      -0.797  -0.026  24.795  0.00  0.00    +0.094 C 
BRANCH  27  30
ATOM     30  C   UNL     1       0.931   0.114  23.469  0.00  0.00    +0.151 A 
ATOM     31  C   UNL     1       1.271   0.819  23.730  0.00  0.00    +0.133 A 
ATOM     32  N   UNL     1       1.971   1.091  23.386  0.00  0.00    -0.238 NA
ATOM     33  C   UNL     1       2.330   0.657  22.782  0.00  0.00    +0.120 A 
ATOM     34  C   UNL     1       1.989  -0.048  22.522  0.00  0.00    +0.121 A 
ATOM     35  N   UNL     1       1.289  -0.319  22.866  0.00  0.00    -0.226 NA
ENDBRANCH  27  30
ENDBRANCH  23  24
ENDBRANCH  22  23
TORSDOF 7
ENDMDL
MODEL 2
REMARK VINA RESULT:      -9.0      2.459      4.103
REMARK  Name = 
REMARK  7 active torsions:
REMARK  status: ('A' for Active; 'I' for Inactive)
REMARK    1  A    between atoms: C_2  and  C_4
REMARK    2  A    between atoms: C_6  and  C_7
REMARK    3  A    between atoms: C_7  and  C_8
REMARK    4  A    between atoms: C_11  and  C_13
REMARK    5  A    between atoms: C_22  and  C_23
REMARK    6  A    between atoms: C_23  and  N_24
REMARK    7  A    between atoms: N_27  and  C_30
REMARK                            x       y       z     vdW  Elec       q    Type
REMARK                         _______ _______ _______ _____ _____    ______ ____
ROOT
ATOM      4  C   UNL     1      -5.174   2.018  25.033  0.00  0.00    +0.006 C 
ATOM      5  C   UNL     1      -4.901   2.770  24.835  0.00  0.00    +0.005 C 
ATOM      6  C   UNL     1      -4.305   2.858  24.272  0.00  0.00    +0.027 C 
ATOM     19  C   UNL     1      -3.981   2.192  23.907  0.00  0.00    -0.048 C 
ATOM     20  C   UNL     1      -3.384   2.279  23.344  0.00  0.00    +0.026 C 
ATOM     21  C   UNL     1      -4.254   1.439  24.106  0.00  0.00    -0.034 C 
ATOM     22  C   UNL     1      -4.851   1.352  24.669  0.00  0.00    +0.037 C 
ENDROOT
BRANCH   4   2
ATOM      1  C   UNL     1      -5.592   1.984  26.400  0.00  0.00    +0.000 C 
ATOM      2  C   UNL     1      -5.771   1.931  25.596  0.00  0.00    +0.000 C 
ATOM      3  C   UNL     1      -6.548   1.790  25.355  0.00  0.00    +0.000 C 
ENDBRANCH   4   2
BRANCH   6   7
ATOM      7  C   UNL     1      -4.032   3.610  24.073  0.00  0.00    +0.091 C 
BRANCH   7   8
ATOM      8  C   UNL     1      -3.451   3.974  24.534  0.00  0.00    +0.227 A 
ATOM      9  N   UNL     1      -3.582   4.419  25.216  0.00  0.00    -0.111 NA
ATOM     10  N   UNL     1      -2.850   4.676  25.497  0.00  0.00    -0.106 NA
ATOM     11  C   UNL     1      -2.267   4.389  24.988  0.00  0.00    +0.267 A 
ATOM     12  O   UNL     1      -2.639   3.955  24.393  0.00  0.00    -0.418 OA
BRANCH  11  13
ATOM     13  C   UNL     1      -1.455   4.514  25.062  0.00  0.00    +0.136 A 
ATOM     14  C   UNL     1      -1.040   5.176  24.796  0.00  0.00    +0.123 A 
ATOM     15  N   UNL     1      -0.244   5.070  24.983  0.00  0.00    -0.222 NA
ATOM     16  C   UNL     1      -0.166   4.343  25.365  0.00  0.00    +0.179 A 
ATOM     17  N   UNL     1      -0.915   3.999  25.414  0.00  0.00    -0.303 N 
ATOM     18  C   UNL     1      -1.092   3.269  25.754  0.00  0.00    +0.132 C 
ENDBRANCH  11  13
ENDBRANCH   7   8
ENDBRANCH   6   7
BRANCH  22  23
ATOM     23  C   UNL     1      -5.123   0.600  24.867  0.00  0.00    +0.076 C 
BRANCH  23  24
ATOM     24  N   UNL     1      -4.625  -0.052  24.792  0.00  0.00    -0.269 NA
ATOM     25  C   UNL     1      -4.653  -0.518  24.111  0.00  0.00    +0.094 C 
ATOM     26  C   UNL     1      -4.155  -1.171  24.036  0.00  0.00    +0.110 C 
ATOM     27  N   UNL     1      -3.627  -1.358  24.643  0.00  0.00    -0.289 N 
ATOM     28  C   UNL     1      -3.599  -0.894  25.323  0.00  0.00    +0.110 C 
ATOM     29  C   UNL     1      -4.097  -0.241  25.398  0.00  0.00    +0.094 C 
BRANCH  27  30
ATOM     30  C   UNL     1      -3.128  -2.012  24.568  0.00  0.00    +0.151 A 
ATOM     31  C   UNL     1      -3.446  -2.773  24.541  0.00  0.00    +0.133 A 
ATOM     32  N   UNL     1      -2.948  -3.426  24.466  0.00  0.00    -0.238 NA
ATOM     33  C   UNL     1      -2.130  -3.318  24.418  0.00  0.00    +0.120 A 
ATOM     34  C   UNL     1      -1.813  -2.556  24.444  0.00  0.00    +0.121 A 
ATOM     35  N   UNL     1      -2.312  -1.904  24.519  0.00  0.00    -0.226 NA
ENDBRANCH  27  30
ENDBRANCH  23  24
ENDBRANCH  22  23
TORSDOF 7
ENDMDL
MODEL 3
REMARK VINA RESULT:      -8.9      1.104      1.846
REMARK  Name = 
REMARK  7 active torsions:
REMARK  status: ('A' for Active; 'I' for Inactive)
REMARK    1  A    between atoms: C_2  and  C_4
REMARK    2  A    between atoms: C_6  and  C_7
REMARK    3  A    between atoms: C_7  and  C_8
REMARK    4  A    between atoms: C_11  and  C_13
REMARK    5  A    between atoms: C_22  and  C_23
REMARK    6  A    between atoms: C_23  and  N_24
REMARK    7  A    between atoms: N_27  and  C_30
REMARK                            x       y       z     vdW  Elec       q    Type
REMARK                         _______ _______ _______ _____ _____    ______ ____
ROOT
ATOM      4  C   UNL     1      -2.160   0.353  24.408  0.00  0.00    +0.006 C 
ATOM      5  C   UNL     1      -2.819   0.755  24.119  0.00  0.00    +0.005 C 
ATOM      6  C   UNL     1      -2.729   1.331  23.535  0.00  0.00    +0.027 C 
ATOM     19  C   UNL     1      -1.979   1.504  23.239  0.00  0.00    -0.048 C 
ATOM     20  C   UNL     1      -1.887   2.079  22.655  0.00  0.00    +0.026 C 
ATOM     21  C   UNL     1      -1.318   1.101  23.528  0.00  0.00    -0.034 C 
ATOM     22  C   UNL     1      -1.409   0.526  24.112  0.00  0.00    +0.037 C 
ENDROOT
BRANCH   4   2
ATOM      1  C   UNL     1      -2.510  -0.979  24.789  0.00  0.00    +0.000 C 
ATOM      2  C   UNL     1      -2.250  -0.222  24.991  0.00  0.00    +0.000 C 
ATOM      3  C   UNL     1      -2.081  -0.041  25.779  0.00  0.00    +0.000 C 
ENDBRANCH   4   2
BRANCH   6   7
ATOM      7  C   UNL     1      -3.388   1.733  23.246  0.00  0.00    +0.091 C 
BRANCH   7   8
ATOM      8  C   UNL     1      -3.830   2.216  23.750  0.00  0.00    +0.227 A 
ATOM      9  N   UNL     1      -3.827   3.041  23.756  0.00  0.00    -0.111 NA
ATOM     10  N   UNL     1      -4.347   3.293  24.345  0.00  0.00    -0.106 NA
ATOM     11  C   UNL     1      -4.671   2.624  24.702  0.00  0.00    +0.267 A 
ATOM     12  O   UNL     1      -4.351   1.958  24.334  0.00  0.00    -0.418 OA
BRANCH  11  13
ATOM     13  C   UNL     1      -5.218   2.620  25.319  0.00  0.00    +0.136 A 
ATOM     14  C   UNL     1      -5.145   3.025  26.035  0.00  0.00    +0.123 A 
ATOM     15  N   UNL     1      -5.817   2.867  26.487  0.00  0.00    -0.222 NA
ATOM     16  C   UNL     1      -6.304   2.364  26.052  0.00  0.00    +0.179 A 
ATOM     17  N   UNL     1      -5.935   2.211  25.330  0.00  0.00    -0.303 N 
ATOM     18  C   UNL     1      -6.230   1.734  24.726  0.00  0.00    +0.132 C 
ENDBRANCH  11  13
ENDBRANCH   7   8
ENDBRANCH   6   7
BRANCH  22  23
ATOM     23  C   UNL     1      -0.749   0.124  24.400  0.00  0.00    +0.076 C 
BRANCH  23  24
ATOM     24  N   UNL     1      -0.022   0.198  24.019  0.00  0.00    -0.269 NA
ATOM     25  C   UNL     1       0.221  -0.377  23.478  0.00  0.00    +0.094 C 
ATOM     26  C   UNL     1       0.948  -0.303  23.097  0.00  0.00    +0.110 C 
ATOM     27  N   UNL     1       1.433   0.345  23.256  0.00  0.00    -0.289 N 
ATOM     28  C   UNL     1       1.191   0.919  23.795  0.00  0.00    +0.110 C 
ATOM     29  C   UNL     1       0.463   0.846  24.177  0.00  0.00    +0.094 C 
BRANCH  27  30
ATOM     30  C   UNL     1       2.162   0.419  22.874  0.00  0.00    +0.151 A 
ATOM     31  C   UNL     1       2.295   0.024  22.162  0.00  0.00    +0.133 A 
ATOM     32  N   UNL     1       3.023   0.098  21.780  0.00  0.00    -0.238 NA
ATOM     33  C   UNL     1       3.617   0.567  22.110  0.00  0.00    +0.120 A 
ATOM     34  C   UNL     1       3.482   0.962  22.822  0.00  0.00    +0.121 A 
ATOM     35  N   UNL     1       2.754   0.888  23.204  0.00  0.00    -0.226 NA
ENDBRANCH  27  30
ENDBRANCH  23  24
ENDBRANCH  22  23
TORSDOF 7
ENDMDL
MODEL 4
REMARK VINA RESULT:      -8.7      2.299      4.816
REMARK  Name = 
REMARK  7 active torsions:
REMARK  status: ('A' for Active; 'I' for Inactive)
REMARK    1  A    between atoms: C_2  and  C_4
REMARK    2  A    between atoms: C_6  and  C_7
REMARK    3  A    between atoms: C_7  and  C_8
REMARK    4  A    between atoms: C_11  and  C_13
REMARK    5  A    between atoms: C_22  and  C_23
REMARK    6  A    between atoms: C_23  and  N_24
REMARK    7  A    between atoms: N_27  and  C_30
REMARK                            x       y       z     vdW  Elec       q    Type
REMARK                         _______ _______ _______ _____ _____    ______ ____
ROOT
ATOM      4  C   UNL     1      -4.952   1.229  24.915  0.00  0.00    +0.006 C 
ATOM      5  C   UNL     1      -4.867   0.451  24.657  0.00  0.00    +0.005 C 
ATOM      6  C   UNL     1      -4.291   0.262  24.097  0.00  0.00    +0.027 C 
ATOM     19  C   UNL     1      -3.800   0.852  23.796  0.00  0.00    -0.048 C 
ATOM     20  C   UNL     1      -3.224   0.664  23.237  0.00  0.00    +0.026 C 
ATOM     21  C   UNL     1      -3.885   1.632  24.054  0.00  0.00    -0.034 C 
ATOM     22  C   UNL     1      -4.461   1.820  24.614  0.00  0.00    +0.037 C 
ENDROOT
BRANCH   4   2
ATOM      1  C   UNL     1      -5.392   1.269  26.274  0.00  0.00    +0.000 C 
ATOM      2  C   UNL     1      -5.528   1.418  25.474  0.00  0.00    +0.000 C 
ATOM      3  C   UNL     1      -6.242   1.756  25.233  0.00  0.00    +0.000 C 
ENDBRANCH   4   2
BRANCH   6   7
ATOM      7  C   UNL     1      -4.206  -0.517  23.839  0.00  0.00    +0.091 C 
BRANCH   7   8
ATOM      8  C   UNL     1      -3.742  -1.046  24.271  0.00  0.00    +0.227 A 
ATOM      9  N   UNL     1      -4.022  -1.622  24.791  0.00  0.00    -0.111 NA
ATOM     10  N   UNL     1      -3.370  -2.024  25.099  0.00  0.00    -0.106 NA
ATOM     11  C   UNL     1      -2.689  -1.696  24.769  0.00  0.00    +0.267 A 
ATOM     12  O   UNL     1      -2.919  -1.092  24.257  0.00  0.00    -0.418 OA
BRANCH  11  13
ATOM     13  C   UNL     1      -1.913  -1.931  24.923  0.00  0.00    +0.136 A 
ATOM     14  C   UNL     1      -1.519  -2.564  24.570  0.00  0.00    +0.123 A 
ATOM     15  N   UNL     1      -0.757  -2.599  24.886  0.00  0.00    -0.222 NA
ATOM     16  C   UNL     1      -0.681  -1.988  25.435  0.00  0.00    +0.179 A 
ATOM     17  N   UNL     1      -1.396  -1.575  25.458  0.00  0.00    -0.303 N 
ATOM     18  C   UNL     1      -1.562  -0.921  25.932  0.00  0.00    +0.132 C 
ENDBRANCH  11  13
ENDBRANCH   7   8
ENDBRANCH   6   7
BRANCH  22  23
ATOM     23  C   UNL     1      -4.546   2.598  24.871  0.00  0.00    +0.076 C 
BRANCH  23  24
ATOM     24  N   UNL     1      -3.893   3.101  24.887  0.00  0.00    -0.269 NA
ATOM     25  C   UNL     1      -3.355   3.060  25.512  0.00  0.00    +0.094 C 
ATOM     26  C   UNL     1      -2.701   3.563  25.528  0.00  0.00    +0.110 C 
ATOM     27  N   UNL     1      -2.586   4.107  24.919  0.00  0.00    -0.289 N 
ATOM     28  C   UNL     1      -3.122   4.148  24.294  0.00  0.00    +0.110 C 
ATOM     29  C   UNL     1      -3.776   3.645  24.279  0.00  0.00    +0.094 C 
BRANCH  27  30
ATOM     30  C   UNL     1      -1.931   4.611  24.934  0.00  0.00    +0.151 A 
ATOM     31  C   UNL     1      -2.034   5.415  25.089  0.00  0.00    +0.133 A 
ATOM     32  N   UNL     1      -1.380   5.918  25.105  0.00  0.00    -0.238 NA
ATOM     33  C   UNL     1      -0.624   5.617  24.966  0.00  0.00    +0.120 A 
ATOM     34  C   UNL     1      -0.523   4.813  24.811  0.00  0.00    +0.121 A 
ATOM     35  N   UNL     1      -1.176   4.310  24.795  0.00  0.00    -0.226 NA
ENDBRANCH  27  30
ENDBRANCH  23  24
ENDBRANCH  22  23
TORSDOF 7
ENDMDL
MODEL 5
REMARK VINA RESULT:      -8.4      2.386      4.943
REMARK  Name = 
REMARK  7 active torsions:
REMARK  status: ('A' for Active; 'I' for Inactive)
REMARK    1  A    between atoms: C_2  and  C_4
REMARK    2  A    between atoms: C_6  and  C_7
REMARK    3  A    between atoms: C_7  and  C_8
REMARK    4  A    between atoms: C_11  and  C_13
REMARK    5  A    between atoms: C_22  and  C_23
REMARK    6  A    between atoms: C_23  and  N_24
REMARK    7  A    between atoms: N_27  and  C_30
REMARK                            x       y       z     vdW  Elec       q    Type
REMARK                         _______ _______ _______ _____ _____    ______ ____
ROOT
ATOM      4  C   UNL     1       0.078  -0.094  24.020  0.00  0.00    +0.006 C 
ATOM      5  C   UNL     1      -0.207  -0.809  24.315  0.00  0.00    +0.005 C 
ATOM      6  C   UNL     1      -0.642  -0.823  25.017  0.00  0.00    +0.027 C 
ATOM     19  C   UNL     1      -0.791  -0.121  25.423  0.00  0.00    -0.048 C 
ATOM     20  C   UNL     1      -1.226  -0.133  26.124  0.00  0.00    +0.026 C 
ATOM     21  C   UNL     1      -0.506   0.596  25.128  0.00  0.00    -0.034 C 
ATOM     22  C   UNL     1      -0.071   0.608  24.427  0.00  0.00    +0.037 C 
ENDROOT
BRANCH   4   2
ATOM      1  C   UNL     1       0.123  -0.069  22.592  0.00  0.00    +0.000 C 
ATOM      2  C   UNL     1       0.512  -0.080  23.320  0.00  0.00    +0.000 C 
ATOM      3  C   UNL     1       1.338  -0.078  23.346  0.00  0.00    +0.000 C 
ENDBRANCH   4   2
BRANCH   6   7
ATOM      7  C   UNL     1      -0.927  -1.538  25.311  0.00  0.00    +0.091 C 
BRANCH   7   8
ATOM      8  C   UNL     1      -1.488  -1.967  24.883  0.00  0.00    +0.227 A 
ATOM      9  N   UNL     1      -1.338  -2.636  24.423  0.00  0.00    -0.111 NA
ATOM     10  N   UNL     1      -2.053  -2.884  24.096  0.00  0.00    -0.106 NA
ATOM     11  C   UNL     1      -2.644  -2.369  24.353  0.00  0.00    +0.267 A 
ATOM     12  O   UNL     1      -2.294  -1.802  24.840  0.00  0.00    -0.418 OA
BRANCH  11  13
ATOM     13  C   UNL     1      -3.444  -2.413  24.158  0.00  0.00    +0.136 A 
ATOM     14  C   UNL     1      -3.929  -3.076  24.245  0.00  0.00    +0.123 A 
ATOM     15  N   UNL     1      -4.685  -2.874  23.983  0.00  0.00    -0.222 NA
ATOM     16  C   UNL     1      -4.668  -2.088  23.735  0.00  0.00    +0.179 A 
ATOM     17  N   UNL     1      -3.901  -1.803  23.843  0.00  0.00    -0.303 N 
ATOM     18  C   UNL     1      -3.638  -1.041  23.667  0.00  0.00    +0.132 C 
ENDBRANCH  11  13
ENDBRANCH   7   8
ENDBRANCH   6   7
BRANCH  22  23
ATOM     23  C   UNL     1       0.213   1.324  24.132  0.00  0.00    +0.076 C 
BRANCH  23  24
ATOM     24  N   UNL     1      -0.153   2.032  24.342  0.00  0.00    -0.269 NA
ATOM     25  C   UNL     1      -0.818   2.292  23.927  0.00  0.00    +0.094 C 
ATOM     26  C   UNL     1      -1.185   3.000  24.137  0.00  0.00    +0.110 C 
ATOM     27  N   UNL     1      -0.887   3.449  24.763  0.00  0.00    -0.289 N 
ATOM     28  C   UNL     1      -0.223   3.189  25.178  0.00  0.00    +0.110 C 
ATOM     29  C   UNL     1       0.144   2.481  24.967  0.00  0.00    +0.094 C 
BRANCH  27  30
ATOM     30  C   UNL     1      -1.254   4.158  24.973  0.00  0.00    +0.151 A 
ATOM     31  C   UNL     1      -0.879   4.877  24.821  0.00  0.00    +0.133 A 
ATOM     32  N   UNL     1      -1.246   5.585  25.032  0.00  0.00    -0.238 NA
ATOM     33  C   UNL     1      -1.988   5.575  25.394  0.00  0.00    +0.120 A 
ATOM     34  C   UNL     1      -2.362   4.855  25.545  0.00  0.00    +0.121 A 
ATOM     35  N   UNL     1      -1.995   4.147  25.335  0.00  0.00    -0.226 NA
ENDBRANCH  27  30
ENDBRANCH  23  24
ENDBRANCH  22  23
TORSDOF 7
ENDMDL
MODEL 6
REMARK VINA RESULT:      -8.3      1.792      3.171
REMARK  Name = 
REMARK  7 active torsions:
REMARK  status: ('A' for Active; 'I' for Inactive)
REMARK    1  A    between atoms: C_2  and  C_4
REMARK    2  A    between atoms: C_6  and  C_7
REMARK    3  A    between atoms: C_7  and  C_8
REMARK    4  A    between atoms: C_11  and  C_13
REMARK    5  A    between atoms: C_22  and  C_23
REMARK    6  A    between atoms: C_23  and  N_24
REMARK    7  A    between atoms: N_27  and  C_30
REMARK                            x       y       z     vdW  Elec       q    Type
REMARK                         _______ _______ _______ _____ _____    ______ ____
ROOT
ATOM      4  C   UNL     1      -1.724   3.134  24.822  0.00  0.00    +0.006 C 
ATOM      5  C   UNL     1      -2.434   3.510  24.638  0.00  0.00    +0.005 C 
ATOM      6  C   UNL     1      -2.941   3.183  24.074  0.00  0.00    +0.027 C 
ATOM     19  C   UNL     1      -2.736   2.481  23.694  0.00  0.00    -0.048 C 
ATOM     20  C   UNL     1      -3.241   2.154  23.130  0.00  0.00    +0.026 C 
ATOM     21  C   UNL     1      -2.024   2.104  23.877  0.00  0.00    -0.034 C 
ATOM     22  C   UNL     1      -1.519   2.431  24.441  0.00  0.00    +0.037 C 
ENDROOT
BRANCH   4   2
ATOM      1  C   UNL     1      -1.355   3.328  26.189  0.00  0.00    +0.000 C 
ATOM      2  C   UNL     1      -1.218   3.460  25.385  0.00  0.00    +0.000 C 
ATOM      3  C   UNL     1      -0.575   3.919  25.146  0.00  0.00    +0.000 C 
ENDBRANCH   4   2
BRANCH   6   7
ATOM      7  C   UNL     1      -3.651   3.559  23.890  0.00  0.00    +0.091 C 
BRANCH   7   8
ATOM      8  C   UNL     1      -4.267   3.570  24.441  0.00  0.00    +0.227 A 
ATOM      9  N   UNL     1      -4.652   4.242  24.723  0.00  0.00    -0.111 NA
ATOM     10  N   UNL     1      -5.228   3.998  25.262  0.00  0.00    -0.106 NA
ATOM     11  C   UNL     1      -5.198   3.175  25.311  0.00  0.00    +0.267 A 
ATOM     12  O   UNL     1      -4.603   2.911  24.803  0.00  0.00    -0.418 OA
BRANCH  11  13
ATOM     13  C   UNL     1      -5.677   2.700  25.785  0.00  0.00    +0.136 A 
ATOM     14  C   UNL     1      -5.723   2.725  26.608  0.00  0.00    +0.123 A 
ATOM     15  N   UNL     1      -6.270   2.156  26.851  0.00  0.00    -0.222 NA
ATOM     16  C   UNL     1      -6.562   1.780  26.178  0.00  0.00    +0.179 A 
ATOM     17  N   UNL     1      -6.196   2.116  25.518  0.00  0.00    -0.303 N 
ATOM     18  C   UNL     1      -6.326   1.904  24.732  0.00  0.00    +0.132 C 
ENDBRANCH  11  13
ENDBRANCH   7   8
ENDBRANCH   6   7
BRANCH  22  23
ATOM     23  C   UNL     1      -0.808   2.054  24.625  0.00  0.00    +0.076 C 
BRANCH  23  24
ATOM     24  N   UNL     1      -0.781   1.233  24.689  0.00  0.00    -0.269 NA
ATOM     25  C   UNL     1      -0.436   0.783  24.090  0.00  0.00    +0.094 C 
ATOM     26  C   UNL     1      -0.409  -0.039  24.154  0.00  0.00    +0.110 C 
ATOM     27  N   UNL     1      -0.727  -0.411  24.819  0.00  0.00    -0.289 N 
ATOM     28  C   UNL     1      -1.072   0.038  25.418  0.00  0.00    +0.110 C 
ATOM     29  C   UNL     1      -1.099   0.860  25.353  0.00  0.00    +0.094 C 
BRANCH  27  30
ATOM     30  C   UNL     1      -0.700  -1.234  24.884  0.00  0.00    +0.151 A 
ATOM     31  C   UNL     1      -1.301  -1.693  24.553  0.00  0.00    +0.133 A 
ATOM     32  N   UNL     1      -1.274  -2.515  24.618  0.00  0.00    -0.238 NA
ATOM     33  C   UNL     1      -0.646  -2.878  25.013  0.00  0.00    +0.120 A 
ATOM     34  C   UNL     1      -0.047  -2.418  25.343  0.00  0.00    +0.121 A 
ATOM     35  N   UNL     1      -0.074  -1.596  25.278  0.00  0.00    -0.226 NA
ENDBRANCH  27  30
ENDBRANCH  23  24
ENDBRANCH  22  23
TORSDOF 7
ENDMDL
MODEL 7
REMARK VINA RESULT:      -8.2      2.075      6.642
REMARK  Name = 
REMARK  7 active torsions:
REMARK  status: ('A' for Active; 'I' for Inactive)
REMARK    1  A    between atoms: C_2  and  C_4
REMARK    2  A    between atoms: C_6  and  C_7
REMARK    3  A    between atoms: C_7  and  C_8
REMARK    4  A    between atoms: C_11  and  C_13
REMARK    5  A    between atoms: C_22  and  C_23
REMARK    6  A    between atoms: C_23  and  N_24
REMARK    7  A    between atoms: N_27  and  C_30
REMARK                            x       y       z     vdW  Elec       q    Type
REMARK                         _______ _______ _______ _____ _____    ______ ____
ROOT
ATOM      4  C   UNL     1      -0.351   2.039  24.288  0.00  0.00    +0.006 C 
ATOM      5  C   UNL     1       0.119   1.372  24.173  0.00  0.00    +0.005 C 
ATOM      6  C   UNL     1      -0.225   0.658  23.941  0.00  0.00    +0.027 C 
ATOM     19  C   UNL     1      -1.040   0.613  23.825  0.00  0.00    -0.048 C 
ATOM     20  C   UNL     1      -1.386  -0.100  23.593  0.00  0.00    +0.026 C 
ATOM     21  C   UNL     1      -1.512   1.281  23.940  0.00  0.00    -0.034 C 
ATOM     22  C   UNL     1      -1.167   1.993  24.172  0.00  0.00    +0.037 C 
ENDROOT
BRANCH   4   2
ATOM      1  C   UNL     1       0.134   3.342  23.962  0.00  0.00    +0.000 C 
ATOM      2  C   UNL     1      -0.007   2.751  24.520  0.00  0.00    +0.000 C 
ATOM      3  C   UNL     1       0.196   2.873  25.311  0.00  0.00    +0.000 C 
ENDBRANCH   4   2
BRANCH   6   7
ATOM      7  C   UNL     1       0.245  -0.009  23.826  0.00  0.00    +0.091 C 
BRANCH   7   8
ATOM      8  C   UNL     1       0.903   0.031  23.328  0.00  0.00    +0.227 A 
ATOM      9  N   UNL     1       0.910  -0.141  22.521  0.00  0.00    -0.111 NA
ATOM     10  N   UNL     1       1.679  -0.029  22.244  0.00  0.00    -0.106 NA
ATOM     11  C   UNL     1       2.146   0.212  22.880  0.00  0.00    +0.267 A 
ATOM     12  O   UNL     1       1.666   0.249  23.550  0.00  0.00    -0.418 OA
BRANCH  11  13
ATOM     13  C   UNL     1       2.952   0.386  22.851  0.00  0.00    +0.136 A 
ATOM     14  C   UNL     1       3.285   1.110  22.635  0.00  0.00    +0.123 A 
ATOM     15  N   UNL     1       4.106   1.038  22.684  0.00  0.00    -0.222 NA
ATOM     16  C   UNL     1       4.280   0.270  22.929  0.00  0.00    +0.179 A 
ATOM     17  N   UNL     1       3.567  -0.133  23.033  0.00  0.00    -0.303 N 
ATOM     18  C   UNL     1       3.485  -0.917  23.275  0.00  0.00    +0.132 C 
ENDBRANCH  11  13
ENDBRANCH   7   8
ENDBRANCH   6   7
BRANCH  22  23
ATOM     23  C   UNL     1      -1.638   2.660  24.287  0.00  0.00    +0.076 C 
BRANCH  23  24
ATOM     24  N   UNL     1      -2.438   2.575  24.465  0.00  0.00    -0.269 NA
ATOM     25  C   UNL     1      -3.005   2.649  23.869  0.00  0.00    +0.094 C 
ATOM     26  C   UNL     1      -3.805   2.563  24.048  0.00  0.00    +0.110 C 
ATOM     27  N   UNL     1      -4.040   2.403  24.822  0.00  0.00    -0.289 N 
ATOM     28  C   UNL     1      -3.475   2.329  25.418  0.00  0.00    +0.110 C 
ATOM     29  C   UNL     1      -2.674   2.415  25.239  0.00  0.00    +0.094 C 
BRANCH  27  30
ATOM     30  C   UNL     1      -4.842   2.317  25.001  0.00  0.00    +0.151 A 
ATOM     31  C   UNL     1      -5.237   2.909  25.417  0.00  0.00    +0.133 A 
ATOM     32  N   UNL     1      -6.038   2.824  25.596  0.00  0.00    -0.238 NA
ATOM     33  C   UNL     1      -6.443   2.145  25.358  0.00  0.00    +0.120 A 
ATOM     34  C   UNL     1      -6.047   1.553  24.942  0.00  0.00    +0.121 A 
ATOM     35  N   UNL     1      -5.246   1.639  24.764  0.00  0.00    -0.226 NA
ENDBRANCH  27  30
ENDBRANCH  23  24
ENDBRANCH  22  23
TORSDOF 7
ENDMDL
