MODEL 1
REMARK VINA RESULT:      -9.4      0.000      0.000
REMARK  Name = 
REMARK  7 active torsions:
REMARK  status: ('A' for Active; 'I' for Inactive)
REMARK    1  A    between atoms: S_2  and  C_5
REMARK    2  A    between atoms: C_8  and  C_9
REMARK    3  A    between atoms: C_9  and  N_10
REMARK    4  A    between atoms: N_10  and  C_11
REMARK    5  A    between atoms: C_14  and  C_15
REMARK    6  A    between atoms: C_15  and  N_16
REMARK    7  A    between atoms: C_17  and  C_19
REMARK                            x       y       z     vdW  Elec       q    Type
REMARK                         _______ _______ _______ _____ _____    ______ ____
ROOT
ATOM     11  C   UNL     1      -4.142   1.553  24.637  0.00  0.00    +0.135 C 
ATOM     12  C   UNL     1      -4.744   1.966  25.023  0.00  0.00    +0.162 C 
ATOM     13  O   UNL     1      -4.441   2.695  25.262  0.00  0.00    -0.350 OA
ATOM     14  C   UNL     1      -3.652   2.733  25.025  0.00  0.00    +0.169 C 
ATOM     25  C   UNL     1      -3.467   2.028  24.639  0.00  0.00    +0.199 C 
ATOM     26  O   UNL     1      -2.736   1.831  24.311  0.00  0.00    -0.219 OA
ENDROOT
BRANCH  11  10
ATOM     10  N   UNL     1      -4.204   0.799  24.308  0.00  0.00    -0.209 NA
BRANCH  10   9
ATOM      9  C   UNL     1      -4.514   0.179  24.756  0.00  0.00    +0.115 C 
BRANCH   9   8
ATOM      5  C   UNL     1      -3.635  -2.116  24.462  0.00  0.00    +0.106 A 
ATOM      6  C   UNL     1      -4.024  -1.741  23.840  0.00  0.00    +0.018 A 
ATOM      7  C   UNL     1      -4.317  -0.976  23.938  0.00  0.00    -0.002 A 
ATOM      8  C   UNL     1      -4.221  -0.586  24.658  0.00  0.00    -0.005 A 
ATOM     27  C   UNL     1      -3.831  -0.962  25.281  0.00  0.00    -0.002 A 
ATOM     28  C   UNL     1      -3.538  -1.727  25.184  0.00  0.00    +0.018 A 
BRANCH   5   2
ATOM      1  C   UNL     1      -3.049  -3.646  24.267  0.00  0.00    +0.182 C 
ATOM      2  S   UNL     1      -3.342  -2.881  24.365  0.00  0.00    +0.010 S 
ATOM      3  O   UNL     1      -2.574  -2.601  24.476  0.00  0.00    -0.169 OA
ATOM      4  O   UNL     1      -4.110  -3.161  24.253  0.00  0.00    -0.169 OA
ENDBRANCH   5   2
ENDBRANCH   9   8
ENDBRANCH  10   9
ENDBRANCH  11  10
BRANCH  14  15
ATOM     15  C   UNL     1      -3.138   3.366  25.151  0.00  0.00    +0.148 C 
BRANCH  15  16
ATOM     16  N   UNL     1      -3.298   3.916  25.745  0.00  0.00    -0.199 NA
ATOM     17  C   UNL     1      -2.725   4.469  25.960  0.00  0.00    +0.265 C 
ATOM     18  O   UNL     1      -2.885   5.019  26.554  0.00  0.00    -0.268 OA
BRANCH  17  19
ATOM     19  C   UNL     1      -1.992   4.473  25.581  0.00  0.00    +0.058 A 
ATOM     20  C   UNL     1      -1.847   5.009  24.971  0.00  0.00    +0.025 A 
ATOM     21  C   UNL     1      -1.114   5.013  24.592  0.00  0.00    +0.099 A 
ATOM     22  N   UNL     1      -0.527   4.482  24.823  0.00  0.00    -0.242 NA
ATOM     23  C   UNL     1      -0.672   3.947  25.433  0.00  0.00    +0.099 A 
ATOM     24  C   UNL     1      -1.405   3.942  25.812  0.00  0.00    +0.025 A 
ENDBRANCH  17  19
ENDBRANCH  15  16
ENDBRANCH  14  15
TORSDOF 7
ENDMDL
MODEL 2
REMARK VINA RESULT:      -8.9      2.081      5.938
REMARK  Name = 
REMARK  7 active torsions:
REMARK  status: ('A' for Active; 'I' for Inactive)
REMARK    1  A    between atoms: S_2  and  C_5
REMARK    2  A    between atoms: C_8  and  C_9
REMARK    3  A    between atoms: C_9  and  N_10
REMARK    4  A    between atoms: N_10  and  C_11
REMARK    5  A    between atoms: C_14  and  C_15
REMARK    6  A    between atoms: C_15  and  N_16
REMARK    7  A    between atoms: C_17  and  C_19
REMARK                            x       y       z     vdW  Elec       q    Type
REMARK                         _______ _______ _______ _____ _____    ______ ____
ROOT
ATOM     11  C   UNL     1      -4.055   1.459  24.616  0.00  0.00    +0.135 C 
ATOM     12  C   UNL     1      -4.724   1.214  25.033  0.00  0.00    +0.162 C 
ATOM     13  O   UNL     1      -4.735   0.389  25.036  0.00  0.00    -0.350 OA
ATOM     14  C   UNL     1      -4.074   0.124  24.620  0.00  0.00    +0.169 C 
ATOM     25  C   UNL     1      -3.653   0.785  24.360  0.00  0.00    +0.199 C 
ATOM     26  O   UNL     1      -2.954   0.774  23.922  0.00  0.00    -0.219 OA
ENDROOT
BRANCH  11  10
ATOM     10  N   UNL     1      -3.828   2.240  24.478  0.00  0.00    -0.209 NA
BRANCH  10   9
ATOM      9  C   UNL     1      -3.730   2.758  25.112  0.00  0.00    +0.115 C 
BRANCH   9   8
ATOM      5  C   UNL     1      -1.932   4.458  25.053  0.00  0.00    +0.106 A 
ATOM      6  C   UNL     1      -2.492   4.429  24.448  0.00  0.00    +0.018 A 
ATOM      7  C   UNL     1      -3.091   3.862  24.468  0.00  0.00    -0.002 A 
ATOM      8  C   UNL     1      -3.131   3.325  25.092  0.00  0.00    -0.005 A 
ATOM     27  C   UNL     1      -2.570   3.354  25.698  0.00  0.00    -0.002 A 
ATOM     28  C   UNL     1      -1.971   3.921  25.678  0.00  0.00    +0.018 A 
BRANCH   5   2
ATOM      1  C   UNL     1      -0.733   5.591  25.013  0.00  0.00    +0.182 C 
ATOM      2  S   UNL     1      -1.333   5.024  25.033  0.00  0.00    +0.010 S 
ATOM      3  O   UNL     1      -1.848   5.581  25.356  0.00  0.00    -0.169 OA
ATOM      4  O   UNL     1      -0.817   4.467  24.710  0.00  0.00    -0.169 OA
ENDBRANCH   5   2
ENDBRANCH   9   8
ENDBRANCH  10   9
ENDBRANCH  11  10
BRANCH  14  15
ATOM     15  C   UNL     1      -3.868  -0.664  24.487  0.00  0.00    +0.148 C 
BRANCH  15  16
ATOM     16  N   UNL     1      -4.392  -1.167  24.095  0.00  0.00    -0.199 NA
ATOM     17  C   UNL     1      -4.223  -1.972  24.035  0.00  0.00    +0.265 C 
ATOM     18  O   UNL     1      -4.747  -2.475  23.643  0.00  0.00    -0.268 OA
BRANCH  17  19
ATOM     19  C   UNL     1      -3.531  -2.275  24.366  0.00  0.00    +0.058 A 
ATOM     20  C   UNL     1      -2.840  -2.311  23.915  0.00  0.00    +0.025 A 
ATOM     21  C   UNL     1      -2.148  -2.614  24.246  0.00  0.00    +0.099 A 
ATOM     22  N   UNL     1      -2.146  -2.880  25.027  0.00  0.00    -0.242 NA
ATOM     23  C   UNL     1      -2.836  -2.844  25.477  0.00  0.00    +0.099 A 
ATOM     24  C   UNL     1      -3.529  -2.541  25.147  0.00  0.00    +0.025 A 
ENDBRANCH  17  19
ENDBRANCH  15  16
ENDBRANCH  14  15
TORSDOF 7
ENDMDL
MODEL 3
REMARK VINA RESULT:      -8.6      4.279      6.294
REMARK  Name = 
REMARK  7 active torsions:
REMARK  status: ('A' for Active; 'I' for Inactive)
REMARK    1  A    between atoms: S_2  and  C_5
REMARK    2  A    between atoms: C_8  and  C_9
REMARK    3  A    between atoms: C_9  and  N_10
REMARK    4  A    between atoms: N_10  and  C_11
REMARK    5  A    between atoms: C_14  and  C_15
REMARK    6  A    between atoms: C_15  and  N_16
REMARK    7  A    between atoms: C_17  and  C_19
REMARK                            x       y       z     vdW  Elec       q    Type
REMARK                         _______ _______ _______ _____ _____    ______ ____
ROOT
ATOM     11  C   UNL     1      -0.332   0.199  23.945  0.00  0.00    +0.135 C 
ATOM     12  C   UNL     1      -0.784   0.882  23.843  0.00  0.00    +0.162 C 
ATOM     13  O   UNL     1      -1.562   0.708  24.058  0.00  0.00    -0.350 OA
ATOM     14  C   UNL     1      -1.590  -0.082  24.294  0.00  0.00    +0.169 C 
ATOM     25  C   UNL     1      -0.831  -0.397  24.224  0.00  0.00    +0.199 C 
ATOM     26  O   UNL     1      -0.608  -1.171  24.402  0.00  0.00    -0.219 OA
ENDROOT
BRANCH  11  10
ATOM     10  N   UNL     1       0.475   0.125  23.795  0.00  0.00    -0.209 NA
BRANCH  10   9
ATOM      9  C   UNL     1       0.817   0.536  23.167  0.00  0.00    +0.115 C 
BRANCH   9   8
ATOM      5  C   UNL     1       3.265   0.441  22.814  0.00  0.00    +0.106 A 
ATOM      6  C   UNL     1       2.778  -0.135  22.481  0.00  0.00    +0.018 A 
ATOM      7  C   UNL     1       1.962  -0.103  22.599  0.00  0.00    -0.002 A 
ATOM      8  C   UNL     1       1.633   0.505  23.049  0.00  0.00    -0.005 A 
ATOM     27  C   UNL     1       2.121   1.081  23.383  0.00  0.00    -0.002 A 
ATOM     28  C   UNL     1       2.937   1.050  23.265  0.00  0.00    +0.018 A 
BRANCH   5   2
ATOM      1  C   UNL     1       4.897   0.378  22.578  0.00  0.00    +0.182 C 
ATOM      2  S   UNL     1       4.081   0.409  22.696  0.00  0.00    +0.010 S 
ATOM      3  O   UNL     1       4.013   0.952  22.078  0.00  0.00    -0.169 OA
ATOM      4  O   UNL     1       4.149  -0.133  23.314  0.00  0.00    -0.169 OA
ENDBRANCH   5   2
ENDBRANCH   9   8
ENDBRANCH  10   9
ENDBRANCH  11  10
BRANCH  14  15
ATOM     15  C   UNL     1      -2.260  -0.487  24.554  0.00  0.00    +0.148 C 
BRANCH  15  16
ATOM     16  N   UNL     1      -2.865  -0.079  24.942  0.00  0.00    -0.199 NA
ATOM     17  C   UNL     1      -3.589  -0.448  25.077  0.00  0.00    +0.265 C 
ATOM     18  O   UNL     1      -4.193  -0.041  25.465  0.00  0.00    -0.268 OA
BRANCH  17  19
ATOM     19  C   UNL     1      -3.712  -1.224  24.824  0.00  0.00    +0.058 A 
ATOM     20  C   UNL     1      -3.479  -1.855  25.304  0.00  0.00    +0.025 A 
ATOM     21  C   UNL     1      -3.601  -2.631  25.051  0.00  0.00    +0.099 A 
ATOM     22  N   UNL     1      -3.956  -2.776  24.321  0.00  0.00    -0.242 NA
ATOM     23  C   UNL     1      -4.188  -2.146  23.843  0.00  0.00    +0.099 A 
ATOM     24  C   UNL     1      -4.066  -1.369  24.094  0.00  0.00    +0.025 A 
ENDBRANCH  17  19
ENDBRANCH  15  16
ENDBRANCH  14  15
TORSDOF 7
ENDMDL
MODEL 4
REMARK VINA RESULT:      -8.4      2.514      6.240
REMARK  Name = 
REMARK  7 active torsions:
REMARK  status: ('A' for Active; 'I' for Inactive)
REMARK    1  A    between atoms: S_2  and  C_5
REMARK    2  A    between atoms: C_8  and  C_9
REMARK    3  A    between atoms: C_9  and  N_10
REMARK    4  A    between atoms: N_10  and  C_11
REMARK    5  A    between atoms: C_14  and  C_15
REMARK    6  A    between atoms: C_15  and  N_16
REMARK    7  A    between atoms: C_17  and  C_19
REMARK                            x       y       z     vdW  Elec       q    Type
REMARK                         _______ _______ _______ _____ _____    ______ ____
ROOT
ATOM     11  C   UNL     1      -1.004   0.700  24.848  0.00  0.00    +0.135 C 
ATOM     12  C   UNL     1      -0.588   0.200  25.356  0.00  0.00    +0.162 C 
ATOM     13  O   UNL     1      -1.045  -0.477  25.478  0.00  0.00    -0.350 OA
ATOM     14  C   UNL     1      -1.743  -0.394  25.045  0.00  0.00    +0.169 C 
ATOM     25  C   UNL     1      -1.717   0.333  24.656  0.00  0.00    +0.199 C 
ATOM     26  O   UNL     1      -2.302   0.640  24.162  0.00  0.00    -0.219 OA
ENDROOT
BRANCH  11  10
ATOM     10  N   UNL     1      -0.750   1.438  24.580  0.00  0.00    -0.209 NA
BRANCH  10   9
ATOM      9  C   UNL     1      -0.403   1.971  25.106  0.00  0.00    +0.115 C 
BRANCH   9   8
ATOM      5  C   UNL     1      -1.011   4.368  25.017  0.00  0.00    +0.106 A 
ATOM      6  C   UNL     1      -0.604   4.023  24.389  0.00  0.00    +0.018 A 
ATOM      7  C   UNL     1      -0.401   3.223  24.418  0.00  0.00    -0.002 A 
ATOM      8  C   UNL     1      -0.606   2.770  25.076  0.00  0.00    -0.005 A 
ATOM     27  C   UNL     1      -1.013   3.116  25.705  0.00  0.00    -0.002 A 
ATOM     28  C   UNL     1      -1.216   3.915  25.675  0.00  0.00    +0.018 A 
BRANCH   5   2
ATOM      1  C   UNL     1      -1.416   5.966  24.957  0.00  0.00    +0.182 C 
ATOM      2  S   UNL     1      -1.214   5.167  24.987  0.00  0.00    +0.010 S 
ATOM      3  O   UNL     1      -0.479   5.341  24.653  0.00  0.00    -0.169 OA
ATOM      4  O   UNL     1      -1.948   4.994  25.321  0.00  0.00    -0.169 OA
ENDBRANCH   5   2
ENDBRANCH   9   8
ENDBRANCH  10   9
ENDBRANCH  11  10
BRANCH  14  15
ATOM     15  C   UNL     1      -2.358  -0.942  25.008  0.00  0.00    +0.148 C 
BRANCH  15  16
ATOM     16  N   UNL     1      -2.683  -1.247  25.703  0.00  0.00    -0.199 NA
ATOM     17  C   UNL     1      -3.290  -1.802  25.665  0.00  0.00    +0.265 C 
ATOM     18  O   UNL     1      -3.615  -2.107  26.360  0.00  0.00    -0.268 OA
BRANCH  17  19
ATOM     19  C   UNL     1      -3.574  -2.055  24.932  0.00  0.00    +0.058 A 
ATOM     20  C   UNL     1      -4.164  -1.624  24.548  0.00  0.00    +0.025 A 
ATOM     21  C   UNL     1      -4.448  -1.876  23.816  0.00  0.00    +0.099 A 
ATOM     22  N   UNL     1      -4.143  -2.559  23.468  0.00  0.00    -0.242 NA
ATOM     23  C   UNL     1      -3.554  -2.989  23.852  0.00  0.00    +0.099 A 
ATOM     24  C   UNL     1      -3.269  -2.737  24.585  0.00  0.00    +0.025 A 
ENDBRANCH  17  19
ENDBRANCH  15  16
ENDBRANCH  14  15
TORSDOF 7
ENDMDL
MODEL 5
REMARK VINA RESULT:      -8.2      4.190      5.413
REMARK  Name = 
REMARK  7 active torsions:
REMARK  status: ('A' for Active; 'I' for Inactive)
REMARK    1  A    between atoms: S_2  and  C_5
REMARK    2  A    between atoms: C_8  and  C_9
REMARK    3  A    between atoms: C_9  and  N_10
REMARK    4  A    between atoms: N_10  and  C_11
REMARK    5  A    between atoms: C_14  and  C_15
REMARK    6  A    between atoms: C_15  and  N_16
REMARK    7  A    between atoms: C_17  and  C_19
REMARK                            x       y       z     vdW  Elec       q    Type
REMARK                         _______ _______ _______ _____ _____    ______ ____
ROOT
ATOM     11  C   UNL     1      -0.515   0.298  24.050  0.00  0.00    +0.135 C 
ATOM     12  C   UNL     1      -0.394  -0.519  24.062  0.00  0.00    +0.162 C 
ATOM     13  O   UNL     1       0.341  -0.673  23.720  0.00  0.00    -0.350 OA
ATOM     14  C   UNL     1       0.674   0.048  23.497  0.00  0.00    +0.169 C 
ATOM     25  C   UNL     1       0.145   0.648  23.701  0.00  0.00    +0.199 C 
ATOM     26  O   UNL     1       0.256   1.456  23.577  0.00  0.00    -0.219 OA
ENDROOT
BRANCH  11  10
ATOM     10  N   UNL     1      -1.180   0.693  24.338  0.00  0.00    -0.209 NA
BRANCH  10   9
ATOM      9  C   UNL     1      -1.846   0.265  24.569  0.00  0.00    +0.115 C 
BRANCH   9   8
ATOM      5  C   UNL     1      -4.034   1.404  24.778  0.00  0.00    +0.106 A 
ATOM      6  C   UNL     1      -3.351   1.769  25.060  0.00  0.00    +0.018 A 
ATOM      7  C   UNL     1      -2.622   1.390  24.990  0.00  0.00    -0.002 A 
ATOM      8  C   UNL     1      -2.576   0.645  24.638  0.00  0.00    -0.005 A 
ATOM     27  C   UNL     1      -3.260   0.279  24.356  0.00  0.00    -0.002 A 
ATOM     28  C   UNL     1      -3.989   0.659  24.426  0.00  0.00    +0.018 A 
BRANCH   5   2
ATOM      1  C   UNL     1      -5.493   2.163  24.917  0.00  0.00    +0.182 C 
ATOM      2  S   UNL     1      -4.763   1.783  24.848  0.00  0.00    +0.010 S 
ATOM      3  O   UNL     1      -4.996   1.232  25.416  0.00  0.00    -0.169 OA
ATOM      4  O   UNL     1      -4.531   2.335  24.280  0.00  0.00    -0.169 OA
ENDBRANCH   5   2
ENDBRANCH   9   8
ENDBRANCH  10   9
ENDBRANCH  11  10
BRANCH  14  15
ATOM     15  C   UNL     1       1.407   0.152  23.133  0.00  0.00    +0.148 C 
BRANCH  15  16
ATOM     16  N   UNL     1       1.507  -0.052  22.340  0.00  0.00    -0.199 NA
ATOM     17  C   UNL     1       2.262  -0.059  22.008  0.00  0.00    +0.265 C 
ATOM     18  O   UNL     1       2.362  -0.263  21.215  0.00  0.00    -0.268 OA
BRANCH  17  19
ATOM     19  C   UNL     1       2.917   0.140  22.469  0.00  0.00    +0.058 A 
ATOM     20  C   UNL     1       3.199   0.915  22.471  0.00  0.00    +0.025 A 
ATOM     21  C   UNL     1       3.855   1.114  22.932  0.00  0.00    +0.099 A 
ATOM     22  N   UNL     1       4.228   0.537  23.389  0.00  0.00    -0.242 NA
ATOM     23  C   UNL     1       3.946  -0.238  23.386  0.00  0.00    +0.099 A 
ATOM     24  C   UNL     1       3.290  -0.437  22.926  0.00  0.00    +0.025 A 
ENDBRANCH  17  19
ENDBRANCH  15  16
ENDBRANCH  14  15
TORSDOF 7
ENDMDL
MODEL 6
REMARK VINA RESULT:      -8.1      3.765      4.948
REMARK  Name = 
REMARK  7 active torsions:
REMARK  status: ('A' for Active; 'I' for Inactive)
REMARK    1  A    between atoms: S_2  and  C_5
REMARK    2  A    between atoms: C_8  and  C_9
REMARK    3  A    between atoms: C_9  and  N_10
REMARK    4  A    between atoms: N_10  and  C_11
REMARK    5  A    between atoms: C_14  and  C_15
REMARK    6  A    between atoms: C_15  and  N_16
REMARK    7  A    between atoms: C_17  and  C_19
REMARK                            x       y       z     vdW  Elec       q    Type
REMARK                         _______ _______ _______ _____ _____    ______ ____
ROOT
ATOM     11  C   UNL     1      -1.169   0.772  23.979  0.00  0.00    +0.135 C 
ATOM     12  C   UNL     1      -1.454   0.127  24.409  0.00  0.00    +0.162 C 
ATOM     13  O   UNL     1      -2.222   0.303  24.654  0.00  0.00    -0.350 OA
ATOM     14  C   UNL     1      -2.412   1.056  24.376  0.00  0.00    +0.169 C 
ATOM     25  C   UNL     1      -1.762   1.346  23.959  0.00  0.00    +0.199 C 
ATOM     26  O   UNL     1      -1.712   2.081  23.586  0.00  0.00    -0.219 OA
ENDROOT
BRANCH  11  10
ATOM     10  N   UNL     1      -0.424   0.832  23.631  0.00  0.00    -0.209 NA
BRANCH  10   9
ATOM      9  C   UNL     1       0.094   0.190  23.654  0.00  0.00    +0.115 C 
BRANCH   9   8
ATOM      5  C   UNL     1       2.407   0.437  22.807  0.00  0.00    +0.106 A 
ATOM      6  C   UNL     1       1.925  -0.166  22.519  0.00  0.00    +0.018 A 
ATOM      7  C   UNL     1       1.154  -0.248  22.801  0.00  0.00    -0.002 A 
ATOM      8  C   UNL     1       0.865   0.272  23.371  0.00  0.00    -0.005 A 
ATOM     27  C   UNL     1       1.348   0.877  23.660  0.00  0.00    -0.002 A 
ATOM     28  C   UNL     1       2.119   0.959  23.378  0.00  0.00    +0.018 A 
BRANCH   5   2
ATOM      1  C   UNL     1       3.948   0.603  22.243  0.00  0.00    +0.182 C 
ATOM      2  S   UNL     1       3.177   0.520  22.525  0.00  0.00    +0.010 S 
ATOM      3  O   UNL     1       2.960   0.146  21.822  0.00  0.00    -0.169 OA
ATOM      4  O   UNL     1       3.395   0.894  23.227  0.00  0.00    -0.169 OA
ENDBRANCH   5   2
ENDBRANCH   9   8
ENDBRANCH  10   9
ENDBRANCH  11  10
BRANCH  14  15
ATOM     15  C   UNL     1      -3.127   1.450  24.494  0.00  0.00    +0.148 C 
BRANCH  15  16
ATOM     16  N   UNL     1      -3.822   1.020  24.608  0.00  0.00    -0.199 NA
ATOM     17  C   UNL     1      -4.519   1.410  24.812  0.00  0.00    +0.265 C 
ATOM     18  O   UNL     1      -5.214   0.980  24.926  0.00  0.00    -0.268 OA
BRANCH  17  19
ATOM     19  C   UNL     1      -4.522   2.230  24.903  0.00  0.00    +0.058 A 
ATOM     20  C   UNL     1      -4.660   2.716  24.250  0.00  0.00    +0.025 A 
ATOM     21  C   UNL     1      -4.664   3.536  24.341  0.00  0.00    +0.099 A 
ATOM     22  N   UNL     1      -4.530   3.870  25.083  0.00  0.00    -0.242 NA
ATOM     23  C   UNL     1      -4.392   3.385  25.735  0.00  0.00    +0.099 A 
ATOM     24  C   UNL     1      -4.389   2.564  25.645  0.00  0.00    +0.025 A 
ENDBRANCH  17  19
ENDBRANCH  15  16
ENDBRANCH  14  15
TORSDOF 7
ENDMDL
