MODEL 1
REMARK VINA RESULT:     -10.2      0.000      0.000
REMARK  Name = 
REMARK  6 active torsions:
REMARK  status: ('A' for Active; 'I' for Inactive)
REMARK    1  A    between atoms: C_2  and  C_5
REMARK    2  A    between atoms: C_5  and  C_6
REMARK    3  A    between atoms: N_8  and  C_9
REMARK    4  A    between atoms: C_9  and  C_10
REMARK    5  A    between atoms: C_13  and  N_14
REMARK    6  A    between atoms: N_14  and  C_15
REMARK                            x       y       z     vdW  Elec       q    Type
REMARK                         _______ _______ _______ _____ _____    ______ ____
ROOT
ATOM     10  C   UNL     1      -3.282   1.324  24.532  0.00  0.00    +0.169 C 
ATOM     11  O   UNL     1      -2.680   0.807  24.307  0.00  0.00    -0.350 OA
ATOM     12  C   UNL     1      -2.990   0.043  24.291  0.00  0.00    +0.162 C 
ATOM     13  C   UNL     1      -3.786   0.087  24.506  0.00  0.00    +0.135 C 
ATOM     20  C   UNL     1      -3.967   0.879  24.655  0.00  0.00    +0.199 C 
ATOM     21  O   UNL     1      -4.701   1.174  24.885  0.00  0.00    -0.219 OA
ENDROOT
BRANCH  10   9
ATOM      9  C   UNL     1      -3.213   2.141  24.619  0.00  0.00    +0.147 C 
BRANCH   9   8
ATOM      6  C   UNL     1      -2.437   3.274  25.015  0.00  0.00    +0.241 C 
ATOM      7  O   UNL     1      -2.946   3.769  24.593  0.00  0.00    -0.273 OA
ATOM      8  N   UNL     1      -2.571   2.460  25.027  0.00  0.00    -0.203 NA
BRANCH   6   5
ATOM      5  C   UNL     1      -1.795   3.593  25.423  0.00  0.00    +0.087 C 
BRANCH   5   2
ATOM      1  C   UNL     1      -1.251   5.106  25.052  0.00  0.00    +0.000 C 
ATOM      2  C   UNL     1      -1.523   4.350  25.237  0.00  0.00    +0.009 C 
ATOM      3  C   UNL     1      -0.897   4.021  24.813  0.00  0.00    +0.000 C 
ATOM      4  C   UNL     1      -2.149   4.678  25.662  0.00  0.00    +0.000 C 
ENDBRANCH   5   2
ENDBRANCH   6   5
ENDBRANCH   9   8
ENDBRANCH  10   9
BRANCH  13  14
ATOM     14  N   UNL     1      -4.309  -0.548  24.561  0.00  0.00    -0.216 NA
BRANCH  14  15
ATOM     15  C   UNL     1      -4.019  -1.321  24.569  0.00  0.00    +0.073 C 
ATOM     16  C   UNL     1      -3.639  -1.691  25.201  0.00  0.00    +0.017 C 
ATOM     17  C   UNL     1      -3.444  -2.458  24.968  0.00  0.00    +0.001 C 
ATOM     18  C   UNL     1      -3.703  -2.561  24.191  0.00  0.00    +0.001 C 
ATOM     19  C   UNL     1      -4.059  -1.858  23.945  0.00  0.00    +0.017 C 
ENDBRANCH  14  15
ENDBRANCH  13  14
TORSDOF 6
ENDMDL
MODEL 2
REMARK VINA RESULT:     -10.0      1.154      5.340
REMARK  Name = 
REMARK  6 active torsions:
REMARK  status: ('A' for Active; 'I' for Inactive)
REMARK    1  A    between atoms: C_2  and  C_5
REMARK    2  A    between atoms: C_5  and  C_6
REMARK    3  A    between atoms: N_8  and  C_9
REMARK    4  A    between atoms: C_9  and  C_10
REMARK    5  A    between atoms: C_13  and  N_14
REMARK    6  A    between atoms: N_14  and  C_15
REMARK                            x       y       z     vdW  Elec       q    Type
REMARK                         _______ _______ _______ _____ _____    ______ ____
ROOT
ATOM     10  C   UNL     1      -2.067   1.174  24.941  0.00  0.00    +0.169 C 
ATOM     11  O   UNL     1      -2.616   1.743  24.706  0.00  0.00    -0.350 OA
ATOM     12  C   UNL     1      -2.339   2.481  24.948  0.00  0.00    +0.162 C 
ATOM     13  C   UNL     1      -1.617   2.368  25.333  0.00  0.00    +0.135 C 
ATOM     20  C   UNL     1      -1.449   1.560  25.329  0.00  0.00    +0.199 C 
ATOM     21  O   UNL     1      -0.782   1.202  25.654  0.00  0.00    -0.219 OA
ENDROOT
BRANCH  10   9
ATOM      9  C   UNL     1      -2.125   0.361  24.811  0.00  0.00    +0.147 C 
BRANCH   9   8
ATOM      6  C   UNL     1      -2.923  -0.820  24.719  0.00  0.00    +0.241 C 
ATOM      7  O   UNL     1      -2.275  -1.235  24.419  0.00  0.00    -0.273 OA
ATOM      8  N   UNL     1      -2.848  -0.023  24.915  0.00  0.00    -0.203 NA
BRANCH   6   5
ATOM      5  C   UNL     1      -3.645  -1.205  24.822  0.00  0.00    +0.087 C 
BRANCH   5   2
ATOM      1  C   UNL     1      -3.868  -2.722  24.214  0.00  0.00    +0.000 C 
ATOM      2  C   UNL     1      -3.757  -1.964  24.518  0.00  0.00    +0.009 C 
ATOM      3  C   UNL     1      -4.117  -1.642  23.849  0.00  0.00    +0.000 C 
ATOM      4  C   UNL     1      -3.397  -2.285  25.187  0.00  0.00    +0.000 C 
ENDBRANCH   5   2
ENDBRANCH   6   5
ENDBRANCH   9   8
ENDBRANCH  10   9
BRANCH  13  14
ATOM     14  N   UNL     1      -1.148   2.959  25.664  0.00  0.00    -0.216 NA
BRANCH  14  15
ATOM     15  C   UNL     1      -1.234   3.742  25.416  0.00  0.00    +0.073 C 
ATOM     16  C   UNL     1      -0.725   4.148  24.909  0.00  0.00    +0.017 C 
ATOM     17  C   UNL     1      -1.020   4.913  24.811  0.00  0.00    +0.001 C 
ATOM     18  C   UNL     1      -1.711   4.978  25.257  0.00  0.00    +0.001 C 
ATOM     19  C   UNL     1      -1.843   4.254  25.630  0.00  0.00    +0.017 C 
ENDBRANCH  14  15
ENDBRANCH  13  14
TORSDOF 6
ENDMDL
