MODEL 1
REMARK VINA RESULT:      -8.9      0.000      0.000
REMARK  Name = 
REMARK  10 active torsions:
REMARK  status: ('A' for Active; 'I' for Inactive)
REMARK    1  A    between atoms: O_2  and  C_3
REMARK    2  A    between atoms: C_8  and  C_9
REMARK    3  A    between atoms: C_9  and  C_10
REMARK    4  A    between atoms: C_12  and  C_13
REMARK    5  A    between atoms: C_16  and  C_17
REMARK    6  A    between atoms: C_17  and  N_18
REMARK    7  A    between atoms: C_19  and  C_21
REMARK    8  A    between atoms: C_21  and  C_22
REMARK    9  A    between atoms: C_22  and  C_23
REMARK   10  A    between atoms: C_23  and  C_24
REMARK                            x       y       z     vdW  Elec       q    Type
REMARK                         _______ _______ _______ _____ _____    ______ ____
ROOT
ATOM     10  C   UNL     1      -2.358   2.228  23.624  0.00  0.00    +0.026 C 
ATOM     11  C   UNL     1      -2.023   2.116  24.369  0.00  0.00    +0.005 C 
ATOM     12  C   UNL     1      -1.390   1.596  24.462  0.00  0.00    +0.006 C 
ATOM     16  C   UNL     1      -1.092   1.188  23.810  0.00  0.00    +0.043 C 
ATOM     27  C   UNL     1      -1.426   1.300  23.064  0.00  0.00    -0.033 C 
ATOM     28  C   UNL     1      -2.059   1.820  22.972  0.00  0.00    -0.048 C 
ATOM     29  C   UNL     1      -2.395   1.933  22.226  0.00  0.00    +0.026 C 
ENDROOT
BRANCH  12  13
ATOM     13  C   UNL     1      -1.054   1.483  25.207  0.00  0.00    +0.000 C 
ATOM     14  C   UNL     1      -1.267   0.829  25.661  0.00  0.00    +0.000 C 
ATOM     15  C   UNL     1      -0.505   2.026  25.498  0.00  0.00    +0.000 C 
ENDBRANCH  12  13
BRANCH  10   9
ATOM      9  C   UNL     1      -2.991   2.749  23.530  0.00  0.00    +0.070 C 
BRANCH   9   8
ATOM      3  C   UNL     1      -5.834   2.273  25.597  0.00  0.00    +0.140 A 
ATOM      4  C   UNL     1      -5.399   1.937  24.983  0.00  0.00    +0.058 A 
ATOM      5  C   UNL     1      -4.729   2.320  24.693  0.00  0.00    +0.103 A 
ATOM      6  C   UNL     1      -4.493   3.040  25.018  0.00  0.00    +0.100 A 
ATOM      7  N   UNL     1      -3.814   3.289  24.622  0.00  0.00    -0.229 NA
ATOM      8  C   UNL     1      -3.629   2.722  24.051  0.00  0.00    +0.139 A 
ATOM     30  N   UNL     1      -4.195   2.123  24.096  0.00  0.00    -0.229 NA
ATOM     31  C   UNL     1      -4.928   3.378  25.633  0.00  0.00    +0.024 A 
ATOM     32  C   UNL     1      -5.598   2.994  25.923  0.00  0.00    +0.039 A 
BRANCH   3   2
ATOM      1  C   UNL     1      -6.502   1.574  26.650  0.00  0.00    +0.252 C 
ATOM      2  O   UNL     1      -6.505   1.890  25.887  0.00  0.00    -0.471 OA
ENDBRANCH   3   2
ENDBRANCH   9   8
ENDBRANCH  10   9
BRANCH  16  17
ATOM     17  C   UNL     1      -0.458   0.667  23.903  0.00  0.00    +0.119 C 
BRANCH  17  18
ATOM     18  N   UNL     1       0.159   0.667  23.355  0.00  0.00    -0.205 NA
ATOM     19  C   UNL     1       0.645   0.003  23.282  0.00  0.00    +0.241 C 
ATOM     20  O   UNL     1       0.513  -0.659  23.757  0.00  0.00    -0.273 OA
BRANCH  19  21
ATOM     21  C   UNL     1       1.261   0.003  22.734  0.00  0.00    +0.087 C 
BRANCH  21  22
ATOM     22  C   UNL     1       2.037   0.127  22.987  0.00  0.00    +0.021 C 
BRANCH  22  23
ATOM     23  C   UNL     1       2.648   0.172  22.435  0.00  0.00    +0.115 C 
BRANCH  23  24
ATOM     24  C   UNL     1       3.403   0.405  22.673  0.00  0.00    +0.365 C 
ATOM     25  O   UNL     1       3.594   1.207  22.710  0.00  0.00    -0.246 OA
ATOM     26  O   UNL     1       3.967  -0.163  22.874  0.00  0.00    -0.246 OA
ENDBRANCH  23  24
ENDBRANCH  22  23
ENDBRANCH  21  22
ENDBRANCH  19  21
ENDBRANCH  17  18
ENDBRANCH  16  17
TORSDOF 10
ENDMDL
MODEL 2
REMARK VINA RESULT:      -8.7      1.218      1.555
REMARK  Name = 
REMARK  10 active torsions:
REMARK  status: ('A' for Active; 'I' for Inactive)
REMARK    1  A    between atoms: O_2  and  C_3
REMARK    2  A    between atoms: C_8  and  C_9
REMARK    3  A    between atoms: C_9  and  C_10
REMARK    4  A    between atoms: C_12  and  C_13
REMARK    5  A    between atoms: C_16  and  C_17
REMARK    6  A    between atoms: C_17  and  N_18
REMARK    7  A    between atoms: C_19  and  C_21
REMARK    8  A    between atoms: C_21  and  C_22
REMARK    9  A    between atoms: C_22  and  C_23
REMARK   10  A    between atoms: C_23  and  C_24
REMARK                            x       y       z     vdW  Elec       q    Type
REMARK                         _______ _______ _______ _____ _____    ______ ____
ROOT
ATOM     10  C   UNL     1      -1.079   2.543  25.039  0.00  0.00    +0.026 C 
ATOM     11  C   UNL     1      -1.365   1.784  25.181  0.00  0.00    +0.005 C 
ATOM     12  C   UNL     1      -1.000   1.133  24.831  0.00  0.00    +0.006 C 
ATOM     16  C   UNL     1      -0.348   1.242  24.337  0.00  0.00    +0.043 C 
ATOM     27  C   UNL     1      -0.061   2.002  24.194  0.00  0.00    -0.033 C 
ATOM     28  C   UNL     1      -0.427   2.653  24.545  0.00  0.00    -0.048 C 
ATOM     29  C   UNL     1      -0.140   3.414  24.403  0.00  0.00    +0.026 C 
ENDROOT
BRANCH  12  13
ATOM     13  C   UNL     1      -1.286   0.372  24.973  0.00  0.00    +0.000 C 
ATOM     14  C   UNL     1      -1.014  -0.057  25.622  0.00  0.00    +0.000 C 
ATOM     15  C   UNL     1      -1.845   0.040  24.465  0.00  0.00    +0.000 C 
ENDBRANCH  12  13
BRANCH  10   9
ATOM      9  C   UNL     1      -1.444   3.195  25.390  0.00  0.00    +0.070 C 
BRANCH   9   8
ATOM      3  C   UNL     1      -4.977   3.508  25.494  0.00  0.00    +0.140 A 
ATOM      4  C   UNL     1      -4.317   3.296  25.942  0.00  0.00    +0.058 A 
ATOM      5  C   UNL     1      -3.563   3.331  25.610  0.00  0.00    +0.103 A 
ATOM      6  C   UNL     1      -3.468   3.578  24.829  0.00  0.00    +0.100 A 
ATOM      7  N   UNL     1      -2.663   3.558  24.651  0.00  0.00    -0.229 NA
ATOM      8  C   UNL     1      -2.259   3.297  25.323  0.00  0.00    +0.139 A 
ATOM     30  N   UNL     1      -2.817   3.157  25.915  0.00  0.00    -0.229 NA
ATOM     31  C   UNL     1      -4.127   3.791  24.380  0.00  0.00    +0.024 A 
ATOM     32  C   UNL     1      -4.881   3.756  24.712  0.00  0.00    +0.039 A 
BRANCH   3   2
ATOM      1  C   UNL     1      -6.121   2.748  25.887  0.00  0.00    +0.252 C 
ATOM      2  O   UNL     1      -5.731   3.473  25.827  0.00  0.00    -0.471 OA
ENDBRANCH   3   2
ENDBRANCH   9   8
ENDBRANCH  10   9
BRANCH  16  17
ATOM     17  C   UNL     1       0.018   0.591  23.986  0.00  0.00    +0.119 C 
BRANCH  17  18
ATOM     18  N   UNL     1       0.649   0.703  23.467  0.00  0.00    -0.205 NA
ATOM     19  C   UNL     1       1.029   0.051  23.132  0.00  0.00    +0.241 C 
ATOM     20  O   UNL     1       0.777  -0.713  23.317  0.00  0.00    -0.273 OA
BRANCH  19  21
ATOM     21  C   UNL     1       1.660   0.164  22.614  0.00  0.00    +0.087 C 
BRANCH  21  22
ATOM     22  C   UNL     1       2.436   0.115  22.893  0.00  0.00    +0.021 C 
BRANCH  22  23
ATOM     23  C   UNL     1       3.059   0.388  22.426  0.00  0.00    +0.115 C 
BRANCH  23  24
ATOM     24  C   UNL     1       3.801   0.521  22.764  0.00  0.00    +0.365 C 
ATOM     25  O   UNL     1       4.046   1.290  22.930  0.00  0.00    -0.246 OA
ATOM     26  O   UNL     1       4.296  -0.117  22.936  0.00  0.00    -0.246 OA
ENDBRANCH  23  24
ENDBRANCH  22  23
ENDBRANCH  21  22
ENDBRANCH  19  21
ENDBRANCH  17  18
ENDBRANCH  16  17
TORSDOF 10
ENDMDL
MODEL 3
REMARK VINA RESULT:      -7.7      2.784      4.489
REMARK  Name = 
REMARK  10 active torsions:
REMARK  status: ('A' for Active; 'I' for Inactive)
REMARK    1  A    between atoms: O_2  and  C_3
REMARK    2  A    between atoms: C_8  and  C_9
REMARK    3  A    between atoms: C_9  and  C_10
REMARK    4  A    between atoms: C_12  and  C_13
REMARK    5  A    between atoms: C_16  and  C_17
REMARK    6  A    between atoms: C_17  and  N_18
REMARK    7  A    between atoms: C_19  and  C_21
REMARK    8  A    between atoms: C_21  and  C_22
REMARK    9  A    between atoms: C_22  and  C_23
REMARK   10  A    between atoms: C_23  and  C_24
REMARK                            x       y       z     vdW  Elec       q    Type
REMARK                         _______ _______ _______ _____ _____    ______ ____
ROOT
ATOM     10  C   UNL     1      -4.466   1.414  24.579  0.00  0.00    +0.026 C 
ATOM     11  C   UNL     1      -4.054   1.538  23.876  0.00  0.00    +0.005 C 
ATOM     12  C   UNL     1      -3.576   2.204  23.790  0.00  0.00    +0.006 C 
ATOM     16  C   UNL     1      -3.510   2.746  24.408  0.00  0.00    +0.043 C 
ATOM     27  C   UNL     1      -3.921   2.623  25.112  0.00  0.00    -0.033 C 
ATOM     28  C   UNL     1      -4.400   1.956  25.197  0.00  0.00    -0.048 C 
ATOM     29  C   UNL     1      -4.812   1.832  25.901  0.00  0.00    +0.026 C 
ENDROOT
BRANCH  12  13
ATOM     13  C   UNL     1      -3.163   2.328  23.086  0.00  0.00    +0.000 C 
ATOM     14  C   UNL     1      -2.465   1.916  22.938  0.00  0.00    +0.000 C 
ATOM     15  C   UNL     1      -3.450   2.867  22.531  0.00  0.00    +0.000 C 
ENDBRANCH  12  13
BRANCH  10   9
ATOM      9  C   UNL     1      -4.945   0.747  24.665  0.00  0.00    +0.070 C 
BRANCH   9   8
ATOM      3  C   UNL     1      -3.317  -2.405  24.697  0.00  0.00    +0.140 A 
ATOM      4  C   UNL     1      -3.362  -1.680  25.087  0.00  0.00    +0.058 A 
ATOM      5  C   UNL     1      -3.881  -1.097  24.817  0.00  0.00    +0.103 A 
ATOM      6  C   UNL     1      -4.354  -1.241  24.158  0.00  0.00    +0.100 A 
ATOM      7  N   UNL     1      -4.811  -0.567  24.020  0.00  0.00    -0.229 NA
ATOM      8  C   UNL     1      -4.619  -0.007  24.596  0.00  0.00    +0.139 A 
ATOM     30  N   UNL     1      -4.045  -0.336  25.088  0.00  0.00    -0.229 NA
ATOM     31  C   UNL     1      -4.310  -1.966  23.766  0.00  0.00    +0.024 A 
ATOM     32  C   UNL     1      -3.791  -2.548  24.036  0.00  0.00    +0.039 A 
BRANCH   3   2
ATOM      1  C   UNL     1      -2.009  -2.981  24.723  0.00  0.00    +0.252 C 
ATOM      2  O   UNL     1      -2.798  -2.987  24.966  0.00  0.00    -0.471 OA
ENDBRANCH   3   2
ENDBRANCH   9   8
ENDBRANCH  10   9
BRANCH  16  17
ATOM     17  C   UNL     1      -3.031   3.413  24.322  0.00  0.00    +0.119 C 
BRANCH  17  18
ATOM     18  N   UNL     1      -2.297   3.444  24.697  0.00  0.00    -0.205 NA
ATOM     19  C   UNL     1      -1.993   4.169  24.951  0.00  0.00    +0.241 C 
ATOM     20  O   UNL     1      -2.424   4.862  24.829  0.00  0.00    -0.273 OA
BRANCH  19  21
ATOM     21  C   UNL     1      -1.259   4.200  25.326  0.00  0.00    +0.087 C 
BRANCH  21  22
ATOM     22  C   UNL     1      -0.957   3.527  25.695  0.00  0.00    +0.021 C 
BRANCH  22  23
ATOM     23  C   UNL     1      -0.141   3.426  25.764  0.00  0.00    +0.115 C 
BRANCH  23  24
ATOM     24  C   UNL     1       0.164   2.715  26.054  0.00  0.00    +0.365 C 
ATOM     25  O   UNL     1       0.102   2.538  26.857  0.00  0.00    -0.246 OA
ATOM     26  O   UNL     1       0.529   2.183  25.540  0.00  0.00    -0.246 OA
ENDBRANCH  23  24
ENDBRANCH  22  23
ENDBRANCH  21  22
ENDBRANCH  19  21
ENDBRANCH  17  18
ENDBRANCH  16  17
TORSDOF 10
ENDMDL
MODEL 4
REMARK VINA RESULT:      -7.7      3.024      5.094
REMARK  Name = 
REMARK  10 active torsions:
REMARK  status: ('A' for Active; 'I' for Inactive)
REMARK    1  A    between atoms: O_2  and  C_3
REMARK    2  A    between atoms: C_8  and  C_9
REMARK    3  A    between atoms: C_9  and  C_10
REMARK    4  A    between atoms: C_12  and  C_13
REMARK    5  A    between atoms: C_16  and  C_17
REMARK    6  A    between atoms: C_17  and  N_18
REMARK    7  A    between atoms: C_19  and  C_21
REMARK    8  A    between atoms: C_21  and  C_22
REMARK    9  A    between atoms: C_22  and  C_23
REMARK   10  A    between atoms: C_23  and  C_24
REMARK                            x       y       z     vdW  Elec       q    Type
REMARK                         _______ _______ _______ _____ _____    ______ ____
ROOT
ATOM     10  C   UNL     1      -4.026   1.015  23.844  0.00  0.00    +0.026 C 
ATOM     11  C   UNL     1      -4.632   1.087  24.398  0.00  0.00    +0.005 C 
ATOM     12  C   UNL     1      -4.686   1.766  24.863  0.00  0.00    +0.006 C 
ATOM     16  C   UNL     1      -4.134   2.372  24.774  0.00  0.00    +0.043 C 
ATOM     27  C   UNL     1      -3.527   2.301  24.220  0.00  0.00    -0.033 C 
ATOM     28  C   UNL     1      -3.474   1.622  23.755  0.00  0.00    -0.048 C 
ATOM     29  C   UNL     1      -2.866   1.549  23.200  0.00  0.00    +0.026 C 
ENDROOT
BRANCH  12  13
ATOM     13  C   UNL     1      -5.293   1.839  25.418  0.00  0.00    +0.000 C 
ATOM     14  C   UNL     1      -5.986   2.240  25.222  0.00  0.00    +0.000 C 
ATOM     15  C   UNL     1      -5.205   1.510  26.169  0.00  0.00    +0.000 C 
ENDBRANCH  12  13
BRANCH  10   9
ATOM      9  C   UNL     1      -3.971   0.336  23.378  0.00  0.00    +0.070 C 
BRANCH   9   8
ATOM      3  C   UNL     1      -2.479  -2.541  24.820  0.00  0.00    +0.140 A 
ATOM      4  C   UNL     1      -2.321  -1.775  24.558  0.00  0.00    +0.058 A 
ATOM      5  C   UNL     1      -2.929  -1.313  24.245  0.00  0.00    +0.103 A 
ATOM      6  C   UNL     1      -3.694  -1.616  24.195  0.00  0.00    +0.100 A 
ATOM      7  N   UNL     1      -4.177  -1.036  23.864  0.00  0.00    -0.229 NA
ATOM      8  C   UNL     1      -3.711  -0.372  23.709  0.00  0.00    +0.139 A 
ATOM     30  N   UNL     1      -2.939  -0.544  23.945  0.00  0.00    -0.229 NA
ATOM     31  C   UNL     1      -3.852  -2.382  24.457  0.00  0.00    +0.024 A 
ATOM     32  C   UNL     1      -3.245  -2.845  24.770  0.00  0.00    +0.039 A 
BRANCH   3   2
ATOM      1  C   UNL     1      -1.097  -2.718  25.138  0.00  0.00    +0.252 C 
ATOM      2  O   UNL     1      -1.871  -3.003  25.133  0.00  0.00    -0.471 OA
ENDBRANCH   3   2
ENDBRANCH   9   8
ENDBRANCH  10   9
BRANCH  16  17
ATOM     17  C   UNL     1      -4.189   3.052  25.240  0.00  0.00    +0.119 C 
BRANCH  17  18
ATOM     18  N   UNL     1      -3.670   3.681  25.113  0.00  0.00    -0.205 NA
ATOM     19  C   UNL     1      -3.409   4.135  25.752  0.00  0.00    +0.241 C 
ATOM     20  O   UNL     1      -3.667   3.960  26.515  0.00  0.00    -0.273 OA
BRANCH  19  21
ATOM     21  C   UNL     1      -2.890   4.764  25.625  0.00  0.00    +0.087 C 
BRANCH  21  22
ATOM     22  C   UNL     1      -2.079   4.623  25.570  0.00  0.00    +0.021 C 
BRANCH  22  23
ATOM     23  C   UNL     1      -1.584   5.193  25.237  0.00  0.00    +0.115 C 
BRANCH  23  24
ATOM     24  C   UNL     1      -0.830   4.983  24.974  0.00  0.00    +0.365 C 
ATOM     25  O   UNL     1      -0.400   5.501  24.499  0.00  0.00    -0.246 OA
ATOM     26  O   UNL     1      -0.508   4.254  25.188  0.00  0.00    -0.246 OA
ENDBRANCH  23  24
ENDBRANCH  22  23
ENDBRANCH  21  22
ENDBRANCH  19  21
ENDBRANCH  17  18
ENDBRANCH  16  17
TORSDOF 10
ENDMDL
MODEL 5
REMARK VINA RESULT:      -7.5      1.575      2.615
REMARK  Name = 
REMARK  10 active torsions:
REMARK  status: ('A' for Active; 'I' for Inactive)
REMARK    1  A    between atoms: O_2  and  C_3
REMARK    2  A    between atoms: C_8  and  C_9
REMARK    3  A    between atoms: C_9  and  C_10
REMARK    4  A    between atoms: C_12  and  C_13
REMARK    5  A    between atoms: C_16  and  C_17
REMARK    6  A    between atoms: C_17  and  N_18
REMARK    7  A    between atoms: C_19  and  C_21
REMARK    8  A    between atoms: C_21  and  C_22
REMARK    9  A    between atoms: C_22  and  C_23
REMARK   10  A    between atoms: C_23  and  C_24
REMARK                            x       y       z     vdW  Elec       q    Type
REMARK                         _______ _______ _______ _____ _____    ______ ____
ROOT
ATOM     10  C   UNL     1      -2.259   2.422  23.654  0.00  0.00    +0.026 C 
ATOM     11  C   UNL     1      -1.732   2.581  24.268  0.00  0.00    +0.005 C 
ATOM     12  C   UNL     1      -1.131   2.045  24.445  0.00  0.00    +0.006 C 
ATOM     16  C   UNL     1      -1.057   1.350  24.007  0.00  0.00    +0.043 C 
ATOM     27  C   UNL     1      -1.583   1.190  23.392  0.00  0.00    -0.033 C 
ATOM     28  C   UNL     1      -2.184   1.727  23.216  0.00  0.00    -0.048 C 
ATOM     29  C   UNL     1      -2.712   1.568  22.601  0.00  0.00    +0.026 C 
ENDROOT
BRANCH  12  13
ATOM     13  C   UNL     1      -0.604   2.204  25.059  0.00  0.00    +0.000 C 
ATOM     14  C   UNL     1       0.125   2.554  24.898  0.00  0.00    +0.000 C 
ATOM     15  C   UNL     1      -0.806   2.011  25.836  0.00  0.00    +0.000 C 
ENDBRANCH  12  13
BRANCH  10   9
ATOM      9  C   UNL     1      -2.861   2.958  23.477  0.00  0.00    +0.070 C 
BRANCH   9   8
ATOM      3  C   UNL     1      -5.632   3.083  25.689  0.00  0.00    +0.140 A 
ATOM      4  C   UNL     1      -5.231   2.596  25.157  0.00  0.00    +0.058 A 
ATOM      5  C   UNL     1      -4.562   2.877  24.764  0.00  0.00    +0.103 A 
ATOM      6  C   UNL     1      -4.295   3.645  24.902  0.00  0.00    +0.100 A 
ATOM      7  N   UNL     1      -3.625   3.769  24.437  0.00  0.00    -0.229 NA
ATOM      8  C   UNL     1      -3.478   3.077  24.011  0.00  0.00    +0.139 A 
ATOM     30  N   UNL     1      -4.058   2.526  24.213  0.00  0.00    -0.229 NA
ATOM     31  C   UNL     1      -4.695   4.133  25.433  0.00  0.00    +0.024 A 
ATOM     32  C   UNL     1      -5.364   3.852  25.827  0.00  0.00    +0.039 A 
BRANCH   3   2
ATOM      1  C   UNL     1      -6.326   2.021  26.345  0.00  0.00    +0.252 C 
ATOM      2  O   UNL     1      -6.301   2.803  26.082  0.00  0.00    -0.471 OA
ENDBRANCH   3   2
ENDBRANCH   9   8
ENDBRANCH  10   9
BRANCH  16  17
ATOM     17  C   UNL     1      -0.454   0.813  24.184  0.00  0.00    +0.119 C 
BRANCH  17  18
ATOM     18  N   UNL     1      -0.643   0.064  24.473  0.00  0.00    -0.205 NA
ATOM     19  C   UNL     1      -0.185  -0.588  24.257  0.00  0.00    +0.241 C 
ATOM     20  O   UNL     1       0.461  -0.490  23.752  0.00  0.00    -0.273 OA
BRANCH  19  21
ATOM     21  C   UNL     1      -0.373  -1.337  24.547  0.00  0.00    +0.087 C 
BRANCH  21  22
ATOM     22  C   UNL     1      -1.067  -1.711  24.303  0.00  0.00    +0.021 C 
BRANCH  22  23
ATOM     23  C   UNL     1      -1.396  -2.310  24.764  0.00  0.00    +0.115 C 
BRANCH  23  24
ATOM     24  C   UNL     1      -2.132  -2.627  24.564  0.00  0.00    +0.365 C 
ATOM     25  O   UNL     1      -2.790  -2.468  25.036  0.00  0.00    -0.246 OA
ATOM     26  O   UNL     1      -2.209  -3.102  23.895  0.00  0.00    -0.246 OA
ENDBRANCH  23  24
ENDBRANCH  22  23
ENDBRANCH  21  22
ENDBRANCH  19  21
ENDBRANCH  17  18
ENDBRANCH  16  17
TORSDOF 10
ENDMDL
MODEL 6
REMARK VINA RESULT:      -7.4      1.651      2.543
REMARK  Name = 
REMARK  10 active torsions:
REMARK  status: ('A' for Active; 'I' for Inactive)
REMARK    1  A    between atoms: O_2  and  C_3
REMARK    2  A    between atoms: C_8  and  C_9
REMARK    3  A    between atoms: C_9  and  C_10
REMARK    4  A    between atoms: C_12  and  C_13
REMARK    5  A    between atoms: C_16  and  C_17
REMARK    6  A    between atoms: C_17  and  N_18
REMARK    7  A    between atoms: C_19  and  C_21
REMARK    8  A    between atoms: C_21  and  C_22
REMARK    9  A    between atoms: C_22  and  C_23
REMARK   10  A    between atoms: C_23  and  C_24
REMARK                            x       y       z     vdW  Elec       q    Type
REMARK                         _______ _______ _______ _____ _____    ______ ____
ROOT
ATOM     10  C   UNL     1      -0.959  -0.299  24.713  0.00  0.00    +0.026 C 
ATOM     11  C   UNL     1      -0.901   0.522  24.763  0.00  0.00    +0.005 C 
ATOM     12  C   UNL     1      -0.270   0.914  24.406  0.00  0.00    +0.006 C 
ATOM     16  C   UNL     1       0.304   0.484  23.998  0.00  0.00    +0.043 C 
ATOM     27  C   UNL     1       0.247  -0.337  23.947  0.00  0.00    -0.033 C 
ATOM     28  C   UNL     1      -0.385  -0.728  24.305  0.00  0.00    -0.048 C 
ATOM     29  C   UNL     1      -0.443  -1.551  24.254  0.00  0.00    +0.026 C 
ENDROOT
BRANCH  12  13
ATOM     13  C   UNL     1      -0.212   1.735  24.456  0.00  0.00    +0.000 C 
ATOM     14  C   UNL     1      -0.516   2.208  23.853  0.00  0.00    +0.000 C 
ATOM     15  C   UNL     1       0.151   2.083  25.110  0.00  0.00    +0.000 C 
ENDBRANCH  12  13
BRANCH  10   9
ATOM      9  C   UNL     1      -1.591  -0.691  25.070  0.00  0.00    +0.070 C 
BRANCH   9   8
ATOM      3  C   UNL     1      -4.843   0.724  24.979  0.00  0.00    +0.140 A 
ATOM      4  C   UNL     1      -4.139   0.710  25.409  0.00  0.00    +0.058 A 
ATOM      5  C   UNL     1      -3.509   0.242  25.154  0.00  0.00    +0.103 A 
ATOM      6  C   UNL     1      -3.583  -0.212  24.470  0.00  0.00    +0.100 A 
ATOM      7  N   UNL     1      -2.874  -0.617  24.355  0.00  0.00    -0.229 NA
ATOM      8  C   UNL     1      -2.361  -0.413  24.968  0.00  0.00    +0.139 A 
ATOM     30  N   UNL     1      -2.754   0.118  25.462  0.00  0.00    -0.229 NA
ATOM     31  C   UNL     1      -4.287  -0.199  24.039  0.00  0.00    +0.024 A 
ATOM     32  C   UNL     1      -4.917   0.270  24.293  0.00  0.00    +0.039 A 
BRANCH   3   2
ATOM      1  C   UNL     1      -5.477   2.001  25.070  0.00  0.00    +0.252 C 
ATOM      2  O   UNL     1      -5.473   1.192  25.233  0.00  0.00    -0.471 OA
ENDBRANCH   3   2
ENDBRANCH   9   8
ENDBRANCH  10   9
BRANCH  16  17
ATOM     17  C   UNL     1       0.937   0.876  23.640  0.00  0.00    +0.119 C 
BRANCH  17  18
ATOM     18  N   UNL     1       1.583   0.446  23.362  0.00  0.00    -0.205 NA
ATOM     19  C   UNL     1       2.268   0.840  23.122  0.00  0.00    +0.241 C 
ATOM     20  O   UNL     1       2.305   1.664  23.160  0.00  0.00    -0.273 OA
BRANCH  19  21
ATOM     21  C   UNL     1       2.915   0.410  22.844  0.00  0.00    +0.087 C 
BRANCH  21  22
ATOM     22  C   UNL     1       3.676   0.595  23.106  0.00  0.00    +0.021 C 
BRANCH  22  23
ATOM     23  C   UNL     1       4.316   0.130  22.871  0.00  0.00    +0.115 C 
BRANCH  23  24
ATOM     24  C   UNL     1       4.998   0.104  23.336  0.00  0.00    +0.365 C 
ATOM     25  O   UNL     1       5.395   0.803  23.524  0.00  0.00    -0.246 OA
ATOM     26  O   UNL     1       5.282  -0.619  23.611  0.00  0.00    -0.246 OA
ENDBRANCH  23  24
ENDBRANCH  22  23
ENDBRANCH  21  22
ENDBRANCH  19  21
ENDBRANCH  17  18
ENDBRANCH  16  17
TORSDOF 10
ENDMDL
MODEL 7
REMARK VINA RESULT:      -7.3      1.258      6.523
REMARK  Name = 
REMARK  10 active torsions:
REMARK  status: ('A' for Active; 'I' for Inactive)
REMARK    1  A    between atoms: O_2  and  C_3
REMARK    2  A    between atoms: C_8  and  C_9
REMARK    3  A    between atoms: C_9  and  C_10
REMARK    4  A    between atoms: C_12  and  C_13
REMARK    5  A    between atoms: C_16  and  C_17
REMARK    6  A    between atoms: C_17  and  N_18
REMARK    7  A    between atoms: C_19  and  C_21
REMARK    8  A    between atoms: C_21  and  C_22
REMARK    9  A    between atoms: C_22  and  C_23
REMARK   10  A    between atoms: C_23  and  C_24
REMARK                            x       y       z     vdW  Elec       q    Type
REMARK                         _______ _______ _______ _____ _____    ______ ____
ROOT
ATOM     10  C   UNL     1      -0.876   0.639  24.639  0.00  0.00    +0.026 C 
ATOM     11  C   UNL     1      -0.455   1.304  24.884  0.00  0.00    +0.005 C 
ATOM     12  C   UNL     1      -0.856   2.000  25.069  0.00  0.00    +0.006 C 
ATOM     16  C   UNL     1      -1.678   2.031  25.009  0.00  0.00    +0.043 C 
ATOM     27  C   UNL     1      -2.100   1.366  24.764  0.00  0.00    -0.033 C 
ATOM     28  C   UNL     1      -1.698   0.670  24.579  0.00  0.00    -0.048 C 
ATOM     29  C   UNL     1      -2.120   0.004  24.334  0.00  0.00    +0.026 C 
ENDROOT
BRANCH  12  13
ATOM     13  C   UNL     1      -0.435   2.666  25.314  0.00  0.00    +0.000 C 
ATOM     14  C   UNL     1      -0.244   3.257  24.771  0.00  0.00    +0.000 C 
ATOM     15  C   UNL     1      -0.205   2.741  26.103  0.00  0.00    +0.000 C 
ENDBRANCH  12  13
BRANCH  10   9
ATOM      9  C   UNL     1      -0.475  -0.059  24.454  0.00  0.00    +0.070 C 
BRANCH   9   8
ATOM      3  C   UNL     1       2.434   0.125  22.431  0.00  0.00    +0.140 A 
ATOM      4  C   UNL     1       2.150   0.248  23.196  0.00  0.00    +0.058 A 
ATOM      5  C   UNL     1       1.357   0.104  23.371  0.00  0.00    +0.103 A 
ATOM      6  C   UNL     1       0.847  -0.162  22.781  0.00  0.00    +0.100 A 
ATOM      7  N   UNL     1       0.098  -0.256  23.114  0.00  0.00    -0.229 NA
ATOM      8  C   UNL     1       0.145  -0.047  23.911  0.00  0.00    +0.139 A 
ATOM     30  N   UNL     1       0.924   0.176  24.070  0.00  0.00    -0.229 NA
ATOM     31  C   UNL     1       1.129  -0.285  22.015  0.00  0.00    +0.024 A 
ATOM     32  C   UNL     1       1.922  -0.142  21.840  0.00  0.00    +0.039 A 
BRANCH   3   2
ATOM      1  C   UNL     1       3.674   0.760  22.746  0.00  0.00    +0.252 C 
ATOM      2  O   UNL     1       3.227   0.269  22.256  0.00  0.00    -0.471 OA
ENDBRANCH   3   2
ENDBRANCH   9   8
ENDBRANCH  10   9
BRANCH  16  17
ATOM     17  C   UNL     1      -2.079   2.729  25.194  0.00  0.00    +0.119 C 
BRANCH  17  18
ATOM     18  N   UNL     1      -2.884   2.798  25.025  0.00  0.00    -0.205 NA
ATOM     19  C   UNL     1      -3.318   3.427  25.338  0.00  0.00    +0.241 C 
ATOM     20  O   UNL     1      -2.947   3.985  25.820  0.00  0.00    -0.273 OA
BRANCH  19  21
ATOM     21  C   UNL     1      -4.122   3.496  25.169  0.00  0.00    +0.087 C 
BRANCH  21  22
ATOM     22  C   UNL     1      -4.679   3.124  25.653  0.00  0.00    +0.021 C 
BRANCH  22  23
ATOM     23  C   UNL     1      -5.472   3.102  25.426  0.00  0.00    +0.115 C 
BRANCH  23  24
ATOM     24  C   UNL     1      -5.974   2.526  25.740  0.00  0.00    +0.365 C 
ATOM     25  O   UNL     1      -6.272   1.931  25.253  0.00  0.00    -0.246 OA
ATOM     26  O   UNL     1      -6.176   2.546  26.539  0.00  0.00    -0.246 OA
ENDBRANCH  23  24
ENDBRANCH  22  23
ENDBRANCH  21  22
ENDBRANCH  19  21
ENDBRANCH  17  18
ENDBRANCH  16  17
TORSDOF 10
ENDMDL
MODEL 8
REMARK VINA RESULT:      -6.4     17.036     18.980
REMARK  Name = 
REMARK  10 active torsions:
REMARK  status: ('A' for Active; 'I' for Inactive)
REMARK    1  A    between atoms: O_2  and  C_3
REMARK    2  A    between atoms: C_8  and  C_9
REMARK    3  A    between atoms: C_9  and  C_10
REMARK    4  A    between atoms: C_12  and  C_13
REMARK    5  A    between atoms: C_16  and  C_17
REMARK    6  A    between atoms: C_17  and  N_18
REMARK    7  A    between atoms: C_19  and  C_21
REMARK    8  A    between atoms: C_21  and  C_22
REMARK    9  A    between atoms: C_22  and  C_23
REMARK   10  A    between atoms: C_23  and  C_24
REMARK                            x       y       z     vdW  Elec       q    Type
REMARK                         _______ _______ _______ _____ _____    ______ ____
ROOT
ATOM     10  C   UNL     1      -5.028  -9.942   9.483  0.00  0.00    +0.026 C 
ATOM     11  C   UNL     1      -5.451  -9.938  10.190  0.00  0.00    +0.005 C 
ATOM     12  C   UNL     1      -6.154  -9.510  10.248  0.00  0.00    +0.006 C 
ATOM     16  C   UNL     1      -6.433  -9.087   9.597  0.00  0.00    +0.043 C 
ATOM     27  C   UNL     1      -6.010  -9.091   8.889  0.00  0.00    -0.033 C 
ATOM     28  C   UNL     1      -5.307  -9.518   8.832  0.00  0.00    -0.048 C 
ATOM     29  C   UNL     1      -4.883  -9.522   8.124  0.00  0.00    +0.026 C 
ENDROOT
BRANCH  12  13
ATOM     13  C   UNL     1      -6.578  -9.506  10.956  0.00  0.00    +0.000 C 
ATOM     14  C   UNL     1      -7.136 -10.094  11.106  0.00  0.00    +0.000 C 
ATOM     15  C   UNL     1      -6.443  -8.913  11.513  0.00  0.00    +0.000 C 
ENDBRANCH  12  13
BRANCH  10   9
ATOM      9  C   UNL     1      -4.324 -10.369   9.425  0.00  0.00    +0.070 C 
BRANCH   9   8
ATOM      3  C   UNL     1      -1.974 -10.349  12.082  0.00  0.00    +0.140 A 
ATOM      4  C   UNL     1      -2.620 -10.758  11.773  0.00  0.00    +0.058 A 
ATOM      5  C   UNL     1      -2.984 -10.493  11.082  0.00  0.00    +0.103 A 
ATOM      6  C   UNL     1      -2.702  -9.820  10.699  0.00  0.00    +0.100 A 
ATOM      7  N   UNL     1      -3.169  -9.691  10.031  0.00  0.00    -0.229 NA
ATOM      8  C   UNL     1      -3.741 -10.286  10.001  0.00  0.00    +0.139 A 
ATOM     30  N   UNL     1      -3.626 -10.781  10.651  0.00  0.00    -0.229 NA
ATOM     31  C   UNL     1      -2.055  -9.410  11.006  0.00  0.00    +0.024 A 
ATOM     32  C   UNL     1      -1.691  -9.674  11.698  0.00  0.00    +0.039 A 
BRANCH   3   2
ATOM      1  C   UNL     1      -2.061 -10.748  13.451  0.00  0.00    +0.252 C 
ATOM      2  O   UNL     1      -1.609 -10.613  12.773  0.00  0.00    -0.471 OA
ENDBRANCH   3   2
ENDBRANCH   9   8
ENDBRANCH  10   9
BRANCH  16  17
ATOM     17  C   UNL     1      -7.137  -8.659   9.655  0.00  0.00    +0.119 C 
BRANCH  17  18
ATOM     18  N   UNL     1      -7.298  -8.057   9.114  0.00  0.00    -0.205 NA
ATOM     19  C   UNL     1      -8.068  -7.768   9.037  0.00  0.00    +0.241 C 
ATOM     20  O   UNL     1      -8.674  -8.079   9.501  0.00  0.00    -0.273 OA
BRANCH  19  21
ATOM     21  C   UNL     1      -8.229  -7.166   8.496  0.00  0.00    +0.087 C 
BRANCH  21  22
ATOM     22  C   UNL     1      -8.862  -6.653   8.628  0.00  0.00    +0.021 C 
BRANCH  22  23
ATOM     23  C   UNL     1      -8.980  -6.007   8.127  0.00  0.00    +0.115 C 
BRANCH  23  24
ATOM     24  C   UNL     1      -9.520  -5.419   8.334  0.00  0.00    +0.365 C 
ATOM     25  O   UNL     1     -10.320  -5.514   8.158  0.00  0.00    -0.246 OA
ATOM     26  O   UNL     1      -9.260  -4.735   8.716  0.00  0.00    -0.246 OA
ENDBRANCH  23  24
ENDBRANCH  22  23
ENDBRANCH  21  22
ENDBRANCH  19  21
ENDBRANCH  17  18
ENDBRANCH  16  17
TORSDOF 10
ENDMDL
MODEL 9
REMARK VINA RESULT:      -5.7     16.959     18.153
REMARK  Name = 
REMARK  10 active torsions:
REMARK  status: ('A' for Active; 'I' for Inactive)
REMARK    1  A    between atoms: O_2  and  C_3
REMARK    2  A    between atoms: C_8  and  C_9
REMARK    3  A    between atoms: C_9  and  C_10
REMARK    4  A    between atoms: C_12  and  C_13
REMARK    5  A    between atoms: C_16  and  C_17
REMARK    6  A    between atoms: C_17  and  N_18
REMARK    7  A    between atoms: C_19  and  C_21
REMARK    8  A    between atoms: C_21  and  C_22
REMARK    9  A    between atoms: C_22  and  C_23
REMARK   10  A    between atoms: C_23  and  C_24
REMARK                            x       y       z     vdW  Elec       q    Type
REMARK                         _______ _______ _______ _____ _____    ______ ____
ROOT
ATOM     10  C   UNL     1      -6.504  -9.300   9.085  0.00  0.00    +0.026 C 
ATOM     11  C   UNL     1      -6.760  -9.299   9.869  0.00  0.00    +0.005 C 
ATOM     12  C   UNL     1      -6.221  -9.435  10.478  0.00  0.00    +0.006 C 
ATOM     16  C   UNL     1      -5.427  -9.571  10.303  0.00  0.00    +0.043 C 
ATOM     27  C   UNL     1      -5.170  -9.572   9.519  0.00  0.00    -0.033 C 
ATOM     28  C   UNL     1      -5.710  -9.437   8.910  0.00  0.00    -0.048 C 
ATOM     29  C   UNL     1      -5.454  -9.438   8.125  0.00  0.00    +0.026 C 
ENDROOT
BRANCH  12  13
ATOM     13  C   UNL     1      -6.476  -9.434  11.263  0.00  0.00    +0.000 C 
ATOM     14  C   UNL     1      -6.412  -8.749  11.717  0.00  0.00    +0.000 C 
ATOM     15  C   UNL     1      -6.795 -10.119  11.593  0.00  0.00    +0.000 C 
ENDBRANCH  12  13
BRANCH  10   9
ATOM      9  C   UNL     1      -7.043  -9.165   8.475  0.00  0.00    +0.070 C 
BRANCH   9   8
ATOM      3  C   UNL     1      -8.887  -6.134   8.464  0.00  0.00    +0.140 A 
ATOM      4  C   UNL     1      -8.148  -6.459   8.297  0.00  0.00    +0.058 A 
ATOM      5  C   UNL     1      -8.016  -7.266   8.411  0.00  0.00    +0.103 A 
ATOM      6  C   UNL     1      -8.624  -7.747   8.692  0.00  0.00    +0.100 A 
ATOM      7  N   UNL     1      -8.334  -8.517   8.750  0.00  0.00    -0.229 NA
ATOM      8  C   UNL     1      -7.546  -8.512   8.505  0.00  0.00    +0.139 A 
ATOM     30  N   UNL     1      -7.350  -7.738   8.296  0.00  0.00    -0.229 NA
ATOM     31  C   UNL     1      -9.364  -7.422   8.858  0.00  0.00    +0.024 A 
ATOM     32  C   UNL     1      -9.496  -6.616   8.744  0.00  0.00    +0.039 A 
BRANCH   3   2
ATOM      1  C   UNL     1      -9.726  -4.986   8.602  0.00  0.00    +0.252 C 
ATOM      2  O   UNL     1      -9.019  -5.328   8.349  0.00  0.00    -0.471 OA
ENDBRANCH   3   2
ENDBRANCH   9   8
ENDBRANCH  10   9
BRANCH  16  17
ATOM     17  C   UNL     1      -4.887  -9.707  10.913  0.00  0.00    +0.119 C 
BRANCH  17  18
ATOM     18  N   UNL     1      -4.091  -9.837  10.738  0.00  0.00    -0.205 NA
ATOM     19  C   UNL     1      -3.557 -10.002  11.345  0.00  0.00    +0.241 C 
ATOM     20  O   UNL     1      -3.819 -10.037  12.127  0.00  0.00    -0.273 OA
BRANCH  19  21
ATOM     21  C   UNL     1      -2.762 -10.133  11.170  0.00  0.00    +0.087 C 
BRANCH  21  22
ATOM     22  C   UNL     1      -2.201  -9.552  11.344  0.00  0.00    +0.021 C 
BRANCH  22  23
ATOM     23  C   UNL     1      -1.397  -9.731  11.304  0.00  0.00    +0.115 C 
BRANCH  23  24
ATOM     24  C   UNL     1      -0.837  -9.125  11.345  0.00  0.00    +0.365 C 
ATOM     25  O   UNL     1      -0.617  -8.722  10.660  0.00  0.00    -0.246 OA
ATOM     26  O   UNL     1      -0.498  -8.924  12.069  0.00  0.00    -0.246 OA
ENDBRANCH  23  24
ENDBRANCH  22  23
ENDBRANCH  21  22
ENDBRANCH  19  21
ENDBRANCH  17  18
ENDBRANCH  16  17
TORSDOF 10
ENDMDL
MODEL 10
REMARK VINA RESULT:      -5.6     14.605     15.415
REMARK  Name = 
REMARK  10 active torsions:
REMARK  status: ('A' for Active; 'I' for Inactive)
REMARK    1  A    between atoms: O_2  and  C_3
REMARK    2  A    between atoms: C_8  and  C_9
REMARK    3  A    between atoms: C_9  and  C_10
REMARK    4  A    between atoms: C_12  and  C_13
REMARK    5  A    between atoms: C_16  and  C_17
REMARK    6  A    between atoms: C_17  and  N_18
REMARK    7  A    between atoms: C_19  and  C_21
REMARK    8  A    between atoms: C_21  and  C_22
REMARK    9  A    between atoms: C_22  and  C_23
REMARK   10  A    between atoms: C_23  and  C_24
REMARK                            x       y       z     vdW  Elec       q    Type
REMARK                         _______ _______ _______ _____ _____    ______ ____
ROOT
ATOM     10  C   UNL     1      -5.863 -10.190  15.982  0.00  0.00    +0.026 C 
ATOM     11  C   UNL     1      -6.396 -10.116  15.357  0.00  0.00    +0.005 C 
ATOM     12  C   UNL     1      -6.133 -10.198  14.580  0.00  0.00    +0.006 C 
ATOM     16  C   UNL     1      -5.337 -10.355  14.428  0.00  0.00    +0.043 C 
ATOM     27  C   UNL     1      -4.804 -10.429  15.053  0.00  0.00    -0.033 C 
ATOM     28  C   UNL     1      -5.068 -10.346  15.830  0.00  0.00    -0.048 C 
ATOM     29  C   UNL     1      -4.534 -10.420  16.456  0.00  0.00    +0.026 C 
ENDROOT
BRANCH  12  13
ATOM     13  C   UNL     1      -6.665 -10.125  13.954  0.00  0.00    +0.000 C 
ATOM     14  C   UNL     1      -7.094 -10.780  13.697  0.00  0.00    +0.000 C 
ATOM     15  C   UNL     1      -6.768  -9.394  13.584  0.00  0.00    +0.000 C 
ENDBRANCH  12  13
BRANCH  10   9
ATOM      9  C   UNL     1      -6.126 -10.108  16.760  0.00  0.00    +0.070 C 
BRANCH   9   8
ATOM      3  C   UNL     1      -9.316  -8.687  17.381  0.00  0.00    +0.140 A 
ATOM      4  C   UNL     1      -8.528  -8.501  17.223  0.00  0.00    +0.058 A 
ATOM      5  C   UNL     1      -7.975  -9.103  17.118  0.00  0.00    +0.103 A 
ATOM      6  C   UNL     1      -8.209  -9.892  17.173  0.00  0.00    +0.100 A 
ATOM      7  N   UNL     1      -7.545 -10.365  17.045  0.00  0.00    -0.229 NA
ATOM      8  C   UNL     1      -6.900  -9.868  16.912  0.00  0.00    +0.139 A 
ATOM     30  N   UNL     1      -7.166  -9.088  16.957  0.00  0.00    -0.229 NA
ATOM     31  C   UNL     1      -8.997 -10.079  17.331  0.00  0.00    +0.024 A 
ATOM     32  C   UNL     1      -9.551  -9.476  17.435  0.00  0.00    +0.039 A 
BRANCH   3   2
ATOM      1  C   UNL     1     -10.248  -7.754  16.831  0.00  0.00    +0.252 C 
ATOM      2  O   UNL     1      -9.870  -8.084  17.486  0.00  0.00    -0.471 OA
ENDBRANCH   3   2
ENDBRANCH   9   8
ENDBRANCH  10   9
BRANCH  16  17
ATOM     17  C   UNL     1      -5.074 -10.437  13.649  0.00  0.00    +0.119 C 
BRANCH  17  18
ATOM     18  N   UNL     1      -4.266 -10.486  13.491  0.00  0.00    -0.205 NA
ATOM     19  C   UNL     1      -4.005 -10.648  12.725  0.00  0.00    +0.241 C 
ATOM     20  O   UNL     1      -4.552 -10.760  12.118  0.00  0.00    -0.273 OA
BRANCH  19  21
ATOM     21  C   UNL     1      -3.197 -10.698  12.567  0.00  0.00    +0.087 C 
BRANCH  21  22
ATOM     22  C   UNL     1      -2.855 -10.194  12.009  0.00  0.00    +0.021 C 
BRANCH  22  23
ATOM     23  C   UNL     1      -2.089 -10.339  11.739  0.00  0.00    +0.115 C 
BRANCH  23  24
ATOM     24  C   UNL     1      -1.638  -9.721  11.428  0.00  0.00    +0.365 C 
ATOM     25  O   UNL     1      -1.859  -9.368  10.716  0.00  0.00    -0.246 OA
ATOM     26  O   UNL     1      -0.967  -9.457  11.829  0.00  0.00    -0.246 OA
ENDBRANCH  23  24
ENDBRANCH  22  23
ENDBRANCH  21  22
ENDBRANCH  19  21
ENDBRANCH  17  18
ENDBRANCH  16  17
TORSDOF 10
ENDMDL
