MODEL 1
REMARK VINA RESULT:     -12.6      0.000      0.000
REMARK  Name = 
REMARK  5 active torsions:
REMARK  status: ('A' for Active; 'I' for Inactive)
REMARK    1  A    between atoms: C_2  and  C_4
REMARK    2  A    between atoms: C_4  and  C_5
REMARK    3  A    between atoms: C_5  and  C_6
REMARK    4  A    between atoms: C_15  and  C_22
REMARK    5  A    between atoms: C_24  and  C_28
REMARK                            x       y       z     vdW  Elec       q    Type
REMARK                         _______ _______ _______ _____ _____    ______ ____
ROOT
ATOM      6  C   UNL     1      -2.074   2.660  24.685  0.00  0.00    +0.226 C 
ATOM      7  O   UNL     1      -2.887   2.533  24.749  0.00  0.00    -0.275 OA
ATOM      8  N   UNL     1      -1.552   2.022  24.726  0.00  0.00    -0.279 N 
ATOM      9  C   UNL     1      -0.826   1.608  24.729  0.00  0.00    +0.095 C 
ATOM     10  C   UNL     1      -1.162   0.687  24.856  0.00  0.00    +0.043 C 
ATOM     11  C   UNL     1      -1.273  -0.114  24.955  0.00  0.00    +0.011 C 
ATOM     12  C   UNL     1      -1.670   0.464  24.912  0.00  0.00    +0.058 C 
ATOM     13  C   UNL     1      -1.330   1.348  24.790  0.00  0.00    +0.099 C 
ATOM     14  C   UNL     1      -2.546   0.740  24.934  0.00  0.00    +0.041 A 
ATOM     15  C   UNL     1      -3.310   0.441  25.016  0.00  0.00    +0.012 A 
ATOM     16  C   UNL     1      -3.957   0.952  24.996  0.00  0.00    +0.006 A 
ATOM     17  C   UNL     1      -3.840   1.762  24.896  0.00  0.00    +0.061 A 
ATOM     18  C   UNL     1      -3.076   2.062  24.815  0.00  0.00    +0.261 A 
ATOM     19  O   UNL     1      -3.216   2.870  24.730  0.00  0.00    -0.267 OA
ATOM     20  N   UNL     1      -2.429   1.551  24.834  0.00  0.00    -0.299 N 
ATOM     21  C   UNL     1      -2.074   0.985  24.877  0.00  0.00    +0.110 C 
ENDROOT
BRANCH  15  22
ATOM     22  C   UNL     1      -3.427  -0.370  25.116  0.00  0.00    +0.002 A 
ATOM     23  C   UNL     1      -3.665  -0.834  24.477  0.00  0.00    +0.010 A 
ATOM     24  C   UNL     1      -3.782  -1.645  24.578  0.00  0.00    +0.068 A 
ATOM     25  C   UNL     1      -3.661  -1.991  25.317  0.00  0.00    +0.010 A 
ATOM     26  C   UNL     1      -3.423  -1.527  25.955  0.00  0.00    +0.001 A 
ATOM     27  C   UNL     1      -3.306  -0.716  25.855  0.00  0.00    +0.000 A 
BRANCH  24  28
ATOM     28  C   UNL     1      -4.020  -2.110  23.939  0.00  0.00    +0.100 C 
ATOM     29  N   UNL     1      -4.257  -2.575  23.300  0.00  0.00    -0.191 NA
ENDBRANCH  24  28
ENDBRANCH  15  22
BRANCH   6   5
ATOM      5  C   UNL     1      -1.783   3.424  24.579  0.00  0.00    +0.097 C 
BRANCH   5   4
ATOM      4  C   UNL     1      -1.608   3.893  25.235  0.00  0.00    +0.124 C 
BRANCH   4   2
ATOM      1  O   UNL     1      -1.763   5.305  25.389  0.00  0.00    -0.246 OA
ATOM      2  C   UNL     1      -1.320   4.660  25.129  0.00  0.00    +0.365 C 
ATOM      3  O   UNL     1      -0.590   4.779  24.764  0.00  0.00    -0.246 OA
ENDBRANCH   4   2
ENDBRANCH   5   4
ENDBRANCH   6   5
TORSDOF 5
ENDMDL
MODEL 2
REMARK VINA RESULT:     -12.0      2.292      4.863
REMARK  Name = 
REMARK  5 active torsions:
REMARK  status: ('A' for Active; 'I' for Inactive)
REMARK    1  A    between atoms: C_2  and  C_4
REMARK    2  A    between atoms: C_4  and  C_5
REMARK    3  A    between atoms: C_5  and  C_6
REMARK    4  A    between atoms: C_15  and  C_22
REMARK    5  A    between atoms: C_24  and  C_28
REMARK                            x       y       z     vdW  Elec       q    Type
REMARK                         _______ _______ _______ _____ _____    ______ ____
ROOT
ATOM      6  C   UNL     1      -3.990  -0.465  24.217  0.00  0.00    +0.226 C 
ATOM      7  O   UNL     1      -3.431  -0.118  23.719  0.00  0.00    -0.275 OA
ATOM      8  N   UNL     1      -4.447   0.006  24.717  0.00  0.00    -0.279 N 
ATOM      9  C   UNL     1      -5.018   0.205  25.293  0.00  0.00    +0.095 C 
ATOM     10  C   UNL     1      -4.907   1.187  25.305  0.00  0.00    +0.043 C 
ATOM     11  C   UNL     1      -4.937   1.991  25.432  0.00  0.00    +0.011 C 
ATOM     12  C   UNL     1      -4.577   1.543  25.030  0.00  0.00    +0.058 C 
ATOM     13  C   UNL     1      -4.697   0.595  25.030  0.00  0.00    +0.099 C 
ATOM     14  C   UNL     1      -3.918   1.518  24.390  0.00  0.00    +0.041 A 
ATOM     15  C   UNL     1      -3.418   2.019  23.966  0.00  0.00    +0.012 A 
ATOM     16  C   UNL     1      -2.889   1.705  23.417  0.00  0.00    +0.006 A 
ATOM     17  C   UNL     1      -2.861   0.890  23.290  0.00  0.00    +0.061 A 
ATOM     18  C   UNL     1      -3.361   0.389  23.713  0.00  0.00    +0.261 A 
ATOM     19  O   UNL     1      -3.151  -0.352  23.420  0.00  0.00    -0.267 OA
ATOM     20  N   UNL     1      -3.890   0.703  24.263  0.00  0.00    -0.299 N 
ATOM     21  C   UNL     1      -4.219   1.151  24.636  0.00  0.00    +0.110 C 
ENDROOT
BRANCH  15  22
ATOM     22  C   UNL     1      -3.446   2.834  24.093  0.00  0.00    +0.002 A 
ATOM     23  C   UNL     1      -2.887   3.195  24.580  0.00  0.00    +0.010 A 
ATOM     24  C   UNL     1      -2.916   4.010  24.707  0.00  0.00    +0.068 A 
ATOM     25  C   UNL     1      -3.503   4.464  24.346  0.00  0.00    +0.010 A 
ATOM     26  C   UNL     1      -4.062   4.102  23.859  0.00  0.00    +0.001 A 
ATOM     27  C   UNL     1      -4.033   3.288  23.732  0.00  0.00    +0.000 A 
BRANCH  24  28
ATOM     28  C   UNL     1      -2.357   4.372  25.194  0.00  0.00    +0.100 C 
ATOM     29  N   UNL     1      -1.798   4.734  25.682  0.00  0.00    -0.191 NA
ENDBRANCH  24  28
ENDBRANCH  15  22
BRANCH   6   5
ATOM      5  C   UNL     1      -4.091  -1.284  24.215  0.00  0.00    +0.097 C 
BRANCH   5   4
ATOM      4  C   UNL     1      -3.511  -1.772  24.542  0.00  0.00    +0.124 C 
BRANCH   4   2
ATOM      1  O   UNL     1      -3.461  -2.947  25.354  0.00  0.00    -0.246 OA
ATOM      2  C   UNL     1      -3.659  -2.578  24.643  0.00  0.00    +0.365 C 
ATOM      3  O   UNL     1      -4.005  -3.013  24.034  0.00  0.00    -0.246 OA
ENDBRANCH   4   2
ENDBRANCH   5   4
ENDBRANCH   6   5
TORSDOF 5
ENDMDL
MODEL 3
REMARK VINA RESULT:     -11.7      1.804      4.736
REMARK  Name = 
REMARK  5 active torsions:
REMARK  status: ('A' for Active; 'I' for Inactive)
REMARK    1  A    between atoms: C_2  and  C_4
REMARK    2  A    between atoms: C_4  and  C_5
REMARK    3  A    between atoms: C_5  and  C_6
REMARK    4  A    between atoms: C_15  and  C_22
REMARK    5  A    between atoms: C_24  and  C_28
REMARK                            x       y       z     vdW  Elec       q    Type
REMARK                         _______ _______ _______ _____ _____    ______ ____
ROOT
ATOM      6  C   UNL     1      -3.041   0.020  24.391  0.00  0.00    +0.226 C 
ATOM      7  O   UNL     1      -2.338   0.160  24.801  0.00  0.00    -0.275 OA
ATOM      8  N   UNL     1      -3.549   0.647  24.218  0.00  0.00    -0.279 N 
ATOM      9  C   UNL     1      -4.218   1.048  23.918  0.00  0.00    +0.095 C 
ATOM     10  C   UNL     1      -3.995   1.971  24.194  0.00  0.00    +0.043 C 
ATOM     11  C   UNL     1      -3.960   2.770  24.347  0.00  0.00    +0.011 C 
ATOM     12  C   UNL     1      -3.567   2.201  24.467  0.00  0.00    +0.058 C 
ATOM     13  C   UNL     1      -3.796   1.315  24.194  0.00  0.00    +0.099 C 
ATOM     14  C   UNL     1      -2.777   1.940  24.857  0.00  0.00    +0.041 A 
ATOM     15  C   UNL     1      -2.130   2.250  25.264  0.00  0.00    +0.012 A 
ATOM     16  C   UNL     1      -1.523   1.751  25.514  0.00  0.00    +0.006 A 
ATOM     17  C   UNL     1      -1.562   0.942  25.357  0.00  0.00    +0.061 A 
ATOM     18  C   UNL     1      -2.209   0.632  24.951  0.00  0.00    +0.261 A 
ATOM     19  O   UNL     1      -2.022  -0.171  24.919  0.00  0.00    -0.267 OA
ATOM     20  N   UNL     1      -2.816   1.130  24.700  0.00  0.00    -0.299 N 
ATOM     21  C   UNL     1      -3.172   1.688  24.599  0.00  0.00    +0.110 C 
ENDROOT
BRANCH  15  22
ATOM     22  C   UNL     1      -2.091   3.059  25.421  0.00  0.00    +0.002 A 
ATOM     23  C   UNL     1      -1.551   3.532  25.015  0.00  0.00    +0.010 A 
ATOM     24  C   UNL     1      -1.512   4.342  25.172  0.00  0.00    +0.068 A 
ATOM     25  C   UNL     1      -2.013   4.678  25.734  0.00  0.00    +0.010 A 
ATOM     26  C   UNL     1      -2.553   4.205  26.140  0.00  0.00    +0.001 A 
ATOM     27  C   UNL     1      -2.592   3.395  25.983  0.00  0.00    +0.000 A 
BRANCH  24  28
ATOM     28  C   UNL     1      -0.972   4.815  24.766  0.00  0.00    +0.100 C 
ATOM     29  N   UNL     1      -0.431   5.288  24.360  0.00  0.00    -0.191 NA
ENDBRANCH  24  28
ENDBRANCH  15  22
BRANCH   6   5
ATOM      5  C   UNL     1      -3.236  -0.745  24.156  0.00  0.00    +0.097 C 
BRANCH   5   4
ATOM      4  C   UNL     1      -3.652  -1.241  24.669  0.00  0.00    +0.124 C 
BRANCH   4   2
ATOM      1  O   UNL     1      -3.552  -2.646  24.910  0.00  0.00    -0.246 OA
ATOM      2  C   UNL     1      -3.820  -2.018  24.446  0.00  0.00    +0.365 C 
ATOM      3  O   UNL     1      -4.254  -2.166  23.761  0.00  0.00    -0.246 OA
ENDBRANCH   4   2
ENDBRANCH   5   4
ENDBRANCH   6   5
TORSDOF 5
ENDMDL
MODEL 4
REMARK VINA RESULT:     -11.7      2.116      2.647
REMARK  Name = 
REMARK  5 active torsions:
REMARK  status: ('A' for Active; 'I' for Inactive)
REMARK    1  A    between atoms: C_2  and  C_4
REMARK    2  A    between atoms: C_4  and  C_5
REMARK    3  A    between atoms: C_5  and  C_6
REMARK    4  A    between atoms: C_15  and  C_22
REMARK    5  A    between atoms: C_24  and  C_28
REMARK                            x       y       z     vdW  Elec       q    Type
REMARK                         _______ _______ _______ _____ _____    ______ ____
ROOT
ATOM      6  C   UNL     1      -4.684   1.918  24.781  0.00  0.00    +0.226 C 
ATOM      7  O   UNL     1      -4.885   1.295  25.284  0.00  0.00    -0.275 OA
ATOM      8  N   UNL     1      -4.083   1.822  24.224  0.00  0.00    -0.279 N 
ATOM      9  C   UNL     1      -3.557   2.014  23.604  0.00  0.00    +0.095 C 
ATOM     10  C   UNL     1      -3.069   1.158  23.530  0.00  0.00    +0.043 C 
ATOM     11  C   UNL     1      -2.582   0.532  23.344  0.00  0.00    +0.011 C 
ATOM     12  C   UNL     1      -3.100   0.670  23.797  0.00  0.00    +0.058 C 
ATOM     13  C   UNL     1      -3.562   1.503  23.857  0.00  0.00    +0.099 C 
ATOM     14  C   UNL     1      -3.587   0.283  24.474  0.00  0.00    +0.041 A 
ATOM     15  C   UNL     1      -3.657  -0.426  24.888  0.00  0.00    +0.012 A 
ATOM     16  C   UNL     1      -4.219  -0.500  25.488  0.00  0.00    +0.006 A 
ATOM     17  C   UNL     1      -4.711   0.136  25.673  0.00  0.00    +0.061 A 
ATOM     18  C   UNL     1      -4.641   0.846  25.258  0.00  0.00    +0.261 A 
ATOM     19  O   UNL     1      -5.222   1.311  25.615  0.00  0.00    -0.267 OA
ATOM     20  N   UNL     1      -4.079   0.919  24.659  0.00  0.00    -0.299 N 
ATOM     21  C   UNL     1      -3.584   0.763  24.237  0.00  0.00    +0.110 C 
ENDROOT
BRANCH  15  22
ATOM     22  C   UNL     1      -3.165  -1.062  24.703  0.00  0.00    +0.002 A 
ATOM     23  C   UNL     1      -2.402  -1.098  25.015  0.00  0.00    +0.010 A 
ATOM     24  C   UNL     1      -1.910  -1.734  24.830  0.00  0.00    +0.068 A 
ATOM     25  C   UNL     1      -2.181  -2.334  24.334  0.00  0.00    +0.010 A 
ATOM     26  C   UNL     1      -2.944  -2.299  24.022  0.00  0.00    +0.001 A 
ATOM     27  C   UNL     1      -3.436  -1.663  24.207  0.00  0.00    +0.000 A 
BRANCH  24  28
ATOM     28  C   UNL     1      -1.147  -1.769  25.141  0.00  0.00    +0.100 C 
ATOM     29  N   UNL     1      -0.384  -1.804  25.453  0.00  0.00    -0.191 NA
ENDBRANCH  24  28
ENDBRANCH  15  22
BRANCH   6   5
ATOM      5  C   UNL     1      -5.085   2.637  24.834  0.00  0.00    +0.097 C 
BRANCH   5   4
ATOM      4  C   UNL     1      -4.963   3.130  25.485  0.00  0.00    +0.124 C 
BRANCH   4   2
ATOM      1  O   UNL     1      -4.787   4.537  25.305  0.00  0.00    -0.246 OA
ATOM      2  C   UNL     1      -5.273   3.895  25.487  0.00  0.00    +0.365 C 
ATOM      3  O   UNL     1      -6.068   4.017  25.669  0.00  0.00    -0.246 OA
ENDBRANCH   4   2
ENDBRANCH   5   4
ENDBRANCH   6   5
TORSDOF 5
ENDMDL
MODEL 5
REMARK VINA RESULT:     -11.4      1.572      2.991
REMARK  Name = 
REMARK  5 active torsions:
REMARK  status: ('A' for Active; 'I' for Inactive)
REMARK    1  A    between atoms: C_2  and  C_4
REMARK    2  A    between atoms: C_4  and  C_5
REMARK    3  A    between atoms: C_5  and  C_6
REMARK    4  A    between atoms: C_15  and  C_22
REMARK    5  A    between atoms: C_24  and  C_28
REMARK                            x       y       z     vdW  Elec       q    Type
REMARK                         _______ _______ _______ _____ _____    ______ ____
ROOT
ATOM      6  C   UNL     1      -3.810   2.392  24.920  0.00  0.00    +0.226 C 
ATOM      7  O   UNL     1      -3.054   2.620  25.160  0.00  0.00    -0.275 OA
ATOM      8  N   UNL     1      -3.939   1.628  24.635  0.00  0.00    -0.279 N 
ATOM      9  C   UNL     1      -4.353   0.972  24.325  0.00  0.00    +0.095 C 
ATOM     10  C   UNL     1      -3.611   0.321  24.267  0.00  0.00    +0.043 C 
ATOM     11  C   UNL     1      -3.120  -0.320  24.158  0.00  0.00    +0.011 C 
ATOM     12  C   UNL     1      -3.068   0.340  24.391  0.00  0.00    +0.058 C 
ATOM     13  C   UNL     1      -3.795   0.958  24.441  0.00  0.00    +0.099 C 
ATOM     14  C   UNL     1      -2.458   0.941  24.725  0.00  0.00    +0.041 A 
ATOM     15  C   UNL     1      -1.658   1.001  24.918  0.00  0.00    +0.012 A 
ATOM     16  C   UNL     1      -1.359   1.708  25.220  0.00  0.00    +0.006 A 
ATOM     17  C   UNL     1      -1.860   2.355  25.329  0.00  0.00    +0.061 A 
ATOM     18  C   UNL     1      -2.659   2.295  25.136  0.00  0.00    +0.261 A 
ATOM     19  O   UNL     1      -2.939   3.047  25.328  0.00  0.00    -0.267 OA
ATOM     20  N   UNL     1      -2.958   1.588  24.834  0.00  0.00    -0.299 N 
ATOM     21  C   UNL     1      -2.981   0.955  24.616  0.00  0.00    +0.110 C 
ENDROOT
BRANCH  15  22
ATOM     22  C   UNL     1      -1.157   0.355  24.809  0.00  0.00    +0.002 A 
ATOM     23  C   UNL     1      -0.644   0.335  24.164  0.00  0.00    +0.010 A 
ATOM     24  C   UNL     1      -0.143  -0.312  24.055  0.00  0.00    +0.068 A 
ATOM     25  C   UNL     1      -0.156  -0.939  24.591  0.00  0.00    +0.010 A 
ATOM     26  C   UNL     1      -0.670  -0.919  25.236  0.00  0.00    +0.001 A 
ATOM     27  C   UNL     1      -1.170  -0.272  25.345  0.00  0.00    +0.000 A 
BRANCH  24  28
ATOM     28  C   UNL     1       0.371  -0.332  23.410  0.00  0.00    +0.100 C 
ATOM     29  N   UNL     1       0.885  -0.352  22.764  0.00  0.00    -0.191 NA
ENDBRANCH  24  28
ENDBRANCH  15  22
BRANCH   6   5
ATOM      5  C   UNL     1      -4.436   2.927  24.964  0.00  0.00    +0.097 C 
BRANCH   5   4
ATOM      4  C   UNL     1      -4.787   3.092  25.693  0.00  0.00    +0.124 C 
BRANCH   4   2
ATOM      1  O   UNL     1      -6.147   3.155  26.125  0.00  0.00    -0.246 OA
ATOM      2  C   UNL     1      -5.509   3.489  25.722  0.00  0.00    +0.365 C 
ATOM      3  O   UNL     1      -5.593   4.219  25.349  0.00  0.00    -0.246 OA
ENDBRANCH   4   2
ENDBRANCH   5   4
ENDBRANCH   6   5
TORSDOF 5
ENDMDL
