MODEL 1
REMARK VINA RESULT:     -12.7      0.000      0.000
REMARK  Name = 
REMARK  5 active torsions:
REMARK  status: ('A' for Active; 'I' for Inactive)
REMARK    1  A    between atoms: O_2  and  C_3
REMARK    2  A    between atoms: C_6  and  C_9
REMARK    3  A    between atoms: N_11  and  C_12
REMARK    4  A    between atoms: C_18  and  C_19
REMARK    5  A    between atoms: C_22  and  C_25
REMARK                            x       y       z     vdW  Elec       q    Type
REMARK                         _______ _______ _______ _____ _____    ______ ____
ROOT
ATOM     12  C   UNL     1      -4.201   1.417  24.953  0.00  0.00    +0.132 C 
ATOM     13  C   UNL     1      -4.745   2.031  25.035  0.00  0.00    +0.202 C 
ATOM     14  O   UNL     1      -4.566   2.833  25.105  0.00  0.00    -0.219 OA
ATOM     15  C   UNL     1      -5.502   1.702  25.036  0.00  0.00    +0.184 C 
ATOM     16  O   UNL     1      -6.212   2.117  25.106  0.00  0.00    -0.220 OA
ATOM     17  C   UNL     1      -5.425   0.885  24.953  0.00  0.00    +0.042 C 
ATOM     18  C   UNL     1      -4.620   0.708  24.902  0.00  0.00    +0.048 C 
ENDROOT
BRANCH  18  19
ATOM     19  C   UNL     1      -4.294  -0.045  24.816  0.00  0.00    -0.021 A 
ATOM     20  C   UNL     1      -3.952  -0.424  25.463  0.00  0.00    -0.004 A 
ATOM     21  C   UNL     1      -3.626  -1.176  25.376  0.00  0.00    +0.004 A 
ATOM     22  C   UNL     1      -3.643  -1.550  24.641  0.00  0.00    +0.071 A 
ATOM     23  C   UNL     1      -3.985  -1.171  23.993  0.00  0.00    +0.004 A 
ATOM     24  C   UNL     1      -4.311  -0.418  24.080  0.00  0.00    -0.004 A 
BRANCH  22  25
ATOM     25  C   UNL     1      -3.317  -2.302  24.553  0.00  0.00    +0.419 C 
ATOM     26  F   UNL     1      -2.991  -3.056  24.466  0.00  0.00    -0.166 F 
ATOM     27  F   UNL     1      -2.593  -1.966  24.345  0.00  0.00    -0.166 F 
ATOM     28  F   UNL     1      -4.040  -2.640  24.762  0.00  0.00    -0.166 F 
ENDBRANCH  22  25
ENDBRANCH  18  19
BRANCH  12  11
ATOM      9  C   UNL     1      -3.035   2.032  24.402  0.00  0.00    +0.265 C 
ATOM     10  O   UNL     1      -3.510   2.487  23.904  0.00  0.00    -0.268 OA
ATOM     11  N   UNL     1      -3.380   1.498  24.926  0.00  0.00    -0.200 NA
BRANCH   9   6
ATOM      3  C   UNL     1      -0.573   2.273  24.321  0.00  0.00    +0.139 A 
ATOM      4  C   UNL     1      -0.985   2.013  23.655  0.00  0.00    +0.037 A 
ATOM      5  C   UNL     1      -1.805   1.933  23.682  0.00  0.00    +0.008 A 
ATOM      6  C   UNL     1      -2.215   2.112  24.375  0.00  0.00    +0.055 A 
ATOM      7  C   UNL     1      -1.803   2.373  25.040  0.00  0.00    +0.008 A 
ATOM      8  C   UNL     1      -0.983   2.453  25.013  0.00  0.00    +0.037 A 
BRANCH   3   2
ATOM      1  C   UNL     1       0.726   1.683  24.250  0.00  0.00    +0.252 C 
ATOM      2  O   UNL     1       0.247   2.353  24.294  0.00  0.00    -0.471 OA
ENDBRANCH   3   2
ENDBRANCH   9   6
ENDBRANCH  12  11
TORSDOF 5
ENDMDL
MODEL 2
REMARK VINA RESULT:     -12.3      2.620      4.274
REMARK  Name = 
REMARK  5 active torsions:
REMARK  status: ('A' for Active; 'I' for Inactive)
REMARK    1  A    between atoms: O_2  and  C_3
REMARK    2  A    between atoms: C_6  and  C_9
REMARK    3  A    between atoms: N_11  and  C_12
REMARK    4  A    between atoms: C_18  and  C_19
REMARK    5  A    between atoms: C_22  and  C_25
REMARK                            x       y       z     vdW  Elec       q    Type
REMARK                         _______ _______ _______ _____ _____    ______ ____
ROOT
ATOM     12  C   UNL     1      -4.602   2.686  25.454  0.00  0.00    +0.132 C 
ATOM     13  C   UNL     1      -5.412   2.802  25.550  0.00  0.00    +0.202 C 
ATOM     14  O   UNL     1      -5.989   2.212  25.574  0.00  0.00    -0.219 OA
ATOM     15  C   UNL     1      -5.547   3.614  25.618  0.00  0.00    +0.184 C 
ATOM     16  O   UNL     1      -6.281   3.977  25.722  0.00  0.00    -0.220 OA
ATOM     17  C   UNL     1      -4.820   3.999  25.563  0.00  0.00    +0.042 C 
ATOM     18  C   UNL     1      -4.235   3.425  25.462  0.00  0.00    +0.048 C 
ENDROOT
BRANCH  18  19
ATOM     19  C   UNL     1      -3.426   3.567  25.383  0.00  0.00    -0.021 A 
ATOM     20  C   UNL     1      -3.112   3.772  24.649  0.00  0.00    -0.004 A 
ATOM     21  C   UNL     1      -2.304   3.914  24.570  0.00  0.00    +0.004 A 
ATOM     22  C   UNL     1      -1.808   3.850  25.227  0.00  0.00    +0.071 A 
ATOM     23  C   UNL     1      -2.122   3.645  25.962  0.00  0.00    +0.004 A 
ATOM     24  C   UNL     1      -2.931   3.503  26.041  0.00  0.00    -0.004 A 
BRANCH  22  25
ATOM     25  C   UNL     1      -1.000   3.992  25.149  0.00  0.00    +0.419 C 
ATOM     26  F   UNL     1      -0.190   4.134  25.072  0.00  0.00    -0.166 F 
ATOM     27  F   UNL     1      -0.873   3.192  24.992  0.00  0.00    -0.166 F 
ATOM     28  F   UNL     1      -1.125   4.792  25.307  0.00  0.00    -0.166 F 
ENDBRANCH  22  25
ENDBRANCH  18  19
BRANCH  12  11
ATOM      9  C   UNL     1      -4.524   1.399  24.838  0.00  0.00    +0.265 C 
ATOM     10  O   UNL     1      -5.203   1.567  24.401  0.00  0.00    -0.268 OA
ATOM     11  N   UNL     1      -4.224   1.958  25.364  0.00  0.00    -0.200 NA
BRANCH   9   6
ATOM      3  C   UNL     1      -3.390  -0.785  24.571  0.00  0.00    +0.139 A 
ATOM      4  C   UNL     1      -3.382  -0.237  23.954  0.00  0.00    +0.037 A 
ATOM      5  C   UNL     1      -3.759   0.490  24.043  0.00  0.00    +0.008 A 
ATOM      6  C   UNL     1      -4.146   0.671  24.749  0.00  0.00    +0.055 A 
ATOM      7  C   UNL     1      -4.155   0.123  25.366  0.00  0.00    +0.008 A 
ATOM      8  C   UNL     1      -3.777  -0.604  25.277  0.00  0.00    +0.037 A 
BRANCH   3   2
ATOM      1  C   UNL     1      -3.435  -2.212  24.587  0.00  0.00    +0.252 C 
ATOM      2  O   UNL     1      -3.012  -1.512  24.482  0.00  0.00    -0.471 OA
ENDBRANCH   3   2
ENDBRANCH   9   6
ENDBRANCH  12  11
TORSDOF 5
ENDMDL
MODEL 3
REMARK VINA RESULT:     -12.3      2.118      4.004
REMARK  Name = 
REMARK  5 active torsions:
REMARK  status: ('A' for Active; 'I' for Inactive)
REMARK    1  A    between atoms: O_2  and  C_3
REMARK    2  A    between atoms: C_6  and  C_9
REMARK    3  A    between atoms: N_11  and  C_12
REMARK    4  A    between atoms: C_18  and  C_19
REMARK    5  A    between atoms: C_22  and  C_25
REMARK                            x       y       z     vdW  Elec       q    Type
REMARK                         _______ _______ _______ _____ _____    ______ ____
ROOT
ATOM     12  C   UNL     1      -4.319   1.893  24.781  0.00  0.00    +0.132 C 
ATOM     13  C   UNL     1      -5.082   2.151  24.957  0.00  0.00    +0.202 C 
ATOM     14  O   UNL     1      -5.760   1.682  24.981  0.00  0.00    -0.219 OA
ATOM     15  C   UNL     1      -5.049   2.962  25.105  0.00  0.00    +0.184 C 
ATOM     16  O   UNL     1      -5.688   3.446  25.303  0.00  0.00    -0.220 OA
ATOM     17  C   UNL     1      -4.265   3.205  25.020  0.00  0.00    +0.042 C 
ATOM     18  C   UNL     1      -3.813   2.544  24.820  0.00  0.00    +0.048 C 
ENDROOT
BRANCH  18  19
ATOM     19  C   UNL     1      -3.000   2.537  24.683  0.00  0.00    -0.021 A 
ATOM     20  C   UNL     1      -2.710   2.496  23.912  0.00  0.00    -0.004 A 
ATOM     21  C   UNL     1      -1.897   2.488  23.776  0.00  0.00    +0.004 A 
ATOM     22  C   UNL     1      -1.372   2.522  24.412  0.00  0.00    +0.071 A 
ATOM     23  C   UNL     1      -1.661   2.563  25.183  0.00  0.00    +0.004 A 
ATOM     24  C   UNL     1      -2.475   2.571  25.320  0.00  0.00    -0.004 A 
BRANCH  22  25
ATOM     25  C   UNL     1      -0.559   2.515  24.276  0.00  0.00    +0.419 C 
ATOM     26  F   UNL     1       0.255   2.508  24.141  0.00  0.00    -0.166 F 
ATOM     27  F   UNL     1      -0.570   1.691  24.246  0.00  0.00    -0.166 F 
ATOM     28  F   UNL     1      -0.547   3.339  24.306  0.00  0.00    -0.166 F 
ENDBRANCH  22  25
ENDBRANCH  18  19
BRANCH  12  11
ATOM      9  C   UNL     1      -4.350   0.495  25.075  0.00  0.00    +0.265 C 
ATOM     10  O   UNL     1      -4.820   0.645  25.736  0.00  0.00    -0.268 OA
ATOM     11  N   UNL     1      -4.099   1.119  24.598  0.00  0.00    -0.200 NA
BRANCH   9   6
ATOM      3  C   UNL     1      -3.690  -1.826  24.527  0.00  0.00    +0.139 A 
ATOM      4  C   UNL     1      -3.496  -1.504  25.261  0.00  0.00    +0.037 A 
ATOM      5  C   UNL     1      -3.715  -0.731  25.443  0.00  0.00    +0.008 A 
ATOM      6  C   UNL     1      -4.130  -0.279  24.892  0.00  0.00    +0.055 A 
ATOM      7  C   UNL     1      -4.324  -0.601  24.158  0.00  0.00    +0.008 A 
ATOM      8  C   UNL     1      -4.105  -1.374  23.976  0.00  0.00    +0.037 A 
BRANCH   3   2
ATOM      1  C   UNL     1      -2.677  -2.823  24.380  0.00  0.00    +0.252 C 
ATOM      2  O   UNL     1      -3.470  -2.600  24.344  0.00  0.00    -0.471 OA
ENDBRANCH   3   2
ENDBRANCH   9   6
ENDBRANCH  12  11
TORSDOF 5
ENDMDL
MODEL 4
REMARK VINA RESULT:     -12.1      2.584      3.838
REMARK  Name = 
REMARK  5 active torsions:
REMARK  status: ('A' for Active; 'I' for Inactive)
REMARK    1  A    between atoms: O_2  and  C_3
REMARK    2  A    between atoms: C_6  and  C_9
REMARK    3  A    between atoms: N_11  and  C_12
REMARK    4  A    between atoms: C_18  and  C_19
REMARK    5  A    between atoms: C_22  and  C_25
REMARK                            x       y       z     vdW  Elec       q    Type
REMARK                         _______ _______ _______ _____ _____    ______ ____
ROOT
ATOM     12  C   UNL     1      -1.885   3.282  24.929  0.00  0.00    +0.132 C 
ATOM     13  C   UNL     1      -1.314   3.869  25.022  0.00  0.00    +0.202 C 
ATOM     14  O   UNL     1      -0.497   3.762  24.983  0.00  0.00    -0.219 OA
ATOM     15  C   UNL     1      -1.703   4.583  25.161  0.00  0.00    +0.184 C 
ATOM     16  O   UNL     1      -1.344   5.316  25.286  0.00  0.00    -0.220 OA
ATOM     17  C   UNL     1      -2.515   4.437  25.154  0.00  0.00    +0.042 C 
ATOM     18  C   UNL     1      -2.628   3.632  25.011  0.00  0.00    +0.048 C 
ENDROOT
BRANCH  18  19
ATOM     19  C   UNL     1      -3.356   3.247  24.958  0.00  0.00    -0.021 A 
ATOM     20  C   UNL     1      -3.655   3.027  24.222  0.00  0.00    -0.004 A 
ATOM     21  C   UNL     1      -4.382   2.642  24.170  0.00  0.00    +0.004 A 
ATOM     22  C   UNL     1      -4.811   2.477  24.856  0.00  0.00    +0.071 A 
ATOM     23  C   UNL     1      -4.512   2.697  25.592  0.00  0.00    +0.004 A 
ATOM     24  C   UNL     1      -3.784   3.082  25.645  0.00  0.00    -0.004 A 
BRANCH  22  25
ATOM     25  C   UNL     1      -5.539   2.092  24.804  0.00  0.00    +0.419 C 
ATOM     26  F   UNL     1      -6.267   1.707  24.753  0.00  0.00    -0.166 F 
ATOM     27  F   UNL     1      -5.153   1.384  24.631  0.00  0.00    -0.166 F 
ATOM     28  F   UNL     1      -5.925   2.799  24.978  0.00  0.00    -0.166 F 
ENDBRANCH  22  25
ENDBRANCH  18  19
BRANCH  12  11
ATOM      9  C   UNL     1      -1.219   2.062  25.261  0.00  0.00    +0.265 C 
ATOM     10  O   UNL     1      -0.843   2.439  25.890  0.00  0.00    -0.268 OA
ATOM     11  N   UNL     1      -1.740   2.483  24.780  0.00  0.00    -0.200 NA
BRANCH   9   6
ATOM      3  C   UNL     1      -0.783  -0.333  24.815  0.00  0.00    +0.139 A 
ATOM      4  C   UNL     1      -1.137  -0.102  25.523  0.00  0.00    +0.037 A 
ATOM      5  C   UNL     1      -1.282   0.695  25.672  0.00  0.00    +0.008 A 
ATOM      6  C   UNL     1      -1.074   1.264  25.112  0.00  0.00    +0.055 A 
ATOM      7  C   UNL     1      -0.719   1.033  24.404  0.00  0.00    +0.008 A 
ATOM      8  C   UNL     1      -0.574   0.236  24.255  0.00  0.00    +0.037 A 
BRANCH   3   2
ATOM      1  C   UNL     1      -1.263  -1.668  24.654  0.00  0.00    +0.252 C 
ATOM      2  O   UNL     1      -0.638  -1.131  24.666  0.00  0.00    -0.471 OA
ENDBRANCH   3   2
ENDBRANCH   9   6
ENDBRANCH  12  11
TORSDOF 5
ENDMDL
MODEL 5
REMARK VINA RESULT:     -12.0      2.861      5.159
REMARK  Name = 
REMARK  5 active torsions:
REMARK  status: ('A' for Active; 'I' for Inactive)
REMARK    1  A    between atoms: O_2  and  C_3
REMARK    2  A    between atoms: C_6  and  C_9
REMARK    3  A    between atoms: N_11  and  C_12
REMARK    4  A    between atoms: C_18  and  C_19
REMARK    5  A    between atoms: C_22  and  C_25
REMARK                            x       y       z     vdW  Elec       q    Type
REMARK                         _______ _______ _______ _____ _____    ______ ____
ROOT
ATOM     12  C   UNL     1      -1.597   1.174  24.699  0.00  0.00    +0.132 C 
ATOM     13  C   UNL     1      -1.300   0.425  24.528  0.00  0.00    +0.202 C 
ATOM     14  O   UNL     1      -1.733  -0.277  24.510  0.00  0.00    -0.219 OA
ATOM     15  C   UNL     1      -0.492   0.500  24.377  0.00  0.00    +0.184 C 
ATOM     16  O   UNL     1       0.025  -0.114  24.182  0.00  0.00    -0.220 OA
ATOM     17  C   UNL     1      -0.291   1.296  24.455  0.00  0.00    +0.042 C 
ATOM     18  C   UNL     1      -0.975   1.714  24.654  0.00  0.00    +0.048 C 
ENDROOT
BRANCH  18  19
ATOM     19  C   UNL     1      -1.025   2.527  24.786  0.00  0.00    -0.021 A 
ATOM     20  C   UNL     1      -1.103   2.818  25.553  0.00  0.00    -0.004 A 
ATOM     21  C   UNL     1      -1.154   3.630  25.683  0.00  0.00    +0.004 A 
ATOM     22  C   UNL     1      -1.125   4.153  25.046  0.00  0.00    +0.071 A 
ATOM     23  C   UNL     1      -1.047   3.862  24.278  0.00  0.00    +0.004 A 
ATOM     24  C   UNL     1      -0.997   3.049  24.146  0.00  0.00    -0.004 A 
BRANCH  22  25
ATOM     25  C   UNL     1      -1.175   4.965  25.175  0.00  0.00    +0.419 C 
ATOM     26  F   UNL     1      -1.226   5.779  25.305  0.00  0.00    -0.166 F 
ATOM     27  F   UNL     1      -0.400   5.057  24.908  0.00  0.00    -0.166 F 
ATOM     28  F   UNL     1      -1.950   4.875  25.443  0.00  0.00    -0.166 F 
ENDBRANCH  22  25
ENDBRANCH  18  19
BRANCH  12  11
ATOM      9  C   UNL     1      -2.987   1.140  24.364  0.00  0.00    +0.265 C 
ATOM     10  O   UNL     1      -2.808   0.746  23.662  0.00  0.00    -0.268 OA
ATOM     11  N   UNL     1      -2.382   1.354  24.883  0.00  0.00    -0.200 NA
BRANCH   9   6
ATOM      3  C   UNL     1      -5.338   1.679  24.915  0.00  0.00    +0.139 A 
ATOM      4  C   UNL     1      -4.984   1.005  25.233  0.00  0.00    +0.037 A 
ATOM      5  C   UNL     1      -4.201   0.826  25.049  0.00  0.00    +0.008 A 
ATOM      6  C   UNL     1      -3.770   1.320  24.548  0.00  0.00    +0.055 A 
ATOM      7  C   UNL     1      -4.125   1.993  24.230  0.00  0.00    +0.008 A 
ATOM      8  C   UNL     1      -4.908   2.173  24.414  0.00  0.00    +0.037 A 
BRANCH   3   2
ATOM      1  C   UNL     1      -6.303   2.236  25.810  0.00  0.00    +0.252 C 
ATOM      2  O   UNL     1      -6.122   1.859  25.099  0.00  0.00    -0.471 OA
ENDBRANCH   3   2
ENDBRANCH   9   6
ENDBRANCH  12  11
TORSDOF 5
ENDMDL
MODEL 6
REMARK VINA RESULT:     -11.6      2.577      4.543
REMARK  Name = 
REMARK  5 active torsions:
REMARK  status: ('A' for Active; 'I' for Inactive)
REMARK    1  A    between atoms: O_2  and  C_3
REMARK    2  A    between atoms: C_6  and  C_9
REMARK    3  A    between atoms: N_11  and  C_12
REMARK    4  A    between atoms: C_18  and  C_19
REMARK    5  A    between atoms: C_22  and  C_25
REMARK                            x       y       z     vdW  Elec       q    Type
REMARK                         _______ _______ _______ _____ _____    ______ ____
ROOT
ATOM     12  C   UNL     1      -1.982   2.017  24.448  0.00  0.00    +0.132 C 
ATOM     13  C   UNL     1      -1.182   2.084  24.260  0.00  0.00    +0.202 C 
ATOM     14  O   UNL     1      -0.676   1.464  24.063  0.00  0.00    -0.219 OA
ATOM     15  C   UNL     1      -0.977   2.882  24.304  0.00  0.00    +0.184 C 
ATOM     16  O   UNL     1      -0.229   3.200  24.158  0.00  0.00    -0.220 OA
ATOM     17  C   UNL     1      -1.650   3.308  24.519  0.00  0.00    +0.042 C 
ATOM     18  C   UNL     1      -2.272   2.772  24.609  0.00  0.00    +0.048 C 
ENDROOT
BRANCH  18  19
ATOM     19  C   UNL     1      -3.047   2.961  24.821  0.00  0.00    -0.021 A 
ATOM     20  C   UNL     1      -3.646   2.947  24.255  0.00  0.00    -0.004 A 
ATOM     21  C   UNL     1      -4.419   3.136  24.467  0.00  0.00    +0.004 A 
ATOM     22  C   UNL     1      -4.595   3.339  25.247  0.00  0.00    +0.071 A 
ATOM     23  C   UNL     1      -3.996   3.353  25.814  0.00  0.00    +0.004 A 
ATOM     24  C   UNL     1      -3.221   3.165  25.602  0.00  0.00    -0.004 A 
BRANCH  22  25
ATOM     25  C   UNL     1      -5.369   3.528  25.460  0.00  0.00    +0.419 C 
ATOM     26  F   UNL     1      -6.143   3.717  25.674  0.00  0.00    -0.166 F 
ATOM     27  F   UNL     1      -5.181   4.331  25.434  0.00  0.00    -0.166 F 
ATOM     28  F   UNL     1      -5.557   2.726  25.487  0.00  0.00    -0.166 F 
ENDBRANCH  22  25
ENDBRANCH  18  19
BRANCH  12  11
ATOM      9  C   UNL     1      -2.151   0.680  24.925  0.00  0.00    +0.265 C 
ATOM     10  O   UNL     1      -1.450   0.745  25.354  0.00  0.00    -0.268 OA
ATOM     11  N   UNL     1      -2.417   1.315  24.472  0.00  0.00    -0.200 NA
BRANCH   9   6
ATOM      3  C   UNL     1      -3.455  -1.422  24.996  0.00  0.00    +0.139 A 
ATOM      4  C   UNL     1      -3.362  -1.017  24.283  0.00  0.00    +0.037 A 
ATOM      5  C   UNL     1      -2.928  -0.318  24.260  0.00  0.00    +0.008 A 
ATOM      6  C   UNL     1      -2.586  -0.020  24.949  0.00  0.00    +0.055 A 
ATOM      7  C   UNL     1      -2.679  -0.425  25.662  0.00  0.00    +0.008 A 
ATOM      8  C   UNL     1      -3.113  -1.124  25.685  0.00  0.00    +0.037 A 
BRANCH   3   2
ATOM      1  C   UNL     1      -3.600  -2.800  24.652  0.00  0.00    +0.252 C 
ATOM      2  O   UNL     1      -3.890  -2.122  25.020  0.00  0.00    -0.471 OA
ENDBRANCH   3   2
ENDBRANCH   9   6
ENDBRANCH  12  11
TORSDOF 5
ENDMDL
