MODEL 1
REMARK VINA RESULT:     -13.5      0.000      0.000
REMARK  Name = 
REMARK  4 active torsions:
REMARK  status: ('A' for Active; 'I' for Inactive)
REMARK    1  A    between atoms: C_5  and  C_9
REMARK    2  A    between atoms: C_12  and  C_14
REMARK    3  A    between atoms: N_19  and  C_20
REMARK    4  A    between atoms: C_20  and  C_21
REMARK                            x       y       z     vdW  Elec       q    Type
REMARK                         _______ _______ _______ _____ _____    ______ ____
ROOT
ATOM     14  C   UNL     1      -4.000   1.889  24.740  0.00  0.00    +0.144 C 
ATOM     15  C   UNL     1      -4.779   2.110  24.893  0.00  0.00    +0.073 C 
ATOM     16  C   UNL     1      -4.945   2.862  25.192  0.00  0.00    +0.077 A 
ATOM     17  C   UNL     1      -4.330   3.392  25.337  0.00  0.00    +0.090 A 
ATOM     18  C   UNL     1      -3.549   3.171  25.184  0.00  0.00    +0.121 C 
ATOM     19  N   UNL     1      -3.385   2.420  24.885  0.00  0.00    -0.257 NA
ATOM     27  N   UNL     1      -4.659   4.089  25.629  0.00  0.00    -0.226 NA
ATOM     28  C   UNL     1      -5.477   3.990  25.665  0.00  0.00    +0.198 A 
ATOM     29  N   UNL     1      -5.653   3.232  25.394  0.00  0.00    -0.227 NA
ENDROOT
BRANCH  14  12
ATOM      9  C   UNL     1      -3.662  -0.182  24.352  0.00  0.00    +0.203 A 
ATOM     10  N   UNL     1      -3.499   0.147  23.614  0.00  0.00    -0.056 NA
ATOM     11  O   UNL     1      -3.606   0.964  23.669  0.00  0.00    -0.336 OA
ATOM     12  C   UNL     1      -3.835   1.139  24.442  0.00  0.00    +0.251 A 
ATOM     13  N   UNL     1      -3.869   0.431  24.864  0.00  0.00    -0.190 NA
BRANCH   9   5
ATOM      1  F   UNL     1      -3.512  -3.387  25.125  0.00  0.00    -0.203 F 
ATOM      2  C   UNL     1      -3.549  -2.585  24.932  0.00  0.00    +0.151 A 
ATOM      3  C   UNL     1      -3.207  -2.025  25.430  0.00  0.00    +0.031 A 
ATOM      4  C   UNL     1      -3.244  -1.223  25.237  0.00  0.00    +0.006 A 
ATOM      5  C   UNL     1      -3.624  -0.983  24.546  0.00  0.00    +0.040 A 
ATOM      6  C   UNL     1      -3.967  -1.544  24.047  0.00  0.00    +0.017 A 
ATOM      7  C   UNL     1      -3.929  -2.346  24.241  0.00  0.00    +0.085 A 
ATOM      8 CL   UNL     1      -4.272  -2.907  23.742  0.00  0.00    -0.080 Cl
ENDBRANCH   9   5
ENDBRANCH  14  12
BRANCH  19  20
ATOM     20  C   UNL     1      -2.605   2.200  24.732  0.00  0.00    +0.100 C 
BRANCH  20  21
ATOM     21  C   UNL     1      -1.984   2.692  24.963  0.00  0.00    -0.006 A 
ATOM     22  C   UNL     1      -1.707   3.274  24.449  0.00  0.00    -0.003 A 
ATOM     23  C   UNL     1      -1.086   3.766  24.679  0.00  0.00    -0.000 A 
ATOM     24  C   UNL     1      -0.743   3.676  25.423  0.00  0.00    -0.000 A 
ATOM     25  C   UNL     1      -1.020   3.093  25.938  0.00  0.00    -0.000 A 
ATOM     26  C   UNL     1      -1.641   2.601  25.708  0.00  0.00    -0.003 A 
ENDBRANCH  20  21
ENDBRANCH  19  20
TORSDOF 4
ENDMDL
MODEL 2
REMARK VINA RESULT:     -13.1      2.454      4.987
REMARK  Name = 
REMARK  4 active torsions:
REMARK  status: ('A' for Active; 'I' for Inactive)
REMARK    1  A    between atoms: C_5  and  C_9
REMARK    2  A    between atoms: C_12  and  C_14
REMARK    3  A    between atoms: N_19  and  C_20
REMARK    4  A    between atoms: C_20  and  C_21
REMARK                            x       y       z     vdW  Elec       q    Type
REMARK                         _______ _______ _______ _____ _____    ______ ____
ROOT
ATOM     14  C   UNL     1      -2.181   0.655  24.111  0.00  0.00    +0.144 C 
ATOM     15  C   UNL     1      -1.408   0.890  23.948  0.00  0.00    +0.073 C 
ATOM     16  C   UNL     1      -0.786   0.355  24.037  0.00  0.00    +0.077 A 
ATOM     17  C   UNL     1      -0.938  -0.415  24.289  0.00  0.00    +0.090 A 
ATOM     18  C   UNL     1      -1.712  -0.651  24.453  0.00  0.00    +0.121 C 
ATOM     19  N   UNL     1      -2.333  -0.115  24.364  0.00  0.00    -0.257 NA
ATOM     27  N   UNL     1      -0.219  -0.818  24.326  0.00  0.00    -0.226 NA
ATOM     28  C   UNL     1       0.377  -0.297  24.097  0.00  0.00    +0.198 A 
ATOM     29  N   UNL     1       0.027   0.428  23.918  0.00  0.00    -0.227 NA
ENDROOT
BRANCH  14  12
ATOM      9  C   UNL     1      -3.751   2.090  24.291  0.00  0.00    +0.203 A 
ATOM     10  N   UNL     1      -3.766   1.938  23.481  0.00  0.00    -0.056 NA
ATOM     11  O   UNL     1      -3.180   1.381  23.314  0.00  0.00    -0.336 OA
ATOM     12  C   UNL     1      -2.802   1.190  24.023  0.00  0.00    +0.251 A 
ATOM     13  N   UNL     1      -3.155   1.627  24.626  0.00  0.00    -0.190 NA
BRANCH   9   5
ATOM      1  F   UNL     1      -5.728   4.176  25.913  0.00  0.00    -0.203 F 
ATOM      2  C   UNL     1      -5.233   3.655  25.507  0.00  0.00    +0.151 A 
ATOM      3  C   UNL     1      -4.548   3.934  25.144  0.00  0.00    +0.031 A 
ATOM      4  C   UNL     1      -4.053   3.413  24.739  0.00  0.00    +0.006 A 
ATOM      5  C   UNL     1      -4.245   2.612  24.696  0.00  0.00    +0.040 A 
ATOM      6  C   UNL     1      -4.931   2.332  25.060  0.00  0.00    +0.017 A 
ATOM      7  C   UNL     1      -5.425   2.854  25.465  0.00  0.00    +0.085 A 
ATOM      8 CL   UNL     1      -6.111   2.574  25.828  0.00  0.00    -0.080 Cl
ENDBRANCH   9   5
ENDBRANCH  14  12
BRANCH  19  20
ATOM     20  C   UNL     1      -3.106  -0.351  24.528  0.00  0.00    +0.100 C 
BRANCH  20  21
ATOM     21  C   UNL     1      -3.274  -1.146  24.673  0.00  0.00    -0.006 A 
ATOM     22  C   UNL     1      -3.226  -1.444  25.440  0.00  0.00    -0.003 A 
ATOM     23  C   UNL     1      -3.394  -2.238  25.585  0.00  0.00    -0.000 A 
ATOM     24  C   UNL     1      -3.609  -2.735  24.963  0.00  0.00    -0.000 A 
ATOM     25  C   UNL     1      -3.656  -2.437  24.195  0.00  0.00    -0.000 A 
ATOM     26  C   UNL     1      -3.489  -1.642  24.050  0.00  0.00    -0.003 A 
ENDBRANCH  20  21
ENDBRANCH  19  20
TORSDOF 4
ENDMDL
MODEL 3
REMARK VINA RESULT:     -12.2      1.598      2.928
REMARK  Name = 
REMARK  4 active torsions:
REMARK  status: ('A' for Active; 'I' for Inactive)
REMARK    1  A    between atoms: C_5  and  C_9
REMARK    2  A    between atoms: C_12  and  C_14
REMARK    3  A    between atoms: N_19  and  C_20
REMARK    4  A    between atoms: C_20  and  C_21
REMARK                            x       y       z     vdW  Elec       q    Type
REMARK                         _______ _______ _______ _____ _____    ______ ____
ROOT
ATOM     14  C   UNL     1      -1.554   1.044  24.881  0.00  0.00    +0.144 C 
ATOM     15  C   UNL     1      -0.738   1.041  24.763  0.00  0.00    +0.073 C 
ATOM     16  C   UNL     1      -0.351   1.732  24.531  0.00  0.00    +0.077 A 
ATOM     17  C   UNL     1      -0.782   2.426  24.417  0.00  0.00    +0.090 A 
ATOM     18  C   UNL     1      -1.599   2.430  24.535  0.00  0.00    +0.121 C 
ATOM     19  N   UNL     1      -1.984   1.739  24.767  0.00  0.00    -0.257 NA
ATOM     27  N   UNL     1      -0.255   3.018  24.189  0.00  0.00    -0.226 NA
ATOM     28  C   UNL     1       0.501   2.690  24.163  0.00  0.00    +0.198 A 
ATOM     29  N   UNL     1       0.441   1.895  24.374  0.00  0.00    -0.227 NA
ENDROOT
BRANCH  14  12
ATOM      9  C   UNL     1      -2.582  -0.817  25.075  0.00  0.00    +0.203 A 
ATOM     10  N   UNL     1      -2.487  -0.604  25.866  0.00  0.00    -0.056 NA
ATOM     11  O   UNL     1      -2.091   0.120  25.891  0.00  0.00    -0.336 OA
ATOM     12  C   UNL     1      -1.940   0.354  25.113  0.00  0.00    +0.251 A 
ATOM     13  N   UNL     1      -2.243  -0.225  24.610  0.00  0.00    -0.190 NA
BRANCH   9   5
ATOM      1  F   UNL     1      -4.055  -3.552  23.962  0.00  0.00    -0.203 F 
ATOM      2  C   UNL     1      -3.686  -2.868  24.241  0.00  0.00    +0.151 A 
ATOM      3  C   UNL     1      -2.988  -2.924  24.676  0.00  0.00    +0.031 A 
ATOM      4  C   UNL     1      -2.620  -2.240  24.954  0.00  0.00    +0.006 A 
ATOM      5  C   UNL     1      -2.950  -1.501  24.797  0.00  0.00    +0.040 A 
ATOM      6  C   UNL     1      -3.649  -1.445  24.361  0.00  0.00    +0.017 A 
ATOM      7  C   UNL     1      -4.016  -2.129  24.083  0.00  0.00    +0.085 A 
ATOM      8 CL   UNL     1      -4.715  -2.073  23.647  0.00  0.00    -0.080 Cl
ENDBRANCH   9   5
ENDBRANCH  14  12
BRANCH  19  20
ATOM     20  C   UNL     1      -2.801   1.743  24.885  0.00  0.00    +0.100 C 
BRANCH  20  21
ATOM     21  C   UNL     1      -3.241   2.415  24.701  0.00  0.00    -0.006 A 
ATOM     22  C   UNL     1      -3.382   2.987  25.278  0.00  0.00    -0.003 A 
ATOM     23  C   UNL     1      -3.823   3.660  25.093  0.00  0.00    -0.000 A 
ATOM     24  C   UNL     1      -4.123   3.760  24.331  0.00  0.00    -0.000 A 
ATOM     25  C   UNL     1      -3.982   3.187  23.754  0.00  0.00    -0.000 A 
ATOM     26  C   UNL     1      -3.541   2.515  23.938  0.00  0.00    -0.003 A 
ENDBRANCH  20  21
ENDBRANCH  19  20
TORSDOF 4
ENDMDL
MODEL 4
REMARK VINA RESULT:     -10.0     16.726     18.902
REMARK  Name = 
REMARK  4 active torsions:
REMARK  status: ('A' for Active; 'I' for Inactive)
REMARK    1  A    between atoms: C_5  and  C_9
REMARK    2  A    between atoms: C_12  and  C_14
REMARK    3  A    between atoms: N_19  and  C_20
REMARK    4  A    between atoms: C_20  and  C_21
REMARK                            x       y       z     vdW  Elec       q    Type
REMARK                         _______ _______ _______ _____ _____    ______ ____
ROOT
ATOM     14  C   UNL     1      13.143   7.427  18.735  0.00  0.00    +0.144 C 
ATOM     15  C   UNL     1      12.818   7.730  18.041  0.00  0.00    +0.073 C 
ATOM     16  C   UNL     1      13.310   7.957  17.419  0.00  0.00    +0.077 A 
ATOM     17  C   UNL     1      14.128   7.880  17.492  0.00  0.00    +0.090 A 
ATOM     18  C   UNL     1      14.454   7.576  18.187  0.00  0.00    +0.121 C 
ATOM     19  N   UNL     1      13.961   7.350  18.808  0.00  0.00    -0.257 NA
ATOM     27  N   UNL     1      14.472   8.147  16.792  0.00  0.00    -0.226 NA
ATOM     28  C   UNL     1      13.867   8.389  16.286  0.00  0.00    +0.198 A 
ATOM     29  N   UNL     1      13.149   8.271  16.674  0.00  0.00    -0.227 NA
ENDROOT
BRANCH  14  12
ATOM      9  C   UNL     1      11.893   7.238  20.455  0.00  0.00    +0.203 A 
ATOM     10  N   UNL     1      11.894   6.464  20.174  0.00  0.00    -0.056 NA
ATOM     11  O   UNL     1      12.363   6.439  19.495  0.00  0.00    -0.336 OA
ATOM     12  C   UNL     1      12.651   7.200  19.357  0.00  0.00    +0.251 A 
ATOM     13  N   UNL     1      12.361   7.693  19.950  0.00  0.00    -0.190 NA
BRANCH   9   5
ATOM      1  F   UNL     1      10.299   8.332  23.130  0.00  0.00    -0.203 F 
ATOM      2  C   UNL     1      10.697   8.058  22.461  0.00  0.00    +0.151 A 
ATOM      3  C   UNL     1      10.409   7.406  22.048  0.00  0.00    +0.031 A 
ATOM      4  C   UNL     1      10.807   7.132  21.378  0.00  0.00    +0.006 A 
ATOM      5  C   UNL     1      11.494   7.511  21.124  0.00  0.00    +0.040 A 
ATOM      6  C   UNL     1      11.783   8.165  21.538  0.00  0.00    +0.017 A 
ATOM      7  C   UNL     1      11.384   8.438  22.206  0.00  0.00    +0.085 A 
ATOM      8 CL   UNL     1      11.673   9.091  22.620  0.00  0.00    -0.080 Cl
ENDBRANCH   9   5
ENDBRANCH  14  12
BRANCH  19  20
ATOM     20  C   UNL     1      14.288   7.046  19.502  0.00  0.00    +0.100 C 
BRANCH  20  21
ATOM     21  C   UNL     1      15.105   7.056  19.613  0.00  0.00    -0.006 A 
ATOM     22  C   UNL     1      15.467   7.712  19.957  0.00  0.00    -0.003 A 
ATOM     23  C   UNL     1      16.284   7.721  20.068  0.00  0.00    -0.000 A 
ATOM     24  C   UNL     1      16.740   7.075  19.834  0.00  0.00    -0.000 A 
ATOM     25  C   UNL     1      16.378   6.418  19.489  0.00  0.00    -0.000 A 
ATOM     26  C   UNL     1      15.560   6.408  19.379  0.00  0.00    -0.003 A 
ENDBRANCH  20  21
ENDBRANCH  19  20
TORSDOF 4
ENDMDL
