MODEL 1
REMARK VINA RESULT:     -12.9      0.000      0.000
REMARK  Name = 
REMARK  7 active torsions:
REMARK  status: ('A' for Active; 'I' for Inactive)
REMARK    1  A    between atoms: O_2  and  C_3
REMARK    2  A    between atoms: C_3  and  C_5
REMARK    3  A    between atoms: C_18  and  N_29
REMARK    4  A    between atoms: C_20  and  C_22
REMARK    5  A    between atoms: N_29  and  C_30
REMARK    6  A    between atoms: C_30  and  C_31
REMARK    7  A    between atoms: C_31  and  N_32
REMARK                            x       y       z     vdW  Elec       q    Type
REMARK                         _______ _______ _______ _____ _____    ______ ____
ROOT
ATOM      5  C   UNL     1      -2.832   1.409  24.840  0.00  0.00    +0.162 C 
ATOM      6  C   UNL     1      -2.864   2.217  25.002  0.00  0.00    +0.055 C 
ATOM      7  C   UNL     1      -2.183   2.678  24.935  0.00  0.00    -0.004 A 
ATOM      8  C   UNL     1      -1.470   2.332  24.707  0.00  0.00    +0.070 A 
ATOM      9  N   UNL     1      -0.895   2.921  24.689  0.00  0.00    -0.249 NA
ATOM     10  C   UNL     1      -1.250   3.633  24.906  0.00  0.00    +0.081 A 
ATOM     11  C   UNL     1      -2.048   3.483  25.058  0.00  0.00    +0.015 A 
ATOM     12  C   UNL     1      -2.547   4.098  25.290  0.00  0.00    +0.001 A 
ATOM     13  C   UNL     1      -2.249   4.864  25.369  0.00  0.00    +0.000 A 
ATOM     14  C   UNL     1      -1.451   5.014  25.216  0.00  0.00    +0.002 A 
ATOM     15  C   UNL     1      -0.952   4.398  24.985  0.00  0.00    +0.019 A 
ATOM     16  C   UNL     1      -1.438   1.523  24.545  0.00  0.00    +0.100 C 
ATOM     17  C   UNL     1      -0.726   1.175  24.317  0.00  0.00    +0.040 C 
ATOM     18  C   UNL     1      -0.694   0.368  24.155  0.00  0.00    +0.076 C 
ATOM     19  C   UNL     1      -1.375  -0.093  24.221  0.00  0.00    +0.038 C 
ATOM     20  C   UNL     1      -2.087   0.254  24.449  0.00  0.00    +0.082 C 
ATOM     21  N   UNL     1      -2.119   1.062  24.611  0.00  0.00    -0.258 NA
ENDROOT
BRANCH  20  22
ATOM     22  C   UNL     1      -2.768  -0.208  24.515  0.00  0.00    -0.007 A 
ATOM     23  C   UNL     1      -3.337  -0.192  23.919  0.00  0.00    -0.003 A 
ATOM     24  C   UNL     1      -4.017  -0.655  23.986  0.00  0.00    +0.001 A 
ATOM     25  C   UNL     1      -4.128  -1.133  24.650  0.00  0.00    +0.011 A 
ATOM     26  C   UNL     1      -3.559  -1.148  25.246  0.00  0.00    +0.057 A 
ATOM     27 CL   UNL     1      -3.669  -1.626  25.910  0.00  0.00    -0.082 Cl
ATOM     28  C   UNL     1      -2.879  -0.686  25.179  0.00  0.00    +0.008 A 
ENDBRANCH  20  22
BRANCH   5   3
ATOM      3  C   UNL     1      -3.513   0.948  24.906  0.00  0.00    +0.332 C 
ATOM      4  O   UNL     1      -3.954   0.279  25.104  0.00  0.00    -0.249 OA
BRANCH   3   2
ATOM      1  C   UNL     1      -4.781   1.539  25.193  0.00  0.00    +0.256 C 
ATOM      2  O   UNL     1      -4.239   1.243  24.648  0.00  0.00    -0.443 OA
ENDBRANCH   3   2
ENDBRANCH   5   3
BRANCH  18  29
ATOM     29  N   UNL     1       0.019   0.020  23.926  0.00  0.00    -0.217 NA
BRANCH  29  30
ATOM     30  C   UNL     1       0.488   0.381  23.351  0.00  0.00    +0.112 C 
BRANCH  30  31
ATOM     31  C   UNL     1       1.090  -0.046  22.982  0.00  0.00    +0.134 C 
BRANCH  31  32
ATOM     32  N   UNL     1       1.871   0.212  23.036  0.00  0.00    -0.204 NA
ATOM     33  C   UNL     1       2.378   0.128  22.391  0.00  0.00    +0.242 C 
ATOM     34  C   UNL     1       3.160   0.386  22.444  0.00  0.00    +0.096 C 
ATOM     35  O   UNL     1       2.104  -0.215  21.692  0.00  0.00    -0.273 OA
ENDBRANCH  31  32
ENDBRANCH  30  31
ENDBRANCH  29  30
ENDBRANCH  18  29
TORSDOF 7
ENDMDL
MODEL 2
REMARK VINA RESULT:     -12.7      1.408      3.617
REMARK  Name = 
REMARK  7 active torsions:
REMARK  status: ('A' for Active; 'I' for Inactive)
REMARK    1  A    between atoms: O_2  and  C_3
REMARK    2  A    between atoms: C_3  and  C_5
REMARK    3  A    between atoms: C_18  and  N_29
REMARK    4  A    between atoms: C_20  and  C_22
REMARK    5  A    between atoms: N_29  and  C_30
REMARK    6  A    between atoms: C_30  and  C_31
REMARK    7  A    between atoms: C_31  and  N_32
REMARK                            x       y       z     vdW  Elec       q    Type
REMARK                         _______ _______ _______ _____ _____    ______ ____
ROOT
ATOM      5  C   UNL     1      -3.281   0.956  24.588  0.00  0.00    +0.162 C 
ATOM      6  C   UNL     1      -3.623   0.206  24.608  0.00  0.00    +0.055 C 
ATOM      7  C   UNL     1      -3.148  -0.466  24.551  0.00  0.00    -0.004 A 
ATOM      8  C   UNL     1      -2.331  -0.388  24.474  0.00  0.00    +0.070 A 
ATOM      9  N   UNL     1      -2.006  -1.145  24.430  0.00  0.00    -0.249 NA
ATOM     10  C   UNL     1      -2.621  -1.691  24.480  0.00  0.00    +0.081 A 
ATOM     11  C   UNL     1      -3.328  -1.271  24.555  0.00  0.00    +0.015 A 
ATOM     12  C   UNL     1      -4.044  -1.676  24.617  0.00  0.00    +0.001 A 
ATOM     13  C   UNL     1      -4.054  -2.502  24.604  0.00  0.00    +0.000 A 
ATOM     14  C   UNL     1      -3.346  -2.921  24.529  0.00  0.00    +0.002 A 
ATOM     15  C   UNL     1      -2.631  -2.516  24.467  0.00  0.00    +0.019 A 
ATOM     16  C   UNL     1      -1.988   0.362  24.453  0.00  0.00    +0.100 C 
ATOM     17  C   UNL     1      -1.171   0.441  24.376  0.00  0.00    +0.040 C 
ATOM     18  C   UNL     1      -0.828   1.191  24.355  0.00  0.00    +0.076 C 
ATOM     19  C   UNL     1      -1.303   1.863  24.413  0.00  0.00    +0.038 C 
ATOM     20  C   UNL     1      -2.121   1.784  24.490  0.00  0.00    +0.082 C 
ATOM     21  N   UNL     1      -2.463   1.034  24.510  0.00  0.00    -0.258 NA
ENDROOT
BRANCH  20  22
ATOM     22  C   UNL     1      -2.595   2.457  24.547  0.00  0.00    -0.007 A 
ATOM     23  C   UNL     1      -3.036   2.708  23.897  0.00  0.00    -0.003 A 
ATOM     24  C   UNL     1      -3.510   3.381  23.955  0.00  0.00    +0.001 A 
ATOM     25  C   UNL     1      -3.543   3.802  24.664  0.00  0.00    +0.011 A 
ATOM     26  C   UNL     1      -3.103   3.551  25.314  0.00  0.00    +0.057 A 
ATOM     27 CL   UNL     1      -3.136   3.973  26.023  0.00  0.00    -0.082 Cl
ATOM     28  C   UNL     1      -2.629   2.879  25.256  0.00  0.00    +0.008 A 
ENDBRANCH  20  22
BRANCH   5   3
ATOM      3  C   UNL     1      -3.756   1.628  24.645  0.00  0.00    +0.332 C 
ATOM      4  O   UNL     1      -4.002   2.395  24.465  0.00  0.00    -0.249 OA
BRANCH   3   2
ATOM      1  C   UNL     1      -5.160   1.519  24.885  0.00  0.00    +0.256 C 
ATOM      2  O   UNL     1      -4.395   1.639  25.167  0.00  0.00    -0.443 OA
ENDBRANCH   3   2
ENDBRANCH   5   3
BRANCH  18  29
ATOM     29  N   UNL     1      -0.010   1.269  24.278  0.00  0.00    -0.217 NA
BRANCH  29  30
ATOM     30  C   UNL     1       0.378   0.923  23.638  0.00  0.00    +0.112 C 
BRANCH  30  31
ATOM     31  C   UNL     1       1.199   0.984  23.571  0.00  0.00    +0.134 C 
BRANCH  31  32
ATOM     32  N   UNL     1       1.609   0.479  23.065  0.00  0.00    -0.204 NA
ATOM     33  C   UNL     1       2.409   0.612  22.909  0.00  0.00    +0.242 C 
ATOM     34  C   UNL     1       2.820   0.106  22.403  0.00  0.00    +0.096 C 
ATOM     35  O   UNL     1       2.797   1.249  23.261  0.00  0.00    -0.273 OA
ENDBRANCH  31  32
ENDBRANCH  30  31
ENDBRANCH  29  30
ENDBRANCH  18  29
TORSDOF 7
ENDMDL
MODEL 3
REMARK VINA RESULT:     -11.9      2.443      3.210
REMARK  Name = 
REMARK  7 active torsions:
REMARK  status: ('A' for Active; 'I' for Inactive)
REMARK    1  A    between atoms: O_2  and  C_3
REMARK    2  A    between atoms: C_3  and  C_5
REMARK    3  A    between atoms: C_18  and  N_29
REMARK    4  A    between atoms: C_20  and  C_22
REMARK    5  A    between atoms: N_29  and  C_30
REMARK    6  A    between atoms: C_30  and  C_31
REMARK    7  A    between atoms: C_31  and  N_32
REMARK                            x       y       z     vdW  Elec       q    Type
REMARK                         _______ _______ _______ _____ _____    ______ ____
ROOT
ATOM      5  C   UNL     1      -3.924   3.035  25.118  0.00  0.00    +0.162 C 
ATOM      6  C   UNL     1      -3.424   3.689  25.161  0.00  0.00    +0.055 C 
ATOM      7  C   UNL     1      -2.618   3.604  25.007  0.00  0.00    -0.004 A 
ATOM      8  C   UNL     1      -2.312   2.864  24.809  0.00  0.00    +0.070 A 
ATOM      9  N   UNL     1      -1.501   2.948  24.688  0.00  0.00    -0.249 NA
ATOM     10  C   UNL     1      -1.304   3.739  24.810  0.00  0.00    +0.081 A 
ATOM     11  C   UNL     1      -1.996   4.145  25.008  0.00  0.00    +0.015 A 
ATOM     12  C   UNL     1      -1.969   4.955  25.162  0.00  0.00    +0.001 A 
ATOM     13  C   UNL     1      -1.250   5.360  25.119  0.00  0.00    +0.000 A 
ATOM     14  C   UNL     1      -0.559   4.953  24.922  0.00  0.00    +0.002 A 
ATOM     15  C   UNL     1      -0.586   4.143  24.767  0.00  0.00    +0.019 A 
ATOM     16  C   UNL     1      -2.812   2.209  24.766  0.00  0.00    +0.100 C 
ATOM     17  C   UNL     1      -2.507   1.468  24.568  0.00  0.00    +0.040 C 
ATOM     18  C   UNL     1      -3.007   0.814  24.525  0.00  0.00    +0.076 C 
ATOM     19  C   UNL     1      -3.813   0.900  24.679  0.00  0.00    +0.038 C 
ATOM     20  C   UNL     1      -4.118   1.640  24.877  0.00  0.00    +0.082 C 
ATOM     21  N   UNL     1      -3.618   2.294  24.920  0.00  0.00    -0.258 NA
ENDROOT
BRANCH  20  22
ATOM     22  C   UNL     1      -4.925   1.725  25.031  0.00  0.00    -0.007 A 
ATOM     23  C   UNL     1      -5.428   2.016  24.446  0.00  0.00    -0.003 A 
ATOM     24  C   UNL     1      -6.234   2.100  24.601  0.00  0.00    +0.001 A 
ATOM     25  C   UNL     1      -6.536   1.894  25.341  0.00  0.00    +0.011 A 
ATOM     26  C   UNL     1      -6.032   1.603  25.926  0.00  0.00    +0.057 A 
ATOM     27 CL   UNL     1      -6.334   1.397  26.666  0.00  0.00    -0.082 Cl
ATOM     28  C   UNL     1      -5.226   1.519  25.771  0.00  0.00    +0.008 A 
ENDBRANCH  20  22
BRANCH   5   3
ATOM      3  C   UNL     1      -4.730   3.121  25.272  0.00  0.00    +0.332 C 
ATOM      4  O   UNL     1      -5.535   2.964  25.183  0.00  0.00    -0.249 OA
BRANCH   3   2
ATOM      1  C   UNL     1      -5.312   4.383  25.602  0.00  0.00    +0.256 C 
ATOM      2  O   UNL     1      -4.987   3.663  25.838  0.00  0.00    -0.443 OA
ENDBRANCH   3   2
ENDBRANCH   5   3
BRANCH  18  29
ATOM     29  N   UNL     1      -2.701   0.073  24.327  0.00  0.00    -0.217 NA
BRANCH  29  30
ATOM     30  C   UNL     1      -2.700  -0.535  24.885  0.00  0.00    +0.112 C 
BRANCH  30  31
ATOM     31  C   UNL     1      -2.470  -1.296  24.665  0.00  0.00    +0.134 C 
BRANCH  31  32
ATOM     32  N   UNL     1      -2.996  -1.926  24.750  0.00  0.00    -0.204 NA
ATOM     33  C   UNL     1      -2.758  -2.691  24.552  0.00  0.00    +0.242 C 
ATOM     34  C   UNL     1      -3.283  -3.321  24.638  0.00  0.00    +0.096 C 
ATOM     35  O   UNL     1      -1.994  -2.825  24.269  0.00  0.00    -0.273 OA
ENDBRANCH  31  32
ENDBRANCH  30  31
ENDBRANCH  29  30
ENDBRANCH  18  29
TORSDOF 7
ENDMDL
MODEL 4
REMARK VINA RESULT:     -11.4      2.066      4.437
REMARK  Name = 
REMARK  7 active torsions:
REMARK  status: ('A' for Active; 'I' for Inactive)
REMARK    1  A    between atoms: O_2  and  C_3
REMARK    2  A    between atoms: C_3  and  C_5
REMARK    3  A    between atoms: C_18  and  N_29
REMARK    4  A    between atoms: C_20  and  C_22
REMARK    5  A    between atoms: N_29  and  C_30
REMARK    6  A    between atoms: C_30  and  C_31
REMARK    7  A    between atoms: C_31  and  N_32
REMARK                            x       y       z     vdW  Elec       q    Type
REMARK                         _______ _______ _______ _____ _____    ______ ____
ROOT
ATOM      5  C   UNL     1      -2.139  -0.475  24.675  0.00  0.00    +0.162 C 
ATOM      6  C   UNL     1      -1.419  -0.084  24.586  0.00  0.00    +0.055 C 
ATOM      7  C   UNL     1      -1.393   0.741  24.603  0.00  0.00    -0.004 A 
ATOM      8  C   UNL     1      -2.087   1.174  24.709  0.00  0.00    +0.070 A 
ATOM      9  N   UNL     1      -1.891   1.975  24.703  0.00  0.00    -0.249 NA
ATOM     10  C   UNL     1      -1.076   2.038  24.593  0.00  0.00    +0.081 A 
ATOM     11  C   UNL     1      -0.768   1.274  24.532  0.00  0.00    +0.015 A 
ATOM     12  C   UNL     1       0.042   1.164  24.418  0.00  0.00    +0.001 A 
ATOM     13  C   UNL     1       0.544   1.817  24.366  0.00  0.00    +0.000 A 
ATOM     14  C   UNL     1       0.236   2.581  24.428  0.00  0.00    +0.002 A 
ATOM     15  C   UNL     1      -0.574   2.691  24.541  0.00  0.00    +0.019 A 
ATOM     16  C   UNL     1      -2.808   0.782  24.798  0.00  0.00    +0.100 C 
ATOM     17  C   UNL     1      -3.502   1.214  24.903  0.00  0.00    +0.040 C 
ATOM     18  C   UNL     1      -4.222   0.823  24.992  0.00  0.00    +0.076 C 
ATOM     19  C   UNL     1      -4.249  -0.001  24.975  0.00  0.00    +0.038 C 
ATOM     20  C   UNL     1      -3.554  -0.433  24.869  0.00  0.00    +0.082 C 
ATOM     21  N   UNL     1      -2.834  -0.042  24.780  0.00  0.00    -0.258 NA
ENDROOT
BRANCH  20  22
ATOM     22  C   UNL     1      -3.581  -1.258  24.852  0.00  0.00    -0.007 A 
ATOM     23  C   UNL     1      -3.338  -1.693  25.508  0.00  0.00    -0.003 A 
ATOM     24  C   UNL     1      -3.365  -2.518  25.490  0.00  0.00    +0.001 A 
ATOM     25  C   UNL     1      -3.637  -2.907  24.815  0.00  0.00    +0.011 A 
ATOM     26  C   UNL     1      -3.880  -2.472  24.158  0.00  0.00    +0.057 A 
ATOM     27 CL   UNL     1      -4.152  -2.861  23.483  0.00  0.00    -0.082 Cl
ATOM     28  C   UNL     1      -3.853  -1.648  24.176  0.00  0.00    +0.008 A 
ENDBRANCH  20  22
BRANCH   5   3
ATOM      3  C   UNL     1      -2.166  -1.300  24.657  0.00  0.00    +0.332 C 
ATOM      4  O   UNL     1      -2.435  -2.050  24.871  0.00  0.00    -0.249 OA
BRANCH   3   2
ATOM      1  C   UNL     1      -0.975  -2.065  24.467  0.00  0.00    +0.256 C 
ATOM      2  O   UNL     1      -1.657  -1.719  24.161  0.00  0.00    -0.443 OA
ENDBRANCH   3   2
ENDBRANCH   5   3
BRANCH  18  29
ATOM     29  N   UNL     1      -4.917   1.256  25.098  0.00  0.00    -0.217 NA
BRANCH  29  30
ATOM     30  C   UNL     1      -4.956   2.042  24.848  0.00  0.00    +0.112 C 
BRANCH  30  31
ATOM     31  C   UNL     1      -5.479   2.565  25.213  0.00  0.00    +0.134 C 
BRANCH  31  32
ATOM     32  N   UNL     1      -5.385   3.378  25.112  0.00  0.00    -0.204 NA
ATOM     33  C   UNL     1      -5.806   3.904  25.589  0.00  0.00    +0.242 C 
ATOM     34  C   UNL     1      -5.712   4.717  25.489  0.00  0.00    +0.096 C 
ATOM     35  O   UNL     1      -6.320   3.616  26.167  0.00  0.00    -0.273 OA
ENDBRANCH  31  32
ENDBRANCH  30  31
ENDBRANCH  29  30
ENDBRANCH  18  29
TORSDOF 7
ENDMDL
MODEL 5
REMARK VINA RESULT:     -11.2      2.254      5.517
REMARK  Name = 
REMARK  7 active torsions:
REMARK  status: ('A' for Active; 'I' for Inactive)
REMARK    1  A    between atoms: O_2  and  C_3
REMARK    2  A    between atoms: C_3  and  C_5
REMARK    3  A    between atoms: C_18  and  N_29
REMARK    4  A    between atoms: C_20  and  C_22
REMARK    5  A    between atoms: N_29  and  C_30
REMARK    6  A    between atoms: C_30  and  C_31
REMARK    7  A    between atoms: C_31  and  N_32
REMARK                            x       y       z     vdW  Elec       q    Type
REMARK                         _______ _______ _______ _____ _____    ______ ____
ROOT
ATOM      5  C   UNL     1      -1.708   0.074  24.602  0.00  0.00    +0.162 C 
ATOM      6  C   UNL     1      -1.929  -0.719  24.553  0.00  0.00    +0.055 C 
ATOM      7  C   UNL     1      -2.718  -0.919  24.415  0.00  0.00    -0.004 A 
ATOM      8  C   UNL     1      -3.285  -0.327  24.326  0.00  0.00    +0.070 A 
ATOM      9  N   UNL     1      -4.014  -0.689  24.196  0.00  0.00    -0.249 NA
ATOM     10  C   UNL     1      -3.899  -1.506  24.204  0.00  0.00    +0.081 A 
ATOM     11  C   UNL     1      -3.097  -1.648  24.340  0.00  0.00    +0.015 A 
ATOM     12  C   UNL     1      -2.816  -2.423  24.377  0.00  0.00    +0.001 A 
ATOM     13  C   UNL     1      -3.337  -3.056  24.279  0.00  0.00    +0.000 A 
ATOM     14  C   UNL     1      -4.139  -2.913  24.144  0.00  0.00    +0.002 A 
ATOM     15  C   UNL     1      -4.420  -2.139  24.106  0.00  0.00    +0.019 A 
ATOM     16  C   UNL     1      -3.064   0.467  24.375  0.00  0.00    +0.100 C 
ATOM     17  C   UNL     1      -3.630   1.060  24.286  0.00  0.00    +0.040 C 
ATOM     18  C   UNL     1      -3.409   1.852  24.335  0.00  0.00    +0.076 C 
ATOM     19  C   UNL     1      -2.620   2.053  24.473  0.00  0.00    +0.038 C 
ATOM     20  C   UNL     1      -2.054   1.460  24.562  0.00  0.00    +0.082 C 
ATOM     21  N   UNL     1      -2.275   0.667  24.513  0.00  0.00    -0.258 NA
ENDROOT
BRANCH  20  22
ATOM     22  C   UNL     1      -1.266   1.661  24.700  0.00  0.00    -0.007 A 
ATOM     23  C   UNL     1      -0.719   1.634  24.083  0.00  0.00    -0.003 A 
ATOM     24  C   UNL     1       0.069   1.836  24.222  0.00  0.00    +0.001 A 
ATOM     25  C   UNL     1       0.310   2.064  24.978  0.00  0.00    +0.011 A 
ATOM     26  C   UNL     1      -0.237   2.091  25.594  0.00  0.00    +0.057 A 
ATOM     27 CL   UNL     1       0.004   2.319  26.350  0.00  0.00    -0.082 Cl
ATOM     28  C   UNL     1      -1.025   1.889  25.455  0.00  0.00    +0.008 A 
ENDBRANCH  20  22
BRANCH   5   3
ATOM      3  C   UNL     1      -0.920   0.274  24.740  0.00  0.00    +0.332 C 
ATOM      4  O   UNL     1      -0.298   0.695  25.082  0.00  0.00    -0.249 OA
BRANCH   3   2
ATOM      1  C   UNL     1       0.034  -0.788  24.698  0.00  0.00    +0.256 C 
ATOM      2  O   UNL     1      -0.316  -0.129  24.348  0.00  0.00    -0.443 OA
ENDBRANCH   3   2
ENDBRANCH   5   3
BRANCH  18  29
ATOM     29  N   UNL     1      -3.976   2.445  24.246  0.00  0.00    -0.217 NA
BRANCH  29  30
ATOM     30  C   UNL     1      -4.174   2.926  24.887  0.00  0.00    +0.112 C 
BRANCH  30  31
ATOM     31  C   UNL     1      -4.956   3.163  24.998  0.00  0.00    +0.134 C 
BRANCH  31  32
ATOM     32  N   UNL     1      -5.129   3.957  25.141  0.00  0.00    -0.204 NA
ATOM     33  C   UNL     1      -5.805   4.161  25.569  0.00  0.00    +0.242 C 
ATOM     34  C   UNL     1      -5.979   4.954  25.712  0.00  0.00    +0.096 C 
ATOM     35  O   UNL     1      -6.306   3.570  25.854  0.00  0.00    -0.273 OA
ENDBRANCH  31  32
ENDBRANCH  30  31
ENDBRANCH  29  30
ENDBRANCH  18  29
TORSDOF 7
ENDMDL
MODEL 6
REMARK VINA RESULT:     -11.0      2.425      4.171
REMARK  Name = 
REMARK  7 active torsions:
REMARK  status: ('A' for Active; 'I' for Inactive)
REMARK    1  A    between atoms: O_2  and  C_3
REMARK    2  A    between atoms: C_3  and  C_5
REMARK    3  A    between atoms: C_18  and  N_29
REMARK    4  A    between atoms: C_20  and  C_22
REMARK    5  A    between atoms: N_29  and  C_30
REMARK    6  A    between atoms: C_30  and  C_31
REMARK    7  A    between atoms: C_31  and  N_32
REMARK                            x       y       z     vdW  Elec       q    Type
REMARK                         _______ _______ _______ _____ _____    ______ ____
ROOT
ATOM      5  C   UNL     1      -2.638   2.738  25.210  0.00  0.00    +0.162 C 
ATOM      6  C   UNL     1      -3.411   2.997  25.336  0.00  0.00    +0.055 C 
ATOM      7  C   UNL     1      -4.044   2.486  25.198  0.00  0.00    -0.004 A 
ATOM      8  C   UNL     1      -3.904   1.716  24.935  0.00  0.00    +0.070 A 
ATOM      9  N   UNL     1      -4.633   1.340  24.847  0.00  0.00    -0.249 NA
ATOM     10  C   UNL     1      -5.224   1.876  25.056  0.00  0.00    +0.081 A 
ATOM     11  C   UNL     1      -4.859   2.585  25.273  0.00  0.00    +0.015 A 
ATOM     12  C   UNL     1      -5.318   3.228  25.511  0.00  0.00    +0.001 A 
ATOM     13  C   UNL     1      -6.141   3.164  25.531  0.00  0.00    +0.000 A 
ATOM     14  C   UNL     1      -6.505   2.455  25.314  0.00  0.00    +0.002 A 
ATOM     15  C   UNL     1      -6.046   1.812  25.076  0.00  0.00    +0.019 A 
ATOM     16  C   UNL     1      -3.130   1.458  24.809  0.00  0.00    +0.100 C 
ATOM     17  C   UNL     1      -2.989   0.689  24.546  0.00  0.00    +0.040 C 
ATOM     18  C   UNL     1      -2.217   0.431  24.420  0.00  0.00    +0.076 C 
ATOM     19  C   UNL     1      -1.584   0.942  24.558  0.00  0.00    +0.038 C 
ATOM     20  C   UNL     1      -1.725   1.711  24.821  0.00  0.00    +0.082 C 
ATOM     21  N   UNL     1      -2.497   1.969  24.947  0.00  0.00    -0.258 NA
ENDROOT
BRANCH  20  22
ATOM     22  C   UNL     1      -1.091   2.221  24.959  0.00  0.00    -0.007 A 
ATOM     23  C   UNL     1      -0.890   2.790  24.397  0.00  0.00    -0.003 A 
ATOM     24  C   UNL     1      -0.256   3.300  24.535  0.00  0.00    +0.001 A 
ATOM     25  C   UNL     1       0.177   3.241  25.236  0.00  0.00    +0.011 A 
ATOM     26  C   UNL     1      -0.024   2.672  25.797  0.00  0.00    +0.057 A 
ATOM     27 CL   UNL     1       0.408   2.612  26.498  0.00  0.00    -0.082 Cl
ATOM     28  C   UNL     1      -0.658   2.162  25.659  0.00  0.00    +0.008 A 
ENDBRANCH  20  22
BRANCH   5   3
ATOM      3  C   UNL     1      -2.005   3.249  25.348  0.00  0.00    +0.332 C 
ATOM      4  O   UNL     1      -1.257   3.574  25.221  0.00  0.00    -0.249 OA
BRANCH   3   2
ATOM      1  C   UNL     1      -2.238   4.591  25.779  0.00  0.00    +0.256 C 
ATOM      2  O   UNL     1      -2.049   3.808  25.953  0.00  0.00    -0.443 OA
ENDBRANCH   3   2
ENDBRANCH   5   3
BRANCH  18  29
ATOM     29  N   UNL     1      -2.076  -0.338  24.157  0.00  0.00    -0.217 NA
BRANCH  29  30
ATOM     30  C   UNL     1      -2.294  -0.981  24.626  0.00  0.00    +0.112 C 
BRANCH  30  31
ATOM     31  C   UNL     1      -2.563  -1.677  24.273  0.00  0.00    +0.134 C 
BRANCH  31  32
ATOM     32  N   UNL     1      -2.729  -2.337  24.739  0.00  0.00    -0.204 NA
ATOM     33  C   UNL     1      -3.355  -2.836  24.538  0.00  0.00    +0.242 C 
ATOM     34  C   UNL     1      -3.522  -3.496  25.003  0.00  0.00    +0.096 C 
ATOM     35  O   UNL     1      -3.814  -2.674  23.871  0.00  0.00    -0.273 OA
ENDBRANCH  31  32
ENDBRANCH  30  31
ENDBRANCH  29  30
ENDBRANCH  18  29
TORSDOF 7
ENDMDL
