MODEL 1
REMARK VINA RESULT:     -16.8      0.000      0.000
REMARK  Name = 
REMARK  4 active torsions:
REMARK  status: ('A' for Active; 'I' for Inactive)
REMARK    1  A    between atoms: C_5  and  C_8
REMARK    2  A    between atoms: C_17  and  N_18
REMARK    3  A    between atoms: C_19  and  C_21
REMARK    4  A    between atoms: C_24  and  C_27
REMARK                            x       y       z     vdW  Elec       q    Type
REMARK                         _______ _______ _______ _____ _____    ______ ____
ROOT
ATOM      8  C   UNL     1      -2.091   4.194  25.318  0.00  0.00    +0.249 C 
ATOM      9  O   UNL     1      -1.701   4.970  25.505  0.00  0.00    -0.270 OA
ATOM     10  N   UNL     1      -1.598   3.454  25.323  0.00  0.00    -0.276 N 
ATOM     11  C   UNL     1      -0.855   3.090  25.432  0.00  0.00    +0.096 C 
ATOM     12  C   UNL     1      -1.103   2.150  25.253  0.00  0.00    +0.043 C 
ATOM     13  C   UNL     1      -1.143   1.345  25.136  0.00  0.00    +0.011 C 
ATOM     14  C   UNL     1      -1.579   1.894  25.117  0.00  0.00    +0.060 C 
ATOM     15  C   UNL     1      -1.324   2.798  25.293  0.00  0.00    +0.100 C 
ATOM     16  C   UNL     1      -2.458   2.111  24.960  0.00  0.00    +0.056 A 
ATOM     17  C   UNL     1      -3.178   1.762  24.760  0.00  0.00    +0.086 A 
ATOM     29  C   UNL     1      -3.854   2.228  24.680  0.00  0.00    +0.023 A 
ATOM     30  C   UNL     1      -3.810   3.044  24.799  0.00  0.00    +0.062 A 
ATOM     31  C   UNL     1      -3.090   3.393  24.998  0.00  0.00    +0.261 A 
ATOM     32  O   UNL     1      -2.946   4.423  25.167  0.00  0.00    -0.267 OA
ATOM     33  N   UNL     1      -2.414   2.927  25.079  0.00  0.00    -0.298 N 
ATOM     34  C   UNL     1      -2.019   2.387  25.090  0.00  0.00    +0.110 C 
ENDROOT
BRANCH   8   5
ATOM      1  F   UNL     1      -5.279   3.104  24.798  0.00  0.00    -0.204 F 
ATOM      2  C   UNL     1      -4.501   3.361  24.897  0.00  0.00    +0.140 A 
ATOM      3  C   UNL     1      -4.065   3.271  24.219  0.00  0.00    +0.030 A 
ATOM      4  C   UNL     1      -3.190   3.572  24.367  0.00  0.00    +0.007 A 
ATOM      5  C   UNL     1      -2.946   3.874  25.094  0.00  0.00    +0.054 A 
ATOM      6  C   UNL     1      -3.477   3.921  25.722  0.00  0.00    +0.007 A 
ATOM      7  C   UNL     1      -4.256   3.664  25.624  0.00  0.00    +0.030 A 
ENDBRANCH   8   5
BRANCH  17  18
ATOM     18  N   UNL     1      -3.280   0.914  24.625  0.00  0.00    -0.174 NA
ATOM     19  C   UNL     1      -3.907   0.509  25.051  0.00  0.00    +0.269 C 
ATOM     20  O   UNL     1      -4.558   0.494  25.601  0.00  0.00    -0.268 OA
BRANCH  19  21
ATOM     21  C   UNL     1      -3.867  -0.309  24.803  0.00  0.00    +0.055 A 
ATOM     22  C   UNL     1      -3.645  -0.803  25.425  0.00  0.00    +0.005 A 
ATOM     23  C   UNL     1      -3.574  -1.616  25.301  0.00  0.00    +0.010 A 
ATOM     24  C   UNL     1      -3.724  -1.934  24.555  0.00  0.00    +0.068 A 
ATOM     25  C   UNL     1      -3.946  -1.439  23.933  0.00  0.00    +0.010 A 
ATOM     26  C   UNL     1      -4.017  -0.627  24.057  0.00  0.00    +0.005 A 
BRANCH  24  27
ATOM     27  C   UNL     1      -3.653  -2.746  24.430  0.00  0.00    +0.100 C 
ATOM     28  N   UNL     1      -3.582  -3.558  24.306  0.00  0.00    -0.191 NA
ENDBRANCH  24  27
ENDBRANCH  19  21
ENDBRANCH  17  18
TORSDOF 4
ENDMDL
MODEL 2
REMARK VINA RESULT:     -15.7      2.204      5.320
REMARK  Name = 
REMARK  4 active torsions:
REMARK  status: ('A' for Active; 'I' for Inactive)
REMARK    1  A    between atoms: C_5  and  C_8
REMARK    2  A    between atoms: C_17  and  N_18
REMARK    3  A    between atoms: C_19  and  C_21
REMARK    4  A    between atoms: C_24  and  C_27
REMARK                            x       y       z     vdW  Elec       q    Type
REMARK                         _______ _______ _______ _____ _____    ______ ____
ROOT
ATOM      8  C   UNL     1      -3.313  -2.232  24.492  0.00  0.00    +0.249 C 
ATOM      9  O   UNL     1      -3.736  -2.992  24.307  0.00  0.00    -0.270 OA
ATOM     10  N   UNL     1      -3.738  -1.463  24.362  0.00  0.00    -0.276 N 
ATOM     11  C   UNL     1      -4.427  -1.057  24.120  0.00  0.00    +0.096 C 
ATOM     12  C   UNL     1      -4.130  -0.126  24.264  0.00  0.00    +0.043 C 
ATOM     13  C   UNL     1      -4.041   0.682  24.326  0.00  0.00    +0.011 C 
ATOM     14  C   UNL     1      -3.658   0.106  24.448  0.00  0.00    +0.060 C 
ATOM     15  C   UNL     1      -3.959  -0.788  24.304  0.00  0.00    +0.100 C 
ATOM     16  C   UNL     1      -2.830  -0.158  24.747  0.00  0.00    +0.056 A 
ATOM     17  C   UNL     1      -2.118   0.154  25.022  0.00  0.00    +0.086 A 
ATOM     29  C   UNL     1      -1.501  -0.350  25.234  0.00  0.00    +0.023 A 
ATOM     30  C   UNL     1      -1.595  -1.167  25.169  0.00  0.00    +0.062 A 
ATOM     31  C   UNL     1      -2.306  -1.480  24.894  0.00  0.00    +0.261 A 
ATOM     32  O   UNL     1      -2.509  -2.508  24.781  0.00  0.00    -0.267 OA
ATOM     33  N   UNL     1      -2.924  -0.976  24.682  0.00  0.00    -0.298 N 
ATOM     34  C   UNL     1      -3.268  -0.412  24.574  0.00  0.00    +0.110 C 
ENDROOT
BRANCH   8   5
ATOM      1  F   UNL     1      -0.149  -1.341  25.391  0.00  0.00    -0.204 F 
ATOM      2  C   UNL     1      -0.924  -1.546  25.198  0.00  0.00    +0.140 A 
ATOM      3  C   UNL     1      -1.444  -1.346  25.787  0.00  0.00    +0.030 A 
ATOM      4  C   UNL     1      -2.312  -1.592  25.536  0.00  0.00    +0.007 A 
ATOM      5  C   UNL     1      -2.475  -1.956  24.814  0.00  0.00    +0.054 A 
ATOM      6  C   UNL     1      -1.863  -2.116  24.284  0.00  0.00    +0.007 A 
ATOM      7  C   UNL     1      -1.087  -1.910  24.477  0.00  0.00    +0.030 A 
ENDBRANCH   8   5
BRANCH  17  18
ATOM     18  N   UNL     1      -1.967   1.001  25.109  0.00  0.00    -0.174 NA
ATOM     19  C   UNL     1      -1.264   1.327  24.736  0.00  0.00    +0.269 C 
ATOM     20  O   UNL     1      -0.553   1.253  24.272  0.00  0.00    -0.268 OA
BRANCH  19  21
ATOM     21  C   UNL     1      -1.269   2.163  24.918  0.00  0.00    +0.055 A 
ATOM     22  C   UNL     1      -1.249   2.622  24.234  0.00  0.00    +0.005 A 
ATOM     23  C   UNL     1      -1.250   3.445  24.289  0.00  0.00    +0.010 A 
ATOM     24  C   UNL     1      -1.272   3.809  25.029  0.00  0.00    +0.068 A 
ATOM     25  C   UNL     1      -1.293   3.349  25.714  0.00  0.00    +0.010 A 
ATOM     26  C   UNL     1      -1.291   2.527  25.658  0.00  0.00    +0.005 A 
BRANCH  24  27
ATOM     27  C   UNL     1      -1.273   4.632  25.084  0.00  0.00    +0.100 C 
ATOM     28  N   UNL     1      -1.275   5.455  25.139  0.00  0.00    -0.191 NA
ENDBRANCH  24  27
ENDBRANCH  19  21
ENDBRANCH  17  18
TORSDOF 4
ENDMDL
MODEL 3
REMARK VINA RESULT:     -15.5      1.743      4.820
REMARK  Name = 
REMARK  4 active torsions:
REMARK  status: ('A' for Active; 'I' for Inactive)
REMARK    1  A    between atoms: C_5  and  C_8
REMARK    2  A    between atoms: C_17  and  N_18
REMARK    3  A    between atoms: C_19  and  C_21
REMARK    4  A    between atoms: C_24  and  C_27
REMARK                            x       y       z     vdW  Elec       q    Type
REMARK                         _______ _______ _______ _____ _____    ______ ____
ROOT
ATOM      8  C   UNL     1      -2.708  -2.410  24.695  0.00  0.00    +0.249 C 
ATOM      9  O   UNL     1      -2.697  -3.297  24.619  0.00  0.00    -0.270 OA
ATOM     10  N   UNL     1      -1.935  -1.975  24.749  0.00  0.00    -0.276 N 
ATOM     11  C   UNL     1      -1.100  -1.998  24.766  0.00  0.00    +0.096 C 
ATOM     12  C   UNL     1      -0.911  -1.032  24.853  0.00  0.00    +0.043 C 
ATOM     13  C   UNL     1      -0.592  -0.286  24.924  0.00  0.00    +0.011 C 
ATOM     14  C   UNL     1      -1.230  -0.576  24.885  0.00  0.00    +0.060 C 
ATOM     15  C   UNL     1      -1.397  -1.512  24.801  0.00  0.00    +0.100 C 
ATOM     16  C   UNL     1      -2.122  -0.356  24.884  0.00  0.00    +0.056 A 
ATOM     17  C   UNL     1      -2.621   0.299  24.928  0.00  0.00    +0.086 A 
ATOM     29  C   UNL     1      -3.439   0.197  24.901  0.00  0.00    +0.023 A 
ATOM     30  C   UNL     1      -3.758  -0.560  24.829  0.00  0.00    +0.062 A 
ATOM     31  C   UNL     1      -3.260  -1.215  24.784  0.00  0.00    +0.261 A 
ATOM     32  O   UNL     1      -3.584  -2.214  24.692  0.00  0.00    -0.267 OA
ATOM     33  N   UNL     1      -2.442  -1.114  24.812  0.00  0.00    -0.298 N 
ATOM     34  C   UNL     1      -1.845  -0.812  24.851  0.00  0.00    +0.110 C 
ENDROOT
BRANCH   8   5
ATOM      1  F   UNL     1      -5.077   0.036  24.558  0.00  0.00    -0.204 F 
ATOM      2  C   UNL     1      -4.499  -0.549  24.618  0.00  0.00    +0.140 A 
ATOM      3  C   UNL     1      -4.161  -0.565  25.355  0.00  0.00    +0.030 A 
ATOM      4  C   UNL     1      -3.511  -1.238  25.388  0.00  0.00    +0.007 A 
ATOM      5  C   UNL     1      -3.342  -1.718  24.740  0.00  0.00    +0.054 A 
ATOM      6  C   UNL     1      -3.750  -1.615  24.031  0.00  0.00    +0.007 A 
ATOM      7  C   UNL     1      -4.329  -1.030  23.970  0.00  0.00    +0.030 A 
ENDBRANCH   8   5
BRANCH  17  18
ATOM     18  N   UNL     1      -2.339   1.113  25.004  0.00  0.00    -0.174 NA
ATOM     19  C   UNL     1      -2.604   1.689  24.424  0.00  0.00    +0.269 C 
ATOM     20  O   UNL     1      -3.049   1.913  23.733  0.00  0.00    -0.268 OA
BRANCH  19  21
ATOM     21  C   UNL     1      -2.237   2.429  24.644  0.00  0.00    +0.055 A 
ATOM     22  C   UNL     1      -1.733   2.705  24.052  0.00  0.00    +0.005 A 
ATOM     23  C   UNL     1      -1.323   3.413  24.157  0.00  0.00    +0.010 A 
ATOM     24  C   UNL     1      -1.416   3.846  24.853  0.00  0.00    +0.068 A 
ATOM     25  C   UNL     1      -1.920   3.569  25.445  0.00  0.00    +0.010 A 
ATOM     26  C   UNL     1      -2.330   2.862  25.341  0.00  0.00    +0.005 A 
BRANCH  24  27
ATOM     27  C   UNL     1      -1.007   4.553  24.957  0.00  0.00    +0.100 C 
ATOM     28  N   UNL     1      -0.597   5.262  25.061  0.00  0.00    -0.191 NA
ENDBRANCH  24  27
ENDBRANCH  19  21
ENDBRANCH  17  18
TORSDOF 4
ENDMDL
MODEL 4
REMARK VINA RESULT:     -15.4      1.373      2.353
REMARK  Name = 
REMARK  4 active torsions:
REMARK  status: ('A' for Active; 'I' for Inactive)
REMARK    1  A    between atoms: C_5  and  C_8
REMARK    2  A    between atoms: C_17  and  N_18
REMARK    3  A    between atoms: C_19  and  C_21
REMARK    4  A    between atoms: C_24  and  C_27
REMARK                            x       y       z     vdW  Elec       q    Type
REMARK                         _______ _______ _______ _____ _____    ______ ____
ROOT
ATOM      8  C   UNL     1      -4.760   4.019  25.278  0.00  0.00    +0.249 C 
ATOM      9  O   UNL     1      -5.047   4.827  25.515  0.00  0.00    -0.270 OA
ATOM     10  N   UNL     1      -5.279   3.315  25.438  0.00  0.00    -0.276 N 
ATOM     11  C   UNL     1      -5.994   3.007  25.741  0.00  0.00    +0.096 C 
ATOM     12  C   UNL     1      -5.853   2.047  25.555  0.00  0.00    +0.043 C 
ATOM     13  C   UNL     1      -5.889   1.238  25.472  0.00  0.00    +0.011 C 
ATOM     14  C   UNL     1      -5.439   1.755  25.322  0.00  0.00    +0.060 C 
ATOM     15  C   UNL     1      -5.591   2.679  25.508  0.00  0.00    +0.100 C 
ATOM     16  C   UNL     1      -4.613   1.905  24.948  0.00  0.00    +0.056 A 
ATOM     17  C   UNL     1      -3.985   1.500  24.599  0.00  0.00    +0.086 A 
ATOM     29  C   UNL     1      -3.323   1.916  24.335  0.00  0.00    +0.023 A 
ATOM     30  C   UNL     1      -3.289   2.736  24.420  0.00  0.00    +0.062 A 
ATOM     31  C   UNL     1      -3.917   3.140  24.769  0.00  0.00    +0.261 A 
ATOM     32  O   UNL     1      -3.955   4.183  24.916  0.00  0.00    -0.267 OA
ATOM     33  N   UNL     1      -4.579   2.725  25.033  0.00  0.00    -0.298 N 
ATOM     34  C   UNL     1      -4.991   2.214  25.165  0.00  0.00    +0.110 C 
ENDROOT
BRANCH   8   5
ATOM      1  F   UNL     1      -1.863   2.698  24.063  0.00  0.00    -0.204 F 
ATOM      2  C   UNL     1      -2.577   3.010  24.333  0.00  0.00    +0.140 A 
ATOM      3  C   UNL     1      -3.170   2.920  23.788  0.00  0.00    +0.030 A 
ATOM      4  C   UNL     1      -3.964   3.284  24.126  0.00  0.00    +0.007 A 
ATOM      5  C   UNL     1      -4.006   3.634  24.872  0.00  0.00    +0.054 A 
ATOM      6  C   UNL     1      -3.334   3.672  25.348  0.00  0.00    +0.007 A 
ATOM      7  C   UNL     1      -2.619   3.359  25.079  0.00  0.00    +0.030 A 
ENDBRANCH   8   5
BRANCH  17  18
ATOM     18  N   UNL     1      -3.969   0.643  24.485  0.00  0.00    -0.174 NA
ATOM     19  C   UNL     1      -3.333   0.198  24.856  0.00  0.00    +0.269 C 
ATOM     20  O   UNL     1      -2.627   0.143  25.330  0.00  0.00    -0.268 OA
BRANCH  19  21
ATOM     21  C   UNL     1      -3.468  -0.620  24.645  0.00  0.00    +0.055 A 
ATOM     22  C   UNL     1      -3.229  -1.131  25.247  0.00  0.00    +0.005 A 
ATOM     23  C   UNL     1      -3.312  -1.946  25.153  0.00  0.00    +0.010 A 
ATOM     24  C   UNL     1      -3.634  -2.251  24.458  0.00  0.00    +0.068 A 
ATOM     25  C   UNL     1      -3.873  -1.739  23.856  0.00  0.00    +0.010 A 
ATOM     26  C   UNL     1      -3.790  -0.925  23.949  0.00  0.00    +0.005 A 
BRANCH  24  27
ATOM     27  C   UNL     1      -3.718  -3.066  24.364  0.00  0.00    +0.100 C 
ATOM     28  N   UNL     1      -3.801  -3.881  24.270  0.00  0.00    -0.191 NA
ENDBRANCH  24  27
ENDBRANCH  19  21
ENDBRANCH  17  18
TORSDOF 4
ENDMDL
MODEL 5
REMARK VINA RESULT:     -15.4      2.087      4.876
REMARK  Name = 
REMARK  4 active torsions:
REMARK  status: ('A' for Active; 'I' for Inactive)
REMARK    1  A    between atoms: C_5  and  C_8
REMARK    2  A    between atoms: C_17  and  N_18
REMARK    3  A    between atoms: C_19  and  C_21
REMARK    4  A    between atoms: C_24  and  C_27
REMARK                            x       y       z     vdW  Elec       q    Type
REMARK                         _______ _______ _______ _____ _____    ______ ____
ROOT
ATOM      8  C   UNL     1      -1.730  -2.255  24.583  0.00  0.00    +0.249 C 
ATOM      9  O   UNL     1      -1.413  -3.074  24.443  0.00  0.00    -0.270 OA
ATOM     10  N   UNL     1      -2.599  -2.108  24.475  0.00  0.00    -0.276 N 
ATOM     11  C   UNL     1      -3.357  -2.402  24.281  0.00  0.00    +0.096 C 
ATOM     12  C   UNL     1      -3.888  -1.576  24.387  0.00  0.00    +0.043 C 
ATOM     13  C   UNL     1      -4.456  -0.993  24.430  0.00  0.00    +0.011 C 
ATOM     14  C   UNL     1      -3.764  -1.051  24.531  0.00  0.00    +0.060 C 
ATOM     15  C   UNL     1      -3.265  -1.858  24.424  0.00  0.00    +0.100 C 
ATOM     16  C   UNL     1      -3.026  -0.557  24.768  0.00  0.00    +0.056 A 
ATOM     17  C   UNL     1      -2.811   0.210  24.983  0.00  0.00    +0.086 A 
ATOM     29  C   UNL     1      -2.023   0.384  25.154  0.00  0.00    +0.023 A 
ATOM     30  C   UNL     1      -1.450  -0.208  25.110  0.00  0.00    +0.062 A 
ATOM     31  C   UNL     1      -1.665  -0.975  24.894  0.00  0.00    +0.261 A 
ATOM     32  O   UNL     1      -0.999  -1.787  24.814  0.00  0.00    -0.267 OA
ATOM     33  N   UNL     1      -2.453  -1.149  24.724  0.00  0.00    -0.298 N 
ATOM     34  C   UNL     1      -3.112  -1.067  24.634  0.00  0.00    +0.110 C 
ENDROOT
BRANCH   8   5
ATOM      1  F   UNL     1      -0.400   0.818  25.220  0.00  0.00    -0.204 F 
ATOM      2  C   UNL     1      -0.734   0.075  25.091  0.00  0.00    +0.140 A 
ATOM      3  C   UNL     1      -1.190  -0.164  25.718  0.00  0.00    +0.030 A 
ATOM      4  C   UNL     1      -1.553  -1.008  25.539  0.00  0.00    +0.007 A 
ATOM      5  C   UNL     1      -1.404  -1.411  24.835  0.00  0.00    +0.054 A 
ATOM      6  C   UNL     1      -0.921  -1.072  24.259  0.00  0.00    +0.007 A 
ATOM      7  C   UNL     1      -0.586  -0.328  24.388  0.00  0.00    +0.030 A 
ENDBRANCH   8   5
BRANCH  17  18
ATOM     18  N   UNL     1      -3.371   0.866  25.045  0.00  0.00    -0.174 NA
ATOM     19  C   UNL     1      -3.239   1.558  24.551  0.00  0.00    +0.269 C 
ATOM     20  O   UNL     1      -2.800   1.993  23.965  0.00  0.00    -0.268 OA
BRANCH  19  21
ATOM     21  C   UNL     1      -3.873   2.100  24.736  0.00  0.00    +0.055 A 
ATOM     22  C   UNL     1      -3.636   2.668  25.285  0.00  0.00    +0.005 A 
ATOM     23  C   UNL     1      -4.168   3.245  25.539  0.00  0.00    +0.010 A 
ATOM     24  C   UNL     1      -4.938   3.255  25.242  0.00  0.00    +0.068 A 
ATOM     25  C   UNL     1      -5.175   2.687  24.692  0.00  0.00    +0.010 A 
ATOM     26  C   UNL     1      -4.643   2.111  24.439  0.00  0.00    +0.005 A 
BRANCH  24  27
ATOM     27  C   UNL     1      -5.470   3.832  25.495  0.00  0.00    +0.100 C 
ATOM     28  N   UNL     1      -6.003   4.409  25.748  0.00  0.00    -0.191 NA
ENDBRANCH  24  27
ENDBRANCH  19  21
ENDBRANCH  17  18
TORSDOF 4
ENDMDL
MODEL 6
REMARK VINA RESULT:     -15.1      1.381      2.365
REMARK  Name = 
REMARK  4 active torsions:
REMARK  status: ('A' for Active; 'I' for Inactive)
REMARK    1  A    between atoms: C_5  and  C_8
REMARK    2  A    between atoms: C_17  and  N_18
REMARK    3  A    between atoms: C_19  and  C_21
REMARK    4  A    between atoms: C_24  and  C_27
REMARK                            x       y       z     vdW  Elec       q    Type
REMARK                         _______ _______ _______ _____ _____    ______ ____
ROOT
ATOM      8  C   UNL     1      -1.700   4.304  25.114  0.00  0.00    +0.249 C 
ATOM      9  O   UNL     1      -1.640   5.189  25.171  0.00  0.00    -0.270 OA
ATOM     10  N   UNL     1      -2.506   3.930  25.086  0.00  0.00    -0.276 N 
ATOM     11  C   UNL     1      -3.337   4.018  25.087  0.00  0.00    +0.096 C 
ATOM     12  C   UNL     1      -3.603   3.068  25.025  0.00  0.00    +0.043 C 
ATOM     13  C   UNL     1      -3.982   2.348  24.977  0.00  0.00    +0.011 C 
ATOM     14  C   UNL     1      -3.322   2.588  24.996  0.00  0.00    +0.060 C 
ATOM     15  C   UNL     1      -3.080   3.510  25.056  0.00  0.00    +0.100 C 
ATOM     16  C   UNL     1      -2.450   2.299  24.982  0.00  0.00    +0.056 A 
ATOM     17  C   UNL     1      -2.005   1.605  24.940  0.00  0.00    +0.086 A 
ATOM     29  C   UNL     1      -1.181   1.643  24.947  0.00  0.00    +0.023 A 
ATOM     30  C   UNL     1      -0.802   2.374  24.996  0.00  0.00    +0.062 A 
ATOM     31  C   UNL     1      -1.246   3.068  25.038  0.00  0.00    +0.261 A 
ATOM     32  O   UNL     1      -0.842   4.039  25.102  0.00  0.00    -0.267 OA
ATOM     33  N   UNL     1      -2.070   3.030  25.031  0.00  0.00    -0.298 N 
ATOM     34  C   UNL     1      -2.689   2.776  25.011  0.00  0.00    +0.110 C 
ENDROOT
BRANCH   8   5
ATOM      1  F   UNL     1       0.463   1.674  25.254  0.00  0.00    -0.204 F 
ATOM      2  C   UNL     1      -0.066   2.304  25.193  0.00  0.00    +0.140 A 
ATOM      3  C   UNL     1      -0.395   2.351  24.453  0.00  0.00    +0.030 A 
ATOM      4  C   UNL     1      -0.988   3.075  24.420  0.00  0.00    +0.007 A 
ATOM      5  C   UNL     1      -1.124   3.563  25.070  0.00  0.00    +0.054 A 
ATOM      6  C   UNL     1      -0.731   3.423  25.781  0.00  0.00    +0.007 A 
ATOM      7  C   UNL     1      -0.202   2.793  25.843  0.00  0.00    +0.030 A 
ENDBRANCH   8   5
BRANCH  17  18
ATOM     18  N   UNL     1      -2.352   0.815  24.888  0.00  0.00    -0.174 NA
ATOM     19  C   UNL     1      -2.053   0.207  25.418  0.00  0.00    +0.269 C 
ATOM     20  O   UNL     1      -1.538  -0.066  26.039  0.00  0.00    -0.268 OA
BRANCH  19  21
ATOM     21  C   UNL     1      -2.498  -0.500  25.235  0.00  0.00    +0.055 A 
ATOM     22  C   UNL     1      -2.126  -0.951  24.653  0.00  0.00    +0.005 A 
ATOM     23  C   UNL     1      -2.467  -1.657  24.396  0.00  0.00    +0.010 A 
ATOM     24  C   UNL     1      -3.180  -1.913  24.722  0.00  0.00    +0.068 A 
ATOM     25  C   UNL     1      -3.552  -1.462  25.304  0.00  0.00    +0.010 A 
ATOM     26  C   UNL     1      -3.212  -0.757  25.560  0.00  0.00    +0.005 A 
BRANCH  24  27
ATOM     27  C   UNL     1      -3.521  -2.619  24.466  0.00  0.00    +0.100 C 
ATOM     28  N   UNL     1      -3.861  -3.325  24.209  0.00  0.00    -0.191 NA
ENDBRANCH  24  27
ENDBRANCH  19  21
ENDBRANCH  17  18
TORSDOF 4
ENDMDL
MODEL 7
REMARK VINA RESULT:     -15.1      1.877      3.160
REMARK  Name = 
REMARK  4 active torsions:
REMARK  status: ('A' for Active; 'I' for Inactive)
REMARK    1  A    between atoms: C_5  and  C_8
REMARK    2  A    between atoms: C_17  and  N_18
REMARK    3  A    between atoms: C_19  and  C_21
REMARK    4  A    between atoms: C_24  and  C_27
REMARK                            x       y       z     vdW  Elec       q    Type
REMARK                         _______ _______ _______ _____ _____    ______ ____
ROOT
ATOM      8  C   UNL     1      -5.185   3.201  25.515  0.00  0.00    +0.249 C 
ATOM      9  O   UNL     1      -5.999   3.471  25.751  0.00  0.00    -0.270 OA
ATOM     10  N   UNL     1      -5.078   2.368  25.225  0.00  0.00    -0.276 N 
ATOM     11  C   UNL     1      -5.411   1.624  25.045  0.00  0.00    +0.096 C 
ATOM     12  C   UNL     1      -4.600   1.148  24.743  0.00  0.00    +0.043 C 
ATOM     13  C   UNL     1      -4.038   0.625  24.470  0.00  0.00    +0.011 C 
ATOM     14  C   UNL     1      -4.063   1.291  24.691  0.00  0.00    +0.060 C 
ATOM     15  C   UNL     1      -4.856   1.737  24.980  0.00  0.00    +0.100 C 
ATOM     16  C   UNL     1      -3.528   2.025  24.830  0.00  0.00    +0.056 A 
ATOM     17  C   UNL     1      -2.743   2.266  24.765  0.00  0.00    +0.086 A 
ATOM     29  C   UNL     1      -2.529   3.035  24.974  0.00  0.00    +0.023 A 
ATOM     30  C   UNL     1      -3.101   3.562  25.250  0.00  0.00    +0.062 A 
ATOM     31  C   UNL     1      -3.887   3.321  25.315  0.00  0.00    +0.261 A 
ATOM     32  O   UNL     1      -4.677   3.928  25.657  0.00  0.00    -0.267 OA
ATOM     33  N   UNL     1      -4.100   2.552  25.106  0.00  0.00    -0.298 N 
ATOM     34  C   UNL     1      -4.049   1.920  24.892  0.00  0.00    +0.110 C 
ENDROOT
BRANCH   8   5
ATOM      1  F   UNL     1      -2.030   4.482  25.664  0.00  0.00    -0.204 F 
ATOM      2  C   UNL     1      -2.792   4.173  25.600  0.00  0.00    +0.140 A 
ATOM      3  C   UNL     1      -3.012   4.072  24.826  0.00  0.00    +0.030 A 
ATOM      4  C   UNL     1      -3.880   3.720  24.790  0.00  0.00    +0.007 A 
ATOM      5  C   UNL     1      -4.316   3.553  25.469  0.00  0.00    +0.054 A 
ATOM      6  C   UNL     1      -3.991   3.696  26.214  0.00  0.00    +0.007 A 
ATOM      7  C   UNL     1      -3.229   4.006  26.279  0.00  0.00    +0.030 A 
ENDBRANCH   8   5
BRANCH  17  18
ATOM     18  N   UNL     1      -2.105   1.755  24.483  0.00  0.00    -0.174 NA
ATOM     19  C   UNL     1      -1.437   1.615  25.006  0.00  0.00    +0.269 C 
ATOM     20  O   UNL     1      -1.019   1.723  25.741  0.00  0.00    -0.268 OA
BRANCH  19  21
ATOM     21  C   UNL     1      -0.909   1.097  24.577  0.00  0.00    +0.055 A 
ATOM     22  C   UNL     1      -0.370   1.525  24.122  0.00  0.00    +0.005 A 
ATOM     23  C   UNL     1       0.190   1.128  23.664  0.00  0.00    +0.010 A 
ATOM     24  C   UNL     1       0.211   0.303  23.661  0.00  0.00    +0.068 A 
ATOM     25  C   UNL     1      -0.328  -0.124  24.117  0.00  0.00    +0.010 A 
ATOM     26  C   UNL     1      -0.887   0.273  24.574  0.00  0.00    +0.005 A 
BRANCH  24  27
ATOM     27  C   UNL     1       0.770  -0.093  23.204  0.00  0.00    +0.100 C 
ATOM     28  N   UNL     1       1.330  -0.490  22.746  0.00  0.00    -0.191 NA
ENDBRANCH  24  27
ENDBRANCH  19  21
ENDBRANCH  17  18
TORSDOF 4
ENDMDL
MODEL 8
REMARK VINA RESULT:     -15.0      2.061      4.701
REMARK  Name = 
REMARK  4 active torsions:
REMARK  status: ('A' for Active; 'I' for Inactive)
REMARK    1  A    between atoms: C_5  and  C_8
REMARK    2  A    between atoms: C_17  and  N_18
REMARK    3  A    between atoms: C_19  and  C_21
REMARK    4  A    between atoms: C_24  and  C_27
REMARK                            x       y       z     vdW  Elec       q    Type
REMARK                         _______ _______ _______ _____ _____    ______ ____
ROOT
ATOM      8  C   UNL     1      -1.443  -2.227  24.952  0.00  0.00    +0.249 C 
ATOM      9  O   UNL     1      -0.821  -2.862  24.942  0.00  0.00    -0.270 OA
ATOM     10  N   UNL     1      -1.202  -1.395  25.151  0.00  0.00    -0.276 N 
ATOM     11  C   UNL     1      -0.600  -0.853  25.358  0.00  0.00    +0.096 C 
ATOM     12  C   UNL     1      -1.136  -0.026  25.419  0.00  0.00    +0.043 C 
ATOM     13  C   UNL     1      -1.430   0.729  25.510  0.00  0.00    +0.011 C 
ATOM     14  C   UNL     1      -1.677   0.093  25.347  0.00  0.00    +0.060 C 
ATOM     15  C   UNL     1      -1.145  -0.699  25.291  0.00  0.00    +0.100 C 
ATOM     16  C   UNL     1      -2.455  -0.344  25.128  0.00  0.00    +0.056 A 
ATOM     17  C   UNL     1      -3.259  -0.201  25.014  0.00  0.00    +0.086 A 
ATOM     29  C   UNL     1      -3.763  -0.821  24.809  0.00  0.00    +0.023 A 
ATOM     30  C   UNL     1      -3.463  -1.585  24.719  0.00  0.00    +0.062 A 
ATOM     31  C   UNL     1      -2.659  -1.728  24.833  0.00  0.00    +0.261 A 
ATOM     32  O   UNL     1      -2.195  -2.669  24.737  0.00  0.00    -0.267 OA
ATOM     33  N   UNL     1      -2.155  -1.107  25.038  0.00  0.00    -0.298 N 
ATOM     34  C   UNL     1      -1.945  -0.490  25.190  0.00  0.00    +0.110 C 
ENDROOT
BRANCH   8   5
ATOM      1  F   UNL     1      -4.739  -2.002  24.116  0.00  0.00    -0.204 F 
ATOM      2  C   UNL     1      -3.949  -2.051  24.345  0.00  0.00    +0.140 A 
ATOM      3  C   UNL     1      -3.856  -1.913  25.139  0.00  0.00    +0.030 A 
ATOM      4  C   UNL     1      -2.949  -1.976  25.364  0.00  0.00    +0.007 A 
ATOM      5  C   UNL     1      -2.367  -2.147  24.805  0.00  0.00    +0.054 A 
ATOM      6  C   UNL     1      -2.575  -2.271  24.017  0.00  0.00    +0.007 A 
ATOM      7  C   UNL     1      -3.367  -2.222  23.787  0.00  0.00    +0.030 A 
ENDBRANCH   8   5
BRANCH  17  18
ATOM     18  N   UNL     1      -3.625   0.578  25.096  0.00  0.00    -0.174 NA
ATOM     19  C   UNL     1      -4.003   0.922  24.405  0.00  0.00    +0.269 C 
ATOM     20  O   UNL     1      -4.238   0.904  23.586  0.00  0.00    -0.268 OA
BRANCH  19  21
ATOM     21  C   UNL     1      -4.307   1.680  24.658  0.00  0.00    +0.055 A 
ATOM     22  C   UNL     1      -5.041   1.603  25.028  0.00  0.00    +0.005 A 
ATOM     23  C   UNL     1      -5.431   2.272  25.314  0.00  0.00    +0.010 A 
ATOM     24  C   UNL     1      -5.087   3.017  25.231  0.00  0.00    +0.068 A 
ATOM     25  C   UNL     1      -4.353   3.093  24.862  0.00  0.00    +0.010 A 
ATOM     26  C   UNL     1      -3.964   2.425  24.576  0.00  0.00    +0.005 A 
BRANCH  24  27
ATOM     27  C   UNL     1      -5.476   3.685  25.518  0.00  0.00    +0.100 C 
ATOM     28  N   UNL     1      -5.865   4.354  25.804  0.00  0.00    -0.191 NA
ENDBRANCH  24  27
ENDBRANCH  19  21
ENDBRANCH  17  18
TORSDOF 4
ENDMDL
