MODEL 1
REMARK VINA RESULT:     -13.6      0.000      0.000
REMARK  Name = 
REMARK  7 active torsions:
REMARK  status: ('A' for Active; 'I' for Inactive)
REMARK    1  A    between atoms: O_2  and  C_3
REMARK    2  A    between atoms: C_6  and  C_7
REMARK    3  A    between atoms: C_7  and  N_8
REMARK    4  A    between atoms: C_9  and  C_11
REMARK    5  A    between atoms: C_11  and  C_12
REMARK    6  A    between atoms: C_17  and  C_19
REMARK    7  A    between atoms: C_30  and  C_32
REMARK                            x       y       z     vdW  Elec       q    Type
REMARK                         _______ _______ _______ _____ _____    ______ ____
ROOT
ATOM     12  C   UNL     1      -2.758  -0.399  25.086  0.00  0.00    +0.050 C 
ATOM     13  C   UNL     1      -3.439   0.048  24.955  0.00  0.00    +0.063 A 
ATOM     14  C   UNL     1      -4.102  -0.301  24.608  0.00  0.00    +0.023 A 
ATOM     15  C   UNL     1      -4.082  -1.097  24.391  0.00  0.00    +0.034 C 
ATOM     16  C   UNL     1      -3.401  -1.543  24.521  0.00  0.00    +0.010 C 
ATOM     17  C   UNL     1      -3.382  -2.339  24.305  0.00  0.00    +0.059 C 
ATOM     18  C   UNL     1      -4.149  -2.145  24.071  0.00  0.00    +0.005 C 
ATOM     21  C   UNL     1      -2.701  -2.786  24.435  0.00  0.00    +0.154 C 
ATOM     22  O   UNL     1      -2.682  -3.582  24.218  0.00  0.00    -0.223 OA
ATOM     23  C   UNL     1      -2.039  -2.437  24.782  0.00  0.00    +0.033 C 
ATOM     24  C   UNL     1      -2.058  -1.641  24.999  0.00  0.00    +0.003 C 
ATOM     25  C   UNL     1      -2.739  -1.195  24.869  0.00  0.00    +0.006 C 
ATOM     26  C   UNL     1      -2.077  -0.846  25.216  0.00  0.00    +0.000 C 
ATOM     27  S   UNL     1      -4.691   0.274  24.548  0.00  0.00    -0.054 S 
ATOM     28  C   UNL     1      -4.393   0.977  24.858  0.00  0.00    +0.185 A 
ATOM     29  N   UNL     1      -4.797   1.695  24.908  0.00  0.00    -0.150 NA
ATOM     30  C   UNL     1      -4.425   2.356  25.234  0.00  0.00    +0.275 C 
ATOM     31  O   UNL     1      -3.650   2.299  25.510  0.00  0.00    -0.268 OA
ATOM     40  N   UNL     1      -3.619   0.839  25.110  0.00  0.00    -0.227 NA
ENDROOT
BRANCH  30  32
ATOM     32  C   UNL     1      -4.829   3.073  25.284  0.00  0.00    +0.110 A 
ATOM     33  C   UNL     1      -5.440   3.165  25.830  0.00  0.00    +0.147 A 
ATOM     34  F   UNL     1      -5.648   2.540  26.327  0.00  0.00    -0.204 F 
ATOM     35  C   UNL     1      -5.844   3.883  25.880  0.00  0.00    +0.030 A 
ATOM     36  C   UNL     1      -5.638   4.508  25.384  0.00  0.00    +0.005 A 
ATOM     37  C   UNL     1      -5.026   4.416  24.837  0.00  0.00    +0.030 A 
ATOM     38  C   UNL     1      -4.622   3.699  24.787  0.00  0.00    +0.147 A 
ATOM     39  F   UNL     1      -4.011   3.607  24.241  0.00  0.00    -0.204 F 
ENDBRANCH  30  32
BRANCH  17  19
ATOM     19  C   UNL     1      -3.629  -3.068  24.006  0.00  0.00    +0.184 C 
ATOM     20  O   UNL     1      -4.387  -3.150  23.692  0.00  0.00    -0.220 OA
ENDBRANCH  17  19
BRANCH  12  11
ATOM     11  C   UNL     1      -2.096  -0.051  25.433  0.00  0.00    +0.093 C 
BRANCH  11   9
ATOM      8  N   UNL     1      -1.211   1.059  25.271  0.00  0.00    -0.201 NA
ATOM      9  C   UNL     1      -1.565   0.378  24.970  0.00  0.00    +0.242 C 
ATOM     10  O   UNL     1      -1.388   0.124  24.205  0.00  0.00    -0.273 OA
BRANCH   8   7
ATOM      7  C   UNL     1      -0.679   1.486  24.808  0.00  0.00    +0.141 C 
BRANCH   7   6
ATOM      3  C   UNL     1      -0.588   3.954  24.987  0.00  0.00    +0.139 A 
ATOM      4  C   UNL     1      -0.694   3.597  24.251  0.00  0.00    +0.037 A 
ATOM      5  C   UNL     1      -0.724   2.775  24.192  0.00  0.00    +0.001 A 
ATOM      6  C   UNL     1      -0.649   2.309  24.868  0.00  0.00    -0.000 A 
ATOM     41  C   UNL     1      -0.543   2.666  25.605  0.00  0.00    +0.001 A 
ATOM     42  C   UNL     1      -0.513   3.488  25.665  0.00  0.00    +0.037 A 
BRANCH   3   2
ATOM      1  C   UNL     1      -1.257   5.215  25.057  0.00  0.00    +0.252 C 
ATOM      2  O   UNL     1      -0.558   4.777  25.047  0.00  0.00    -0.471 OA
ENDBRANCH   3   2
ENDBRANCH   7   6
ENDBRANCH   8   7
ENDBRANCH  11   9
ENDBRANCH  12  11
TORSDOF 7
ENDMDL
MODEL 2
REMARK VINA RESULT:     -13.5      1.947      4.905
REMARK  Name = 
REMARK  7 active torsions:
REMARK  status: ('A' for Active; 'I' for Inactive)
REMARK    1  A    between atoms: O_2  and  C_3
REMARK    2  A    between atoms: C_6  and  C_7
REMARK    3  A    between atoms: C_7  and  N_8
REMARK    4  A    between atoms: C_9  and  C_11
REMARK    5  A    between atoms: C_11  and  C_12
REMARK    6  A    between atoms: C_17  and  C_19
REMARK    7  A    between atoms: C_30  and  C_32
REMARK                            x       y       z     vdW  Elec       q    Type
REMARK                         _______ _______ _______ _____ _____    ______ ____
ROOT
ATOM     12  C   UNL     1      -3.507   2.108  24.421  0.00  0.00    +0.050 C 
ATOM     13  C   UNL     1      -3.879   1.396  24.611  0.00  0.00    +0.063 A 
ATOM     14  C   UNL     1      -4.597   1.401  25.016  0.00  0.00    +0.023 A 
ATOM     15  C   UNL     1      -4.943   2.118  25.232  0.00  0.00    +0.034 C 
ATOM     16  C   UNL     1      -4.572   2.829  25.043  0.00  0.00    +0.010 C 
ATOM     17  C   UNL     1      -4.918   3.545  25.258  0.00  0.00    +0.059 C 
ATOM     18  C   UNL     1      -5.478   3.020  25.559  0.00  0.00    +0.005 C 
ATOM     21  C   UNL     1      -4.547   4.258  25.069  0.00  0.00    +0.154 C 
ATOM     22  O   UNL     1      -4.894   4.975  25.285  0.00  0.00    -0.223 OA
ATOM     23  C   UNL     1      -3.829   4.253  24.663  0.00  0.00    +0.033 C 
ATOM     24  C   UNL     1      -3.482   3.535  24.447  0.00  0.00    +0.003 C 
ATOM     25  C   UNL     1      -3.854   2.824  24.637  0.00  0.00    +0.006 C 
ATOM     26  C   UNL     1      -3.135   2.819  24.232  0.00  0.00    +0.000 C 
ATOM     27  S   UNL     1      -4.833   0.617  25.127  0.00  0.00    -0.054 S 
ATOM     28  C   UNL     1      -4.260   0.130  24.790  0.00  0.00    +0.185 A 
ATOM     29  N   UNL     1      -4.275  -0.695  24.775  0.00  0.00    -0.150 NA
ATOM     30  C   UNL     1      -3.659  -1.112  24.416  0.00  0.00    +0.275 C 
ATOM     31  O   UNL     1      -3.030  -0.704  24.073  0.00  0.00    -0.268 OA
ATOM     40  N   UNL     1      -3.670   0.609  24.471  0.00  0.00    -0.227 NA
ENDROOT
BRANCH  30  32
ATOM     32  C   UNL     1      -3.674  -1.937  24.401  0.00  0.00    +0.110 A 
ATOM     33  C   UNL     1      -3.287  -2.367  24.989  0.00  0.00    +0.147 A 
ATOM     34  F   UNL     1      -2.886  -1.973  25.592  0.00  0.00    -0.204 F 
ATOM     35  C   UNL     1      -3.302  -3.192  24.973  0.00  0.00    +0.030 A 
ATOM     36  C   UNL     1      -3.703  -3.587  24.370  0.00  0.00    +0.005 A 
ATOM     37  C   UNL     1      -4.090  -3.156  23.782  0.00  0.00    +0.030 A 
ATOM     38  C   UNL     1      -4.075  -2.331  23.797  0.00  0.00    +0.147 A 
ATOM     39  F   UNL     1      -4.462  -1.901  23.209  0.00  0.00    -0.204 F 
ENDBRANCH  30  32
BRANCH  17  19
ATOM     19  C   UNL     1      -5.460   4.080  25.579  0.00  0.00    +0.184 C 
ATOM     20  O   UNL     1      -6.199   3.818  25.831  0.00  0.00    -0.220 OA
ENDBRANCH  17  19
BRANCH  12  11
ATOM     11  C   UNL     1      -2.789   2.103  24.016  0.00  0.00    +0.093 C 
BRANCH  11   9
ATOM      8  N   UNL     1      -1.441   1.627  24.018  0.00  0.00    -0.201 NA
ATOM      9  C   UNL     1      -2.088   1.945  24.420  0.00  0.00    +0.242 C 
ATOM     10  O   UNL     1      -2.033   2.106  25.227  0.00  0.00    -0.273 OA
BRANCH   8   7
ATOM      7  C   UNL     1      -0.741   1.469  24.423  0.00  0.00    +0.141 C 
BRANCH   7   6
ATOM      3  C   UNL     1       1.081   0.220  23.304  0.00  0.00    +0.139 A 
ATOM      4  C   UNL     1       1.186   1.014  23.502  0.00  0.00    +0.037 A 
ATOM      5  C   UNL     1       0.579   1.430  23.875  0.00  0.00    +0.001 A 
ATOM      6  C   UNL     1      -0.134   1.053  24.050  0.00  0.00    -0.000 A 
ATOM     41  C   UNL     1      -0.239   0.258  23.852  0.00  0.00    +0.001 A 
ATOM     42  C   UNL     1       0.368  -0.158  23.479  0.00  0.00    +0.037 A 
BRANCH   3   2
ATOM      1  C   UNL     1       2.196   0.194  22.411  0.00  0.00    +0.252 C 
ATOM      2  O   UNL     1       1.688  -0.196  22.931  0.00  0.00    -0.471 OA
ENDBRANCH   3   2
ENDBRANCH   7   6
ENDBRANCH   8   7
ENDBRANCH  11   9
ENDBRANCH  12  11
TORSDOF 7
ENDMDL
MODEL 3
REMARK VINA RESULT:     -12.9      1.344      3.503
REMARK  Name = 
REMARK  7 active torsions:
REMARK  status: ('A' for Active; 'I' for Inactive)
REMARK    1  A    between atoms: O_2  and  C_3
REMARK    2  A    between atoms: C_6  and  C_7
REMARK    3  A    between atoms: C_7  and  N_8
REMARK    4  A    between atoms: C_9  and  C_11
REMARK    5  A    between atoms: C_11  and  C_12
REMARK    6  A    between atoms: C_17  and  C_19
REMARK    7  A    between atoms: C_30  and  C_32
REMARK                            x       y       z     vdW  Elec       q    Type
REMARK                         _______ _______ _______ _____ _____    ______ ____
ROOT
ATOM     12  C   UNL     1      -3.078  -0.203  24.403  0.00  0.00    +0.050 C 
ATOM     13  C   UNL     1      -2.456   0.310  24.581  0.00  0.00    +0.063 A 
ATOM     14  C   UNL     1      -1.715   0.007  24.780  0.00  0.00    +0.023 A 
ATOM     15  C   UNL     1      -1.596  -0.810  24.800  0.00  0.00    +0.034 C 
ATOM     16  C   UNL     1      -2.216  -1.322  24.622  0.00  0.00    +0.010 C 
ATOM     17  C   UNL     1      -2.097  -2.138  24.643  0.00  0.00    +0.059 C 
ATOM     18  C   UNL     1      -1.343  -1.877  24.853  0.00  0.00    +0.005 C 
ATOM     21  C   UNL     1      -2.718  -2.651  24.465  0.00  0.00    +0.154 C 
ATOM     22  O   UNL     1      -2.598  -3.467  24.485  0.00  0.00    -0.223 OA
ATOM     23  C   UNL     1      -3.459  -2.348  24.266  0.00  0.00    +0.033 C 
ATOM     24  C   UNL     1      -3.579  -1.531  24.246  0.00  0.00    +0.003 C 
ATOM     25  C   UNL     1      -2.957  -1.019  24.424  0.00  0.00    +0.006 C 
ATOM     26  C   UNL     1      -3.699  -0.716  24.225  0.00  0.00    +0.000 C 
ATOM     27  S   UNL     1      -1.210   0.643  24.928  0.00  0.00    -0.054 S 
ATOM     28  C   UNL     1      -1.640   1.338  24.820  0.00  0.00    +0.185 A 
ATOM     29  N   UNL     1      -1.350   2.105  24.911  0.00  0.00    -0.150 NA
ATOM     30  C   UNL     1      -1.848   2.752  24.785  0.00  0.00    +0.275 C 
ATOM     31  O   UNL     1      -2.634   2.630  24.567  0.00  0.00    -0.268 OA
ATOM     40  N   UNL     1      -2.410   1.134  24.606  0.00  0.00    -0.227 NA
ENDROOT
BRANCH  30  32
ATOM     32  C   UNL     1      -1.559   3.519  24.876  0.00  0.00    +0.110 A 
ATOM     33  C   UNL     1      -0.947   3.789  24.393  0.00  0.00    +0.147 A 
ATOM     34  F   UNL     1      -0.623   3.292  23.819  0.00  0.00    -0.204 F 
ATOM     35  C   UNL     1      -0.657   4.556  24.484  0.00  0.00    +0.030 A 
ATOM     36  C   UNL     1      -0.980   5.054  25.057  0.00  0.00    +0.005 A 
ATOM     37  C   UNL     1      -1.593   4.784  25.540  0.00  0.00    +0.030 A 
ATOM     38  C   UNL     1      -1.882   4.016  25.449  0.00  0.00    +0.147 A 
ATOM     39  F   UNL     1      -2.494   3.747  25.932  0.00  0.00    -0.204 F 
ENDBRANCH  30  32
BRANCH  17  19
ATOM     19  C   UNL     1      -1.715  -2.864  24.736  0.00  0.00    +0.184 C 
ATOM     20  O   UNL     1      -0.939  -2.889  25.015  0.00  0.00    -0.220 OA
ENDBRANCH  17  19
BRANCH  12  11
ATOM     11  C   UNL     1      -3.818   0.099  24.205  0.00  0.00    +0.093 C 
BRANCH  11   9
ATOM      8  N   UNL     1      -4.849   0.964  24.688  0.00  0.00    -0.201 NA
ATOM      9  C   UNL     1      -4.348   0.318  24.799  0.00  0.00    +0.242 C 
ATOM     10  O   UNL     1      -4.375  -0.111  25.503  0.00  0.00    -0.273 OA
BRANCH   8   7
ATOM      7  C   UNL     1      -5.377   1.181  25.282  0.00  0.00    +0.141 C 
BRANCH   7   6
ATOM      3  C   UNL     1      -5.894   3.573  25.664  0.00  0.00    +0.139 A 
ATOM      4  C   UNL     1      -5.715   3.082  26.302  0.00  0.00    +0.037 A 
ATOM      5  C   UNL     1      -5.543   2.285  26.175  0.00  0.00    +0.001 A 
ATOM      6  C   UNL     1      -5.549   1.978  25.409  0.00  0.00    -0.000 A 
ATOM     41  C   UNL     1      -5.729   2.469  24.770  0.00  0.00    +0.001 A 
ATOM     42  C   UNL     1      -5.901   3.266  24.897  0.00  0.00    +0.037 A 
BRANCH   3   2
ATOM      1  C   UNL     1      -5.611   4.953  25.425  0.00  0.00    +0.252 C 
ATOM      2  O   UNL     1      -6.066   4.369  25.791  0.00  0.00    -0.471 OA
ENDBRANCH   3   2
ENDBRANCH   7   6
ENDBRANCH   8   7
ENDBRANCH  11   9
ENDBRANCH  12  11
TORSDOF 7
ENDMDL
MODEL 4
REMARK VINA RESULT:     -12.8      2.365      3.387
REMARK  Name = 
REMARK  7 active torsions:
REMARK  status: ('A' for Active; 'I' for Inactive)
REMARK    1  A    between atoms: O_2  and  C_3
REMARK    2  A    between atoms: C_6  and  C_7
REMARK    3  A    between atoms: C_7  and  N_8
REMARK    4  A    between atoms: C_9  and  C_11
REMARK    5  A    between atoms: C_11  and  C_12
REMARK    6  A    between atoms: C_17  and  C_19
REMARK    7  A    between atoms: C_30  and  C_32
REMARK                            x       y       z     vdW  Elec       q    Type
REMARK                         _______ _______ _______ _____ _____    ______ ____
ROOT
ATOM     12  C   UNL     1      -1.319  -0.402  24.583  0.00  0.00    +0.050 C 
ATOM     13  C   UNL     1      -1.707   0.318  24.694  0.00  0.00    +0.063 A 
ATOM     14  C   UNL     1      -2.526   0.335  24.791  0.00  0.00    +0.023 A 
ATOM     15  C   UNL     1      -2.957  -0.368  24.777  0.00  0.00    +0.034 C 
ATOM     16  C   UNL     1      -2.570  -1.088  24.667  0.00  0.00    +0.010 C 
ATOM     17  C   UNL     1      -3.001  -1.790  24.653  0.00  0.00    +0.059 C 
ATOM     18  C   UNL     1      -3.612  -1.249  24.773  0.00  0.00    +0.005 C 
ATOM     21  C   UNL     1      -2.614  -2.510  24.542  0.00  0.00    +0.154 C 
ATOM     22  O   UNL     1      -3.046  -3.214  24.528  0.00  0.00    -0.223 OA
ATOM     23  C   UNL     1      -1.795  -2.528  24.445  0.00  0.00    +0.033 C 
ATOM     24  C   UNL     1      -1.363  -1.824  24.459  0.00  0.00    +0.003 C 
ATOM     25  C   UNL     1      -1.751  -1.105  24.570  0.00  0.00    +0.006 C 
ATOM     26  C   UNL     1      -0.932  -1.122  24.473  0.00  0.00    +0.000 C 
ATOM     27  S   UNL     1      -2.754   1.122  24.890  0.00  0.00    -0.054 S 
ATOM     28  C   UNL     1      -2.077   1.590  24.853  0.00  0.00    +0.185 A 
ATOM     29  N   UNL     1      -2.052   2.412  24.925  0.00  0.00    -0.150 NA
ATOM     30  C   UNL     1      -1.329   2.808  24.877  0.00  0.00    +0.275 C 
ATOM     31  O   UNL     1      -0.633   2.382  24.757  0.00  0.00    -0.268 OA
ATOM     40  N   UNL     1      -1.429   1.095  24.733  0.00  0.00    -0.227 NA
ENDROOT
BRANCH  30  32
ATOM     32  C   UNL     1      -1.303   3.630  24.949  0.00  0.00    +0.110 A 
ATOM     33  C   UNL     1      -0.870   4.077  24.409  0.00  0.00    +0.147 A 
ATOM     34  F   UNL     1      -0.461   3.704  23.797  0.00  0.00    -0.204 F 
ATOM     35  C   UNL     1      -0.844   4.899  24.481  0.00  0.00    +0.030 A 
ATOM     36  C   UNL     1      -1.252   5.273  25.093  0.00  0.00    +0.005 A 
ATOM     37  C   UNL     1      -1.686   4.824  25.633  0.00  0.00    +0.030 A 
ATOM     38  C   UNL     1      -1.712   4.003  25.561  0.00  0.00    +0.147 A 
ATOM     39  F   UNL     1      -2.146   3.555  26.101  0.00  0.00    -0.204 F 
ENDBRANCH  30  32
BRANCH  17  19
ATOM     19  C   UNL     1      -3.645  -2.306  24.681  0.00  0.00    +0.184 C 
ATOM     20  O   UNL     1      -4.370  -2.078  24.362  0.00  0.00    -0.220 OA
ENDBRANCH  17  19
BRANCH  12  11
ATOM     11  C   UNL     1      -0.501  -0.419  24.486  0.00  0.00    +0.093 C 
BRANCH  11   9
ATOM      8  N   UNL     1       0.641  -0.102  23.687  0.00  0.00    -0.201 NA
ATOM      9  C   UNL     1      -0.168  -0.250  23.751  0.00  0.00    +0.242 C 
ATOM     10  O   UNL     1      -0.646  -0.228  23.079  0.00  0.00    -0.273 OA
BRANCH   8   7
ATOM      7  C   UNL     1       0.972   0.068  22.952  0.00  0.00    +0.141 C 
BRANCH   7   6
ATOM      3  C   UNL     1       3.381   0.614  22.776  0.00  0.00    +0.139 A 
ATOM      4  C   UNL     1       2.872   1.117  23.186  0.00  0.00    +0.037 A 
ATOM      5  C   UNL     1       2.070   0.935  23.245  0.00  0.00    +0.001 A 
ATOM      6  C   UNL     1       1.775   0.250  22.893  0.00  0.00    -0.000 A 
ATOM     41  C   UNL     1       2.284  -0.254  22.483  0.00  0.00    +0.001 A 
ATOM     42  C   UNL     1       3.087  -0.072  22.424  0.00  0.00    +0.037 A 
BRANCH   3   2
ATOM      1  C   UNL     1       4.730   0.412  23.202  0.00  0.00    +0.252 C 
ATOM      2  O   UNL     1       4.184   0.796  22.718  0.00  0.00    -0.471 OA
ENDBRANCH   3   2
ENDBRANCH   7   6
ENDBRANCH   8   7
ENDBRANCH  11   9
ENDBRANCH  12  11
TORSDOF 7
ENDMDL
MODEL 5
REMARK VINA RESULT:     -12.7      2.393      5.140
REMARK  Name = 
REMARK  7 active torsions:
REMARK  status: ('A' for Active; 'I' for Inactive)
REMARK    1  A    between atoms: O_2  and  C_3
REMARK    2  A    between atoms: C_6  and  C_7
REMARK    3  A    between atoms: C_7  and  N_8
REMARK    4  A    between atoms: C_9  and  C_11
REMARK    5  A    between atoms: C_11  and  C_12
REMARK    6  A    between atoms: C_17  and  C_19
REMARK    7  A    between atoms: C_30  and  C_32
REMARK                            x       y       z     vdW  Elec       q    Type
REMARK                         _______ _______ _______ _____ _____    ______ ____
ROOT
ATOM     12  C   UNL     1      -1.640   2.266  24.377  0.00  0.00    +0.050 C 
ATOM     13  C   UNL     1      -2.230   1.741  24.617  0.00  0.00    +0.063 A 
ATOM     14  C   UNL     1      -2.826   1.996  25.127  0.00  0.00    +0.023 A 
ATOM     15  C   UNL     1      -2.833   2.776  25.397  0.00  0.00    +0.034 C 
ATOM     16  C   UNL     1      -2.244   3.301  25.157  0.00  0.00    +0.010 C 
ATOM     17  C   UNL     1      -2.250   4.080  25.426  0.00  0.00    +0.059 C 
ATOM     18  C   UNL     1      -2.923   3.791  25.806  0.00  0.00    +0.005 C 
ATOM     21  C   UNL     1      -1.661   4.605  25.187  0.00  0.00    +0.154 C 
ATOM     22  O   UNL     1      -1.668   5.385  25.456  0.00  0.00    -0.223 OA
ATOM     23  C   UNL     1      -1.065   4.350  24.677  0.00  0.00    +0.033 C 
ATOM     24  C   UNL     1      -1.058   3.570  24.407  0.00  0.00    +0.003 C 
ATOM     25  C   UNL     1      -1.647   3.046  24.647  0.00  0.00    +0.006 C 
ATOM     26  C   UNL     1      -1.051   2.791  24.137  0.00  0.00    +0.000 C 
ATOM     27  S   UNL     1      -3.331   1.358  25.269  0.00  0.00    -0.054 S 
ATOM     28  C   UNL     1      -3.046   0.710  24.846  0.00  0.00    +0.185 A 
ATOM     29  N   UNL     1      -3.382  -0.043  24.829  0.00  0.00    -0.150 NA
ATOM     30  C   UNL     1      -3.033  -0.641  24.379  0.00  0.00    +0.275 C 
ATOM     31  O   UNL     1      -2.349  -0.484  23.946  0.00  0.00    -0.268 OA
ATOM     40  N   UNL     1      -2.365   0.946  24.444  0.00  0.00    -0.227 NA
ENDROOT
BRANCH  30  32
ATOM     32  C   UNL     1      -3.370  -1.394  24.362  0.00  0.00    +0.110 A 
ATOM     33  C   UNL     1      -3.110  -1.973  24.887  0.00  0.00    +0.147 A 
ATOM     34  F   UNL     1      -2.513  -1.801  25.430  0.00  0.00    -0.204 F 
ATOM     35  C   UNL     1      -3.446  -2.726  24.870  0.00  0.00    +0.030 A 
ATOM     36  C   UNL     1      -4.042  -2.900  24.327  0.00  0.00    +0.005 A 
ATOM     37  C   UNL     1      -4.303  -2.319  23.801  0.00  0.00    +0.030 A 
ATOM     38  C   UNL     1      -3.966  -1.566  23.818  0.00  0.00    +0.147 A 
ATOM     39  F   UNL     1      -4.226  -0.987  23.293  0.00  0.00    -0.204 F 
ENDBRANCH  30  32
BRANCH  17  19
ATOM     19  C   UNL     1      -2.491   4.760  25.828  0.00  0.00    +0.184 C 
ATOM     20  O   UNL     1      -3.083   4.714  26.399  0.00  0.00    -0.220 OA
ENDBRANCH  17  19
BRANCH  12  11
ATOM     11  C   UNL     1      -1.044   2.012  23.868  0.00  0.00    +0.093 C 
BRANCH  11   9
ATOM      8  N   UNL     1       0.117   1.211  23.640  0.00  0.00    -0.201 NA
ATOM      9  C   UNL     1      -0.409   1.574  24.161  0.00  0.00    +0.242 C 
ATOM     10  O   UNL     1      -0.301   1.501  24.975  0.00  0.00    -0.273 OA
BRANCH   8   7
ATOM      7  C   UNL     1       0.751   0.773  23.934  0.00  0.00    +0.141 C 
BRANCH   7   6
ATOM      3  C   UNL     1       2.690   0.274  22.477  0.00  0.00    +0.139 A 
ATOM      4  C   UNL     1       2.741   0.874  23.040  0.00  0.00    +0.037 A 
ATOM      5  C   UNL     1       2.095   1.041  23.525  0.00  0.00    +0.001 A 
ATOM      6  C   UNL     1       1.397   0.607  23.448  0.00  0.00    -0.000 A 
ATOM     41  C   UNL     1       1.346   0.006  22.885  0.00  0.00    +0.001 A 
ATOM     42  C   UNL     1       1.992  -0.161  22.399  0.00  0.00    +0.037 A 
BRANCH   3   2
ATOM      1  C   UNL     1       4.064   0.469  22.136  0.00  0.00    +0.252 C 
ATOM      2  O   UNL     1       3.336   0.107  21.992  0.00  0.00    -0.471 OA
ENDBRANCH   3   2
ENDBRANCH   7   6
ENDBRANCH   8   7
ENDBRANCH  11   9
ENDBRANCH  12  11
TORSDOF 7
ENDMDL
MODEL 6
REMARK VINA RESULT:     -11.0      1.930      5.865
REMARK  Name = 
REMARK  7 active torsions:
REMARK  status: ('A' for Active; 'I' for Inactive)
REMARK    1  A    between atoms: O_2  and  C_3
REMARK    2  A    between atoms: C_6  and  C_7
REMARK    3  A    between atoms: C_7  and  N_8
REMARK    4  A    between atoms: C_9  and  C_11
REMARK    5  A    between atoms: C_11  and  C_12
REMARK    6  A    between atoms: C_17  and  C_19
REMARK    7  A    between atoms: C_30  and  C_32
REMARK                            x       y       z     vdW  Elec       q    Type
REMARK                         _______ _______ _______ _____ _____    ______ ____
ROOT
ATOM     12  C   UNL     1      -3.772   2.023  24.659  0.00  0.00    +0.050 C 
ATOM     13  C   UNL     1      -2.948   1.984  24.687  0.00  0.00    +0.063 A 
ATOM     14  C   UNL     1      -2.520   2.581  25.063  0.00  0.00    +0.023 A 
ATOM     15  C   UNL     1      -2.916   3.216  25.410  0.00  0.00    +0.034 C 
ATOM     16  C   UNL     1      -3.739   3.255  25.382  0.00  0.00    +0.010 C 
ATOM     17  C   UNL     1      -4.134   3.890  25.728  0.00  0.00    +0.059 C 
ATOM     18  C   UNL     1      -3.354   4.097  25.898  0.00  0.00    +0.005 C 
ATOM     21  C   UNL     1      -4.958   3.929  25.700  0.00  0.00    +0.154 C 
ATOM     22  O   UNL     1      -5.354   4.564  26.047  0.00  0.00    -0.223 OA
ATOM     23  C   UNL     1      -5.386   3.332  25.324  0.00  0.00    +0.033 C 
ATOM     24  C   UNL     1      -4.990   2.696  24.977  0.00  0.00    +0.003 C 
ATOM     25  C   UNL     1      -4.167   2.658  25.006  0.00  0.00    +0.006 C 
ATOM     26  C   UNL     1      -4.595   2.062  24.630  0.00  0.00    +0.000 C 
ATOM     27  S   UNL     1      -1.718   2.395  25.005  0.00  0.00    -0.054 S 
ATOM     28  C   UNL     1      -1.651   1.684  24.593  0.00  0.00    +0.185 A 
ATOM     29  N   UNL     1      -0.947   1.295  24.409  0.00  0.00    -0.150 NA
ATOM     30  C   UNL     1      -0.966   0.583  23.991  0.00  0.00    +0.275 C 
ATOM     31  O   UNL     1      -1.688   0.261  23.758  0.00  0.00    -0.268 OA
ATOM     40  N   UNL     1      -2.410   1.429  24.396  0.00  0.00    -0.227 NA
ENDROOT
BRANCH  30  32
ATOM     32  C   UNL     1      -0.262   0.194  23.808  0.00  0.00    +0.110 A 
ATOM     33  C   UNL     1       0.209   0.464  23.187  0.00  0.00    +0.147 A 
ATOM     34  F   UNL     1      -0.024   1.124  22.749  0.00  0.00    -0.204 F 
ATOM     35  C   UNL     1       0.912   0.075  23.003  0.00  0.00    +0.030 A 
ATOM     36  C   UNL     1       1.146  -0.584  23.440  0.00  0.00    +0.005 A 
ATOM     37  C   UNL     1       0.675  -0.855  24.062  0.00  0.00    +0.030 A 
ATOM     38  C   UNL     1      -0.029  -0.466  24.246  0.00  0.00    +0.147 A 
ATOM     39  F   UNL     1      -0.499  -0.736  24.867  0.00  0.00    -0.204 F 
ENDBRANCH  30  32
BRANCH  17  19
ATOM     19  C   UNL     1      -4.259   4.597  26.135  0.00  0.00    +0.184 C 
ATOM     20  O   UNL     1      -3.634   4.964  26.528  0.00  0.00    -0.220 OA
ENDBRANCH  17  19
BRANCH  12  11
ATOM     11  C   UNL     1      -4.200   1.427  24.283  0.00  0.00    +0.093 C 
BRANCH  11   9
ATOM      8  N   UNL     1      -4.331   0.005  24.352  0.00  0.00    -0.201 NA
ATOM      9  C   UNL     1      -4.416   0.748  24.700  0.00  0.00    +0.242 C 
ATOM     10  O   UNL     1      -4.718   0.814  25.465  0.00  0.00    -0.273 OA
BRANCH   8   7
ATOM      7  C   UNL     1      -4.547  -0.672  24.769  0.00  0.00    +0.141 C 
BRANCH   7   6
ATOM      3  C   UNL     1      -3.393  -2.818  24.329  0.00  0.00    +0.139 A 
ATOM      4  C   UNL     1      -3.292  -2.435  25.053  0.00  0.00    +0.037 A 
ATOM      5  C   UNL     1      -3.676  -1.720  25.199  0.00  0.00    +0.001 A 
ATOM      6  C   UNL     1      -4.163  -1.387  24.623  0.00  0.00    -0.000 A 
ATOM     41  C   UNL     1      -4.264  -1.770  23.898  0.00  0.00    +0.001 A 
ATOM     42  C   UNL     1      -3.880  -2.485  23.751  0.00  0.00    +0.037 A 
BRANCH   3   2
ATOM      1  C   UNL     1      -2.207  -3.537  23.985  0.00  0.00    +0.252 C 
ATOM      2  O   UNL     1      -3.008  -3.533  24.183  0.00  0.00    -0.471 OA
ENDBRANCH   3   2
ENDBRANCH   7   6
ENDBRANCH   8   7
ENDBRANCH  11   9
ENDBRANCH  12  11
TORSDOF 7
ENDMDL
