MODEL 1
REMARK VINA RESULT:     -12.0      0.000      0.000
REMARK  Name = 
REMARK  6 active torsions:
REMARK  status: ('A' for Active; 'I' for Inactive)
REMARK    1  A    between atoms: C_2  and  C_4
REMARK    2  A    between atoms: N_7  and  C_10
REMARK    3  A    between atoms: C_12  and  C_16
REMARK    4  A    between atoms: C_19  and  C_21
REMARK    5  A    between atoms: N_25  and  C_26
REMARK    6  A    between atoms: C_26  and  C_27
REMARK                            x       y       z     vdW  Elec       q    Type
REMARK                         _______ _______ _______ _____ _____    ______ ____
ROOT
ATOM     16  C   UNL     1      -3.995   2.669  24.651  0.00  0.00    +0.203 A 
ATOM     17  N   UNL     1      -4.163   3.258  24.098  0.00  0.00    -0.056 NA
ATOM     18  O   UNL     1      -3.550   3.809  24.119  0.00  0.00    -0.336 OA
ATOM     19  C   UNL     1      -3.003   3.561  24.685  0.00  0.00    +0.251 A 
ATOM     20  N   UNL     1      -3.278   2.857  25.014  0.00  0.00    -0.190 NA
ENDROOT
BRANCH  16  12
ATOM     10  C   UNL     1      -4.605   0.592  24.930  0.00  0.00    +0.132 A 
ATOM     11  C   UNL     1      -4.138   1.252  24.768  0.00  0.00    +0.037 A 
ATOM     12  C   UNL     1      -4.463   2.009  24.813  0.00  0.00    +0.043 A 
ATOM     13  C   UNL     1      -5.256   2.105  25.020  0.00  0.00    +0.024 A 
ATOM     14  C   UNL     1      -5.723   1.445  25.182  0.00  0.00    +0.100 A 
ATOM     15  N   UNL     1      -5.397   0.688  25.137  0.00  0.00    -0.229 NA
BRANCH  10   7
ATOM      4  C   UNL     1      -3.627  -1.678  24.792  0.00  0.00    +0.083 C 
ATOM      5  C   UNL     1      -3.569  -1.246  25.493  0.00  0.00    +0.031 C 
ATOM      6  C   UNL     1      -3.896  -0.490  25.538  0.00  0.00    +0.093 C 
ATOM      7  N   UNL     1      -4.279  -0.165  24.884  0.00  0.00    -0.293 N 
ATOM      8  C   UNL     1      -4.336  -0.597  24.184  0.00  0.00    +0.093 C 
ATOM      9  C   UNL     1      -4.010  -1.353  24.137  0.00  0.00    +0.031 C 
BRANCH   4   2
ATOM      1  N   UNL     1      -2.661  -2.578  24.245  0.00  0.00    -0.088 NA
ATOM      2  C   UNL     1      -3.301  -2.434  24.745  0.00  0.00    +0.260 C 
ATOM      3  O   UNL     1      -3.616  -3.048  25.200  0.00  0.00    -0.272 OA
ENDBRANCH   4   2
ENDBRANCH  10   7
ENDBRANCH  16  12
BRANCH  19  21
ATOM     21  C   UNL     1      -2.304   3.950  24.887  0.00  0.00    +0.138 C 
ATOM     22  C   UNL     1      -2.247   4.670  25.285  0.00  0.00    +0.027 C 
ATOM     23  C   UNL     1      -1.447   4.852  25.370  0.00  0.00    +0.019 C 
ATOM     24  C   UNL     1      -1.009   4.244  25.024  0.00  0.00    +0.073 C 
ATOM     25  N   UNL     1      -1.539   3.687  24.726  0.00  0.00    -0.260 NA
BRANCH  25  26
ATOM     26  C   UNL     1      -1.339   2.988  24.335  0.00  0.00    +0.139 C 
BRANCH  26  27
ATOM     27  C   UNL     1      -0.617   2.620  24.492  0.00  0.00    +0.155 A 
ATOM     28  N   UNL     1       0.054   2.647  24.013  0.00  0.00    -0.226 NA
ATOM     29  C   UNL     1       0.646   2.204  24.380  0.00  0.00    +0.121 A 
ATOM     30  C   UNL     1       0.341   1.905  25.085  0.00  0.00    +0.121 A 
ATOM     31  N   UNL     1      -0.439   2.162  25.155  0.00  0.00    -0.226 NA
ENDBRANCH  26  27
ENDBRANCH  25  26
ENDBRANCH  19  21
TORSDOF 6
ENDMDL
MODEL 2
REMARK VINA RESULT:     -11.8      1.455      4.837
REMARK  Name = 
REMARK  6 active torsions:
REMARK  status: ('A' for Active; 'I' for Inactive)
REMARK    1  A    between atoms: C_2  and  C_4
REMARK    2  A    between atoms: N_7  and  C_10
REMARK    3  A    between atoms: C_12  and  C_16
REMARK    4  A    between atoms: C_19  and  C_21
REMARK    5  A    between atoms: N_25  and  C_26
REMARK    6  A    between atoms: C_26  and  C_27
REMARK                            x       y       z     vdW  Elec       q    Type
REMARK                         _______ _______ _______ _____ _____    ______ ____
ROOT
ATOM     16  C   UNL     1      -4.383   0.645  25.153  0.00  0.00    +0.203 A 
ATOM     17  N   UNL     1      -4.643   0.208  25.803  0.00  0.00    -0.056 NA
ATOM     18  O   UNL     1      -4.403  -0.573  25.697  0.00  0.00    -0.336 OA
ATOM     19  C   UNL     1      -3.994  -0.620  24.982  0.00  0.00    +0.251 A 
ATOM     20  N   UNL     1      -3.982   0.132  24.645  0.00  0.00    -0.190 NA
ENDROOT
BRANCH  16  12
ATOM     10  C   UNL     1      -3.989   2.783  24.958  0.00  0.00    +0.132 A 
ATOM     11  C   UNL     1      -3.869   1.976  25.080  0.00  0.00    +0.037 A 
ATOM     12  C   UNL     1      -4.504   1.452  25.031  0.00  0.00    +0.043 A 
ATOM     13  C   UNL     1      -5.260   1.735  24.860  0.00  0.00    +0.024 A 
ATOM     14  C   UNL     1      -5.380   2.543  24.738  0.00  0.00    +0.100 A 
ATOM     15  N   UNL     1      -4.744   3.066  24.787  0.00  0.00    -0.229 NA
BRANCH  10   7
ATOM      4  C   UNL     1      -2.081   4.353  25.104  0.00  0.00    +0.083 C 
ATOM      5  C   UNL     1      -2.544   4.204  25.770  0.00  0.00    +0.031 C 
ATOM      6  C   UNL     1      -3.180   3.681  25.721  0.00  0.00    +0.093 C 
ATOM      7  N   UNL     1      -3.353   3.306  25.007  0.00  0.00    -0.293 N 
ATOM      8  C   UNL     1      -2.889   3.455  24.341  0.00  0.00    +0.093 C 
ATOM      9  C   UNL     1      -2.253   3.978  24.389  0.00  0.00    +0.031 C 
BRANCH   4   2
ATOM      1  N   UNL     1      -0.671   4.590  25.114  0.00  0.00    -0.088 NA
ATOM      2  C   UNL     1      -1.445   4.876  25.152  0.00  0.00    +0.260 C 
ATOM      3  O   UNL     1      -1.582   5.685  25.238  0.00  0.00    -0.272 OA
ENDBRANCH   4   2
ENDBRANCH  10   7
ENDBRANCH  16  12
BRANCH  19  21
ATOM     21  C   UNL     1      -3.656  -1.301  24.661  0.00  0.00    +0.138 C 
ATOM     22  C   UNL     1      -4.038  -1.850  24.178  0.00  0.00    +0.027 C 
ATOM     23  C   UNL     1      -3.496  -2.440  23.984  0.00  0.00    +0.019 C 
ATOM     24  C   UNL     1      -2.778  -2.256  24.348  0.00  0.00    +0.073 C 
ATOM     25  N   UNL     1      -2.878  -1.553  24.766  0.00  0.00    -0.260 NA
BRANCH  25  26
ATOM     26  C   UNL     1      -2.300  -1.167  25.212  0.00  0.00    +0.139 C 
BRANCH  26  27
ATOM     27  C   UNL     1      -1.502  -1.263  25.024  0.00  0.00    +0.155 A 
ATOM     28  N   UNL     1      -1.073  -0.809  24.484  0.00  0.00    -0.226 NA
ATOM     29  C   UNL     1      -0.299  -1.096  24.470  0.00  0.00    +0.121 A 
ATOM     30  C   UNL     1      -0.251  -1.725  25.000  0.00  0.00    +0.121 A 
ATOM     31  N   UNL     1      -0.993  -1.829  25.343  0.00  0.00    -0.226 NA
ENDBRANCH  26  27
ENDBRANCH  25  26
ENDBRANCH  19  21
TORSDOF 6
ENDMDL
MODEL 3
REMARK VINA RESULT:     -11.7      2.069      4.716
REMARK  Name = 
REMARK  6 active torsions:
REMARK  status: ('A' for Active; 'I' for Inactive)
REMARK    1  A    between atoms: C_2  and  C_4
REMARK    2  A    between atoms: N_7  and  C_10
REMARK    3  A    between atoms: C_12  and  C_16
REMARK    4  A    between atoms: C_19  and  C_21
REMARK    5  A    between atoms: N_25  and  C_26
REMARK    6  A    between atoms: C_26  and  C_27
REMARK                            x       y       z     vdW  Elec       q    Type
REMARK                         _______ _______ _______ _____ _____    ______ ____
ROOT
ATOM     16  C   UNL     1      -0.415   2.707  24.918  0.00  0.00    +0.203 A 
ATOM     17  N   UNL     1       0.233   2.531  25.396  0.00  0.00    -0.056 NA
ATOM     18  O   UNL     1       0.565   1.826  25.125  0.00  0.00    -0.336 OA
ATOM     19  C   UNL     1       0.121   1.567  24.480  0.00  0.00    +0.251 A 
ATOM     20  N   UNL     1      -0.485   2.111  24.351  0.00  0.00    -0.190 NA
ENDROOT
BRANCH  16  12
ATOM     10  C   UNL     1      -2.215   3.919  25.164  0.00  0.00    +0.132 A 
ATOM     11  C   UNL     1      -1.721   3.262  25.089  0.00  0.00    +0.037 A 
ATOM     12  C   UNL     1      -0.909   3.364  24.993  0.00  0.00    +0.043 A 
ATOM     13  C   UNL     1      -0.589   4.125  24.972  0.00  0.00    +0.024 A 
ATOM     14  C   UNL     1      -1.082   4.783  25.046  0.00  0.00    +0.100 A 
ATOM     15  N   UNL     1      -1.895   4.679  25.142  0.00  0.00    -0.229 NA
BRANCH  10   7
ATOM      4  C   UNL     1      -4.653   3.608  25.450  0.00  0.00    +0.083 C 
ATOM      5  C   UNL     1      -4.176   3.753  26.107  0.00  0.00    +0.031 C 
ATOM      6  C   UNL     1      -3.363   3.856  26.011  0.00  0.00    +0.093 C 
ATOM      7  N   UNL     1      -3.028   3.815  25.259  0.00  0.00    -0.293 N 
ATOM      8  C   UNL     1      -3.505   3.670  24.602  0.00  0.00    +0.093 C 
ATOM      9  C   UNL     1      -4.317   3.566  24.697  0.00  0.00    +0.031 C 
BRANCH   4   2
ATOM      1  N   UNL     1      -5.798   2.752  25.469  0.00  0.00    -0.088 NA
ATOM      2  C   UNL     1      -5.466   3.504  25.544  0.00  0.00    +0.260 C 
ATOM      3  O   UNL     1      -5.948   4.152  25.715  0.00  0.00    -0.272 OA
ENDBRANCH   4   2
ENDBRANCH  10   7
ENDBRANCH  16  12
BRANCH  19  21
ATOM     21  C   UNL     1       0.260   0.882  24.040  0.00  0.00    +0.138 C 
ATOM     22  C   UNL     1       0.763   0.818  23.390  0.00  0.00    +0.027 C 
ATOM     23  C   UNL     1       0.734   0.038  23.121  0.00  0.00    +0.019 C 
ATOM     24  C   UNL     1       0.212  -0.379  23.606  0.00  0.00    +0.073 C 
ATOM     25  N   UNL     1      -0.081   0.143  24.173  0.00  0.00    -0.260 NA
BRANCH  25  26
ATOM     26  C   UNL     1      -0.620  -0.042  24.770  0.00  0.00    +0.139 C 
BRANCH  26  27
ATOM     27  C   UNL     1      -0.934  -0.803  24.821  0.00  0.00    +0.155 A 
ATOM     28  N   UNL     1      -1.634  -1.064  24.469  0.00  0.00    -0.226 NA
ATOM     29  C   UNL     1      -1.735  -1.860  24.663  0.00  0.00    +0.121 A 
ATOM     30  C   UNL     1      -1.099  -2.090  25.135  0.00  0.00    +0.121 A 
ATOM     31  N   UNL     1      -0.604  -1.438  25.232  0.00  0.00    -0.226 NA
ENDBRANCH  26  27
ENDBRANCH  25  26
ENDBRANCH  19  21
TORSDOF 6
ENDMDL
MODEL 4
REMARK VINA RESULT:     -11.6      1.589      3.293
REMARK  Name = 
REMARK  6 active torsions:
REMARK  status: ('A' for Active; 'I' for Inactive)
REMARK    1  A    between atoms: C_2  and  C_4
REMARK    2  A    between atoms: N_7  and  C_10
REMARK    3  A    between atoms: C_12  and  C_16
REMARK    4  A    between atoms: C_19  and  C_21
REMARK    5  A    between atoms: N_25  and  C_26
REMARK    6  A    between atoms: C_26  and  C_27
REMARK                            x       y       z     vdW  Elec       q    Type
REMARK                         _______ _______ _______ _____ _____    ______ ____
ROOT
ATOM     16  C   UNL     1      -0.546   1.719  25.056  0.00  0.00    +0.203 A 
ATOM     17  N   UNL     1      -0.200   1.927  25.775  0.00  0.00    -0.056 NA
ATOM     18  O   UNL     1      -0.410   2.707  25.943  0.00  0.00    -0.336 OA
ATOM     19  C   UNL     1      -0.885   2.981  25.327  0.00  0.00    +0.251 A 
ATOM     20  N   UNL     1      -0.970   2.371  24.779  0.00  0.00    -0.190 NA
ENDROOT
BRANCH  16  12
ATOM     10  C   UNL     1      -1.007  -0.309  24.394  0.00  0.00    +0.132 A 
ATOM     11  C   UNL     1      -1.072   0.422  24.771  0.00  0.00    +0.037 A 
ATOM     12  C   UNL     1      -0.480   0.988  24.680  0.00  0.00    +0.043 A 
ATOM     13  C   UNL     1       0.179   0.823  24.211  0.00  0.00    +0.024 A 
ATOM     14  C   UNL     1       0.245   0.092  23.834  0.00  0.00    +0.100 A 
ATOM     15  N   UNL     1      -0.348  -0.474  23.926  0.00  0.00    -0.229 NA
BRANCH  10   7
ATOM      4  C   UNL     1      -2.788  -2.006  24.671  0.00  0.00    +0.083 C 
ATOM      5  C   UNL     1      -1.995  -2.224  24.745  0.00  0.00    +0.031 C 
ATOM      6  C   UNL     1      -1.402  -1.658  24.652  0.00  0.00    +0.093 C 
ATOM      7  N   UNL     1      -1.600  -0.875  24.487  0.00  0.00    -0.293 N 
ATOM      8  C   UNL     1      -2.392  -0.657  24.413  0.00  0.00    +0.093 C 
ATOM      9  C   UNL     1      -2.986  -1.222  24.505  0.00  0.00    +0.031 C 
BRANCH   4   2
ATOM      1  N   UNL     1      -3.881  -2.752  24.131  0.00  0.00    -0.088 NA
ATOM      2  C   UNL     1      -3.382  -2.571  24.763  0.00  0.00    +0.260 C 
ATOM      3  O   UNL     1      -3.477  -2.954  25.488  0.00  0.00    -0.272 OA
ENDBRANCH   4   2
ENDBRANCH  10   7
ENDBRANCH  16  12
BRANCH  19  21
ATOM     21  C   UNL     1      -1.218   3.734  25.270  0.00  0.00    +0.138 C 
ATOM     22  C   UNL     1      -0.824   4.422  25.043  0.00  0.00    +0.027 C 
ATOM     23  C   UNL     1      -1.366   5.044  25.063  0.00  0.00    +0.019 C 
ATOM     24  C   UNL     1      -2.095   4.740  25.302  0.00  0.00    +0.073 C 
ATOM     25  N   UNL     1      -2.003   3.931  25.430  0.00  0.00    -0.260 NA
BRANCH  25  26
ATOM     26  C   UNL     1      -2.593   3.408  25.676  0.00  0.00    +0.139 C 
BRANCH  26  27
ATOM     27  C   UNL     1      -3.383   3.566  25.498  0.00  0.00    +0.155 A 
ATOM     28  N   UNL     1      -3.757   3.416  24.777  0.00  0.00    -0.226 NA
ATOM     29  C   UNL     1      -4.543   3.659  24.844  0.00  0.00    +0.121 A 
ATOM     30  C   UNL     1      -4.654   3.958  25.604  0.00  0.00    +0.121 A 
ATOM     31  N   UNL     1      -3.938   3.901  26.009  0.00  0.00    -0.226 NA
ENDBRANCH  26  27
ENDBRANCH  25  26
ENDBRANCH  19  21
TORSDOF 6
ENDMDL
MODEL 5
REMARK VINA RESULT:      -9.4      2.029      4.167
REMARK  Name = 
REMARK  6 active torsions:
REMARK  status: ('A' for Active; 'I' for Inactive)
REMARK    1  A    between atoms: C_2  and  C_4
REMARK    2  A    between atoms: N_7  and  C_10
REMARK    3  A    between atoms: C_12  and  C_16
REMARK    4  A    between atoms: C_19  and  C_21
REMARK    5  A    between atoms: N_25  and  C_26
REMARK    6  A    between atoms: C_26  and  C_27
REMARK                            x       y       z     vdW  Elec       q    Type
REMARK                         _______ _______ _______ _____ _____    ______ ____
ROOT
ATOM     16  C   UNL     1      -3.633  -0.173  24.843  0.00  0.00    +0.203 A 
ATOM     17  N   UNL     1      -4.253  -0.406  24.351  0.00  0.00    -0.056 NA
ATOM     18  O   UNL     1      -4.853   0.157  24.412  0.00  0.00    -0.336 OA
ATOM     19  C   UNL     1      -4.603   0.739  24.942  0.00  0.00    +0.251 A 
ATOM     20  N   UNL     1      -3.850   0.535  25.208  0.00  0.00    -0.190 NA
ENDROOT
BRANCH  16  12
ATOM     10  C   UNL     1      -1.524  -0.712  24.687  0.00  0.00    +0.132 A 
ATOM     11  C   UNL     1      -2.235  -0.309  24.579  0.00  0.00    +0.037 A 
ATOM     12  C   UNL     1      -2.922  -0.576  24.951  0.00  0.00    +0.043 A 
ATOM     13  C   UNL     1      -2.896  -1.247  25.431  0.00  0.00    +0.024 A 
ATOM     14  C   UNL     1      -2.184  -1.650  25.539  0.00  0.00    +0.100 A 
ATOM     15  N   UNL     1      -1.498  -1.382  25.167  0.00  0.00    -0.229 NA
BRANCH  10   7
ATOM      4  C   UNL     1       0.533   0.094  23.571  0.00  0.00    +0.083 C 
ATOM      5  C   UNL     1       0.369  -0.714  23.598  0.00  0.00    +0.031 C 
ATOM      6  C   UNL     1      -0.317  -0.982  23.971  0.00  0.00    +0.093 C 
ATOM      7  N   UNL     1      -0.838  -0.444  24.315  0.00  0.00    -0.293 N 
ATOM      8  C   UNL     1      -0.673   0.364  24.287  0.00  0.00    +0.093 C 
ATOM      9  C   UNL     1       0.012   0.633  23.915  0.00  0.00    +0.031 C 
BRANCH   4   2
ATOM      1  N   UNL     1       1.533  -0.054  22.560  0.00  0.00    -0.088 NA
ATOM      2  C   UNL     1       1.219   0.363  23.199  0.00  0.00    +0.260 C 
ATOM      3  O   UNL     1       1.590   1.050  23.467  0.00  0.00    -0.272 OA
ENDBRANCH   4   2
ENDBRANCH  10   7
ENDBRANCH  16  12
BRANCH  19  21
ATOM     21  C   UNL     1      -5.033   1.407  25.165  0.00  0.00    +0.138 C 
ATOM     22  C   UNL     1      -5.692   1.416  25.661  0.00  0.00    +0.027 C 
ATOM     23  C   UNL     1      -5.945   2.198  25.734  0.00  0.00    +0.019 C 
ATOM     24  C   UNL     1      -5.442   2.672  25.284  0.00  0.00    +0.073 C 
ATOM     25  N   UNL     1      -4.878   2.183  24.932  0.00  0.00    -0.260 NA
BRANCH  25  26
ATOM     26  C   UNL     1      -4.267   2.427  24.434  0.00  0.00    +0.139 C 
BRANCH  26  27
ATOM     27  C   UNL     1      -3.925   3.171  24.536  0.00  0.00    +0.155 A 
ATOM     28  N   UNL     1      -3.329   3.361  25.074  0.00  0.00    -0.226 NA
ATOM     29  C   UNL     1      -3.155   4.163  24.987  0.00  0.00    +0.121 A 
ATOM     30  C   UNL     1      -3.643   4.468  24.397  0.00  0.00    +0.121 A 
ATOM     31  N   UNL     1      -4.119   3.856  24.118  0.00  0.00    -0.226 NA
ENDBRANCH  26  27
ENDBRANCH  25  26
ENDBRANCH  19  21
TORSDOF 6
ENDMDL
