MODEL 1
REMARK VINA RESULT:     -10.9      0.000      0.000
REMARK  Name = 
REMARK  6 active torsions:
REMARK  status: ('A' for Active; 'I' for Inactive)
REMARK    1  A    between atoms: N_2  and  C_3
REMARK    2  A    between atoms: C_3  and  C_4
REMARK    3  A    between atoms: C_10  and  C_12
REMARK    4  A    between atoms: C_12  and  C_13
REMARK    5  A    between atoms: C_15  and  C_16
REMARK    6  A    between atoms: C_16  and  N_17
REMARK                            x       y       z     vdW  Elec       q    Type
REMARK                         _______ _______ _______ _____ _____    ______ ____
ROOT
ATOM     12  C   UNL     1      -4.603   1.349  25.035  0.00  0.00    +0.117 C 
ENDROOT
BRANCH  12  13
ATOM     13  C   UNL     1      -4.415   2.146  25.126  0.00  0.00    +0.157 C 
ATOM     14  O   UNL     1      -3.656   2.469  25.132  0.00  0.00    -0.351 OA
ATOM     15  C   UNL     1      -3.725   3.284  25.237  0.00  0.00    +0.170 C 
ATOM     21  C   UNL     1      -4.527   3.466  25.296  0.00  0.00    +0.213 C 
ATOM     22  O   UNL     1      -4.847   4.219  25.405  0.00  0.00    -0.218 OA
ATOM     23  C   UNL     1      -4.954   2.764  25.228  0.00  0.00    +0.212 C 
ATOM     24  O   UNL     1      -5.775   2.690  25.256  0.00  0.00    -0.218 OA
BRANCH  15  16
ATOM     16  C   UNL     1      -3.101   3.823  25.276  0.00  0.00    +0.147 C 
BRANCH  16  17
ATOM     17  N   UNL     1      -2.322   3.552  25.287  0.00  0.00    -0.203 NA
ATOM     18  C   UNL     1      -1.698   4.091  25.323  0.00  0.00    +0.242 C 
ATOM     19  C   UNL     1      -0.919   3.819  25.334  0.00  0.00    +0.096 C 
ATOM     20  O   UNL     1      -1.853   4.901  25.346  0.00  0.00    -0.273 OA
ENDBRANCH  16  17
ENDBRANCH  15  16
ENDBRANCH  12  13
BRANCH  12  10
ATOM      1  C   UNL     1      -4.308  -0.232  25.403  0.00  0.00    +0.115 C 
ATOM      2  N   UNL     1      -4.020   0.088  24.700  0.00  0.00    -0.274 N 
ATOM     10  C   UNL     1      -4.167   0.878  24.516  0.00  0.00    +0.228 C 
ATOM     11  O   UNL     1      -3.879   1.199  23.812  0.00  0.00    -0.275 OA
BRANCH   2   3
ATOM      3  C   UNL     1      -3.585  -0.382  24.181  0.00  0.00    +0.120 C 
BRANCH   3   4
ATOM      4  C   UNL     1      -3.604  -1.204  24.253  0.00  0.00    -0.002 A 
ATOM      5  C   UNL     1      -4.192  -1.639  23.871  0.00  0.00    -0.003 A 
ATOM      6  C   UNL     1      -4.210  -2.460  23.943  0.00  0.00    -0.000 A 
ATOM      7  C   UNL     1      -3.640  -2.847  24.397  0.00  0.00    -0.000 A 
ATOM      8  C   UNL     1      -3.052  -2.413  24.778  0.00  0.00    -0.000 A 
ATOM      9  C   UNL     1      -3.034  -1.591  24.706  0.00  0.00    -0.003 A 
ENDBRANCH   3   4
ENDBRANCH   2   3
ENDBRANCH  12  10
TORSDOF 6
ENDMDL
MODEL 2
REMARK VINA RESULT:      -9.5      2.450      5.749
REMARK  Name = 
REMARK  6 active torsions:
REMARK  status: ('A' for Active; 'I' for Inactive)
REMARK    1  A    between atoms: N_2  and  C_3
REMARK    2  A    between atoms: C_3  and  C_4
REMARK    3  A    between atoms: C_10  and  C_12
REMARK    4  A    between atoms: C_12  and  C_13
REMARK    5  A    between atoms: C_15  and  C_16
REMARK    6  A    between atoms: C_16  and  N_17
REMARK                            x       y       z     vdW  Elec       q    Type
REMARK                         _______ _______ _______ _____ _____    ______ ____
ROOT
ATOM     12  C   UNL     1      -0.488   1.058  24.394  0.00  0.00    +0.117 C 
ENDROOT
BRANCH  12  13
ATOM     13  C   UNL     1      -0.788   0.292  24.445  0.00  0.00    +0.157 C 
ATOM     14  O   UNL     1      -1.554   0.085  24.671  0.00  0.00    -0.351 OA
ATOM     15  C   UNL     1      -1.615  -0.737  24.644  0.00  0.00    +0.170 C 
ATOM     21  C   UNL     1      -0.887  -1.039  24.401  0.00  0.00    +0.213 C 
ATOM     22  O   UNL     1      -0.702  -1.836  24.298  0.00  0.00    -0.218 OA
ATOM     23  C   UNL     1      -0.376  -0.403  24.277  0.00  0.00    +0.212 C 
ATOM     24  O   UNL     1       0.410  -0.453  24.031  0.00  0.00    -0.218 OA
BRANCH  15  16
ATOM     16  C   UNL     1      -2.287  -1.181  24.827  0.00  0.00    +0.147 C 
BRANCH  16  17
ATOM     17  N   UNL     1      -2.989  -1.054  24.414  0.00  0.00    -0.203 NA
ATOM     18  C   UNL     1      -3.672  -1.467  24.625  0.00  0.00    +0.242 C 
ATOM     19  C   UNL     1      -4.375  -1.341  24.212  0.00  0.00    +0.096 C 
ATOM     20  O   UNL     1      -3.651  -2.007  25.249  0.00  0.00    -0.273 OA
ENDBRANCH  16  17
ENDBRANCH  15  16
ENDBRANCH  12  13
BRANCH  12  10
ATOM      1  C   UNL     1      -0.563   2.685  24.127  0.00  0.00    +0.115 C 
ATOM      2  N   UNL     1      -0.610   2.391  24.897  0.00  0.00    -0.274 N 
ATOM     10  C   UNL     1      -0.572   1.578  25.030  0.00  0.00    +0.228 C 
ATOM     11  O   UNL     1      -0.619   1.283  25.800  0.00  0.00    -0.275 OA
BRANCH   2   3
ATOM      3  C   UNL     1      -0.694   2.909  25.532  0.00  0.00    +0.120 C 
BRANCH   3   4
ATOM      4  C   UNL     1      -1.080   3.631  25.427  0.00  0.00    -0.002 A 
ATOM      5  C   UNL     1      -0.677   4.273  25.100  0.00  0.00    -0.003 A 
ATOM      6  C   UNL     1      -1.063   4.994  24.996  0.00  0.00    -0.000 A 
ATOM      7  C   UNL     1      -1.853   5.074  25.219  0.00  0.00    -0.000 A 
ATOM      8  C   UNL     1      -2.257   4.434  25.547  0.00  0.00    -0.000 A 
ATOM      9  C   UNL     1      -1.870   3.712  25.651  0.00  0.00    -0.003 A 
ENDBRANCH   3   4
ENDBRANCH   2   3
ENDBRANCH  12  10
TORSDOF 6
ENDMDL
MODEL 3
REMARK VINA RESULT:      -9.5      2.234      4.988
REMARK  Name = 
REMARK  6 active torsions:
REMARK  status: ('A' for Active; 'I' for Inactive)
REMARK    1  A    between atoms: N_2  and  C_3
REMARK    2  A    between atoms: C_3  and  C_4
REMARK    3  A    between atoms: C_10  and  C_12
REMARK    4  A    between atoms: C_12  and  C_13
REMARK    5  A    between atoms: C_15  and  C_16
REMARK    6  A    between atoms: C_16  and  N_17
REMARK                            x       y       z     vdW  Elec       q    Type
REMARK                         _______ _______ _______ _____ _____    ______ ____
ROOT
ATOM     12  C   UNL     1      -1.606   1.647  24.442  0.00  0.00    +0.117 C 
ENDROOT
BRANCH  12  13
ATOM     13  C   UNL     1      -1.332   0.870  24.400  0.00  0.00    +0.157 C 
ATOM     14  O   UNL     1      -1.787   0.189  24.496  0.00  0.00    -0.351 OA
ATOM     15  C   UNL     1      -1.291  -0.464  24.410  0.00  0.00    +0.170 C 
ATOM     21  C   UNL     1      -0.529  -0.188  24.261  0.00  0.00    +0.213 C 
ATOM     22  O   UNL     1       0.142  -0.653  24.139  0.00  0.00    -0.218 OA
ATOM     23  C   UNL     1      -0.553   0.637  24.255  0.00  0.00    +0.212 C 
ATOM     24  O   UNL     1       0.087   1.140  24.126  0.00  0.00    -0.218 OA
BRANCH  15  16
ATOM     16  C   UNL     1      -1.517  -1.256  24.464  0.00  0.00    +0.147 C 
BRANCH  16  17
ATOM     17  N   UNL     1      -2.281  -1.451  24.710  0.00  0.00    -0.203 NA
ATOM     18  C   UNL     1      -2.545  -2.231  24.655  0.00  0.00    +0.242 C 
ATOM     19  C   UNL     1      -3.308  -2.425  24.901  0.00  0.00    +0.096 C 
ATOM     20  O   UNL     1      -2.046  -2.816  24.356  0.00  0.00    -0.273 OA
ENDBRANCH  16  17
ENDBRANCH  15  16
ENDBRANCH  12  13
BRANCH  12  10
ATOM      1  C   UNL     1      -2.623   2.703  25.197  0.00  0.00    +0.115 C 
ATOM      2  N   UNL     1      -2.832   2.379  24.468  0.00  0.00    -0.274 N 
ATOM     10  C   UNL     1      -2.324   1.851  24.091  0.00  0.00    +0.228 C 
ATOM     11  O   UNL     1      -2.533   1.527  23.361  0.00  0.00    -0.275 OA
BRANCH   2   3
ATOM      3  C   UNL     1      -3.549   2.584  24.116  0.00  0.00    +0.120 C 
BRANCH   3   4
ATOM      4  C   UNL     1      -4.209   2.743  24.586  0.00  0.00    -0.002 A 
ATOM      5  C   UNL     1      -4.319   3.497  24.903  0.00  0.00    -0.003 A 
ATOM      6  C   UNL     1      -4.978   3.655  25.372  0.00  0.00    -0.000 A 
ATOM      7  C   UNL     1      -5.529   3.060  25.524  0.00  0.00    -0.000 A 
ATOM      8  C   UNL     1      -5.420   2.306  25.207  0.00  0.00    -0.000 A 
ATOM      9  C   UNL     1      -4.760   2.148  24.737  0.00  0.00    -0.003 A 
ENDBRANCH   3   4
ENDBRANCH   2   3
ENDBRANCH  12  10
TORSDOF 6
ENDMDL
MODEL 4
REMARK VINA RESULT:      -9.5      1.787      2.829
REMARK  Name = 
REMARK  6 active torsions:
REMARK  status: ('A' for Active; 'I' for Inactive)
REMARK    1  A    between atoms: N_2  and  C_3
REMARK    2  A    between atoms: C_3  and  C_4
REMARK    3  A    between atoms: C_10  and  C_12
REMARK    4  A    between atoms: C_12  and  C_13
REMARK    5  A    between atoms: C_15  and  C_16
REMARK    6  A    between atoms: C_16  and  N_17
REMARK                            x       y       z     vdW  Elec       q    Type
REMARK                         _______ _______ _______ _____ _____    ______ ____
ROOT
ATOM     12  C   UNL     1      -1.058   0.502  24.936  0.00  0.00    +0.117 C 
ENDROOT
BRANCH  12  13
ATOM     13  C   UNL     1      -1.051   1.306  25.115  0.00  0.00    +0.157 C 
ATOM     14  O   UNL     1      -1.710   1.770  25.292  0.00  0.00    -0.351 OA
ATOM     15  C   UNL     1      -1.450   2.539  25.436  0.00  0.00    +0.170 C 
ATOM     21  C   UNL     1      -0.631   2.552  25.348  0.00  0.00    +0.213 C 
ATOM     22  O   UNL     1      -0.143   3.211  25.441  0.00  0.00    -0.218 OA
ATOM     23  C   UNL     1      -0.383   1.791  25.150  0.00  0.00    +0.212 C 
ATOM     24  O   UNL     1       0.394   1.554  25.011  0.00  0.00    -0.218 OA
BRANCH  15  16
ATOM     16  C   UNL     1      -1.927   3.184  25.633  0.00  0.00    +0.147 C 
BRANCH  16  17
ATOM     17  N   UNL     1      -2.714   3.206  25.384  0.00  0.00    -0.203 NA
ATOM     18  C   UNL     1      -3.228   3.771  25.695  0.00  0.00    +0.242 C 
ATOM     19  C   UNL     1      -4.015   3.793  25.447  0.00  0.00    +0.096 C 
ATOM     20  O   UNL     1      -2.957   4.314  26.254  0.00  0.00    -0.273 OA
ENDBRANCH  16  17
ENDBRANCH  15  16
ENDBRANCH  12  13
BRANCH  12  10
ATOM      1  C   UNL     1      -1.782  -0.723  24.100  0.00  0.00    +0.115 C 
ATOM      2  N   UNL     1      -1.949  -0.615  24.901  0.00  0.00    -0.274 N 
ATOM     10  C   UNL     1      -1.587  -0.003  25.318  0.00  0.00    +0.228 C 
ATOM     11  O   UNL     1      -1.754   0.105  26.120  0.00  0.00    -0.275 OA
BRANCH   2   3
ATOM      3  C   UNL     1      -2.478  -1.118  25.283  0.00  0.00    +0.120 C 
BRANCH   3   4
ATOM      4  C   UNL     1      -3.037  -1.539  24.846  0.00  0.00    -0.002 A 
ATOM      5  C   UNL     1      -3.687  -1.148  24.520  0.00  0.00    -0.003 A 
ATOM      6  C   UNL     1      -4.246  -1.569  24.084  0.00  0.00    -0.000 A 
ATOM      7  C   UNL     1      -4.156  -2.381  23.973  0.00  0.00    -0.000 A 
ATOM      8  C   UNL     1      -3.507  -2.773  24.298  0.00  0.00    -0.000 A 
ATOM      9  C   UNL     1      -2.947  -2.352  24.735  0.00  0.00    -0.003 A 
ENDBRANCH   3   4
ENDBRANCH   2   3
ENDBRANCH  12  10
TORSDOF 6
ENDMDL
MODEL 5
REMARK VINA RESULT:      -9.1      2.049      3.964
REMARK  Name = 
REMARK  6 active torsions:
REMARK  status: ('A' for Active; 'I' for Inactive)
REMARK    1  A    between atoms: N_2  and  C_3
REMARK    2  A    between atoms: C_3  and  C_4
REMARK    3  A    between atoms: C_10  and  C_12
REMARK    4  A    between atoms: C_12  and  C_13
REMARK    5  A    between atoms: C_15  and  C_16
REMARK    6  A    between atoms: C_16  and  N_17
REMARK                            x       y       z     vdW  Elec       q    Type
REMARK                         _______ _______ _______ _____ _____    ______ ____
ROOT
ATOM     12  C   UNL     1      -3.088  -0.250  24.609  0.00  0.00    +0.117 C 
ENDROOT
BRANCH  12  13
ATOM     13  C   UNL     1      -2.268  -0.198  24.672  0.00  0.00    +0.157 C 
ATOM     14  O   UNL     1      -1.833   0.491  24.804  0.00  0.00    -0.351 OA
ATOM     15  C   UNL     1      -1.034   0.288  24.828  0.00  0.00    +0.170 C 
ATOM     21  C   UNL     1      -0.974  -0.526  24.713  0.00  0.00    +0.213 C 
ATOM     22  O   UNL     1      -0.275  -0.964  24.696  0.00  0.00    -0.218 OA
ATOM     23  C   UNL     1      -1.736  -0.827  24.616  0.00  0.00    +0.212 C 
ATOM     24  O   UNL     1      -1.932  -1.618  24.487  0.00  0.00    -0.218 OA
BRANCH  15  16
ATOM     16  C   UNL     1      -0.405   0.808  24.948  0.00  0.00    +0.147 C 
BRANCH  16  17
ATOM     17  N   UNL     1      -0.493   1.451  25.458  0.00  0.00    -0.203 NA
ATOM     18  C   UNL     1       0.059   2.065  25.447  0.00  0.00    +0.242 C 
ATOM     19  C   UNL     1      -0.029   2.707  25.958  0.00  0.00    +0.096 C 
ATOM     20  O   UNL     1       0.698   2.036  24.927  0.00  0.00    -0.273 OA
ENDBRANCH  16  17
ENDBRANCH  15  16
ENDBRANCH  12  13
BRANCH  12  10
ATOM      1  C   UNL     1      -4.455   0.308  25.346  0.00  0.00    +0.115 C 
ATOM      2  N   UNL     1      -4.199   0.648  24.639  0.00  0.00    -0.274 N 
ATOM     10  C   UNL     1      -3.516   0.369  24.271  0.00  0.00    +0.228 C 
ATOM     11  O   UNL     1      -3.260   0.709  23.563  0.00  0.00    -0.275 OA
BRANCH   2   3
ATOM      3  C   UNL     1      -4.626   1.267  24.301  0.00  0.00    +0.120 C 
BRANCH   3   4
ATOM      4  C   UNL     1      -4.988   1.831  24.783  0.00  0.00    -0.002 A 
ATOM      5  C   UNL     1      -5.744   1.696  25.083  0.00  0.00    -0.003 A 
ATOM      6  C   UNL     1      -6.105   2.260  25.564  0.00  0.00    -0.000 A 
ATOM      7  C   UNL     1      -5.709   2.961  25.746  0.00  0.00    -0.000 A 
ATOM      8  C   UNL     1      -4.952   3.097  25.447  0.00  0.00    -0.000 A 
ATOM      9  C   UNL     1      -4.591   2.532  24.965  0.00  0.00    -0.003 A 
ENDBRANCH   3   4
ENDBRANCH   2   3
ENDBRANCH  12  10
TORSDOF 6
ENDMDL
