MODEL 1
REMARK VINA RESULT:     -10.9      0.000      0.000
REMARK  Name = 
REMARK  3 active torsions:
REMARK  status: ('A' for Active; 'I' for Inactive)
REMARK    1  A    between atoms: C_2  and  N_4
REMARK    2  A    between atoms: C_9  and  C_10
REMARK    3  A    between atoms: C_12  and  C_15
REMARK                            x       y       z     vdW  Elec       q    Type
REMARK                         _______ _______ _______ _____ _____    ______ ____
ROOT
ATOM     10  C   UNL     1      -4.316   1.243  24.622  0.00  0.00    +0.156 A 
ATOM     11  N   UNL     1      -4.324   0.496  24.969  0.00  0.00    -0.228 NA
ATOM     12  C   UNL     1      -3.931  -0.024  24.462  0.00  0.00    +0.102 A 
ATOM     13  C   UNL     1      -3.680   0.404  23.803  0.00  0.00    +0.119 A 
ATOM     14  N   UNL     1      -3.918   1.188  23.902  0.00  0.00    -0.226 NA
ENDROOT
BRANCH  10   9
ATOM      4  N   UNL     1      -4.188   2.608  25.029  0.00  0.00    -0.265 NA
ATOM      5  C   UNL     1      -4.520   3.293  25.347  0.00  0.00    +0.105 C 
ATOM      6  C   UNL     1      -5.313   3.299  25.576  0.00  0.00    +0.160 C 
ATOM      7  O   UNL     1      -5.773   2.620  25.487  0.00  0.00    -0.350 OA
ATOM      8  C   UNL     1      -5.441   1.935  25.169  0.00  0.00    +0.166 C 
ATOM      9  C   UNL     1      -4.649   1.929  24.940  0.00  0.00    +0.147 C 
BRANCH   4   2
ATOM      1  C   UNL     1      -3.188   2.787  24.023  0.00  0.00    +0.017 C 
ATOM      2  C   UNL     1      -3.395   2.603  24.800  0.00  0.00    +0.058 C 
ATOM      3  C   UNL     1      -2.808   2.412  25.349  0.00  0.00    +0.017 C 
ENDBRANCH   4   2
ENDBRANCH  10   9
BRANCH  12  15
ATOM     15  C   UNL     1      -3.809  -0.830  24.593  0.00  0.00    +0.019 A 
ATOM     16  C   UNL     1      -4.071  -1.380  24.037  0.00  0.00    +0.002 A 
ATOM     17  C   UNL     1      -3.949  -2.186  24.167  0.00  0.00    +0.000 A 
ATOM     18  C   UNL     1      -3.567  -2.441  24.852  0.00  0.00    +0.000 A 
ATOM     19  C   UNL     1      -3.305  -1.889  25.408  0.00  0.00    +0.000 A 
ATOM     20  C   UNL     1      -3.427  -1.083  25.278  0.00  0.00    +0.002 A 
ENDBRANCH  12  15
TORSDOF 3
ENDMDL
MODEL 2
REMARK VINA RESULT:     -10.6      1.219      1.671
REMARK  Name = 
REMARK  3 active torsions:
REMARK  status: ('A' for Active; 'I' for Inactive)
REMARK    1  A    between atoms: C_2  and  N_4
REMARK    2  A    between atoms: C_9  and  C_10
REMARK    3  A    between atoms: C_12  and  C_15
REMARK                            x       y       z     vdW  Elec       q    Type
REMARK                         _______ _______ _______ _____ _____    ______ ____
ROOT
ATOM     10  C   UNL     1      -2.987   1.736  24.591  0.00  0.00    +0.156 A 
ATOM     11  N   UNL     1      -3.167   1.021  24.958  0.00  0.00    -0.228 NA
ATOM     12  C   UNL     1      -3.305   0.460  24.368  0.00  0.00    +0.102 A 
ATOM     13  C   UNL     1      -3.209   0.830  23.637  0.00  0.00    +0.119 A 
ATOM     14  N   UNL     1      -3.013   1.620  23.775  0.00  0.00    -0.226 NA
ENDROOT
BRANCH  10   9
ATOM      4  N   UNL     1      -3.389   3.033  25.039  0.00  0.00    -0.265 NA
ATOM      5  C   UNL     1      -3.214   3.743  25.422  0.00  0.00    +0.105 C 
ATOM      6  C   UNL     1      -2.461   3.867  25.739  0.00  0.00    +0.160 C 
ATOM      7  O   UNL     1      -1.885   3.280  25.672  0.00  0.00    -0.350 OA
ATOM      8  C   UNL     1      -2.061   2.570  25.290  0.00  0.00    +0.166 C 
ATOM      9  C   UNL     1      -2.812   2.447  24.974  0.00  0.00    +0.147 C 
BRANCH   4   2
ATOM      1  C   UNL     1      -4.287   3.076  23.929  0.00  0.00    +0.017 C 
ATOM      2  C   UNL     1      -4.141   2.911  24.723  0.00  0.00    +0.058 C 
ATOM      3  C   UNL     1      -4.748   2.622  25.203  0.00  0.00    +0.017 C 
ENDBRANCH   4   2
ENDBRANCH  10   9
BRANCH  12  15
ATOM     15  C   UNL     1      -3.502  -0.333  24.489  0.00  0.00    +0.019 A 
ATOM     16  C   UNL     1      -3.948  -0.736  23.924  0.00  0.00    +0.002 A 
ATOM     17  C   UNL     1      -4.145  -1.528  24.044  0.00  0.00    +0.000 A 
ATOM     18  C   UNL     1      -3.898  -1.916  24.728  0.00  0.00    +0.000 A 
ATOM     19  C   UNL     1      -3.452  -1.512  25.294  0.00  0.00    +0.000 A 
ATOM     20  C   UNL     1      -3.255  -0.720  25.173  0.00  0.00    +0.002 A 
ENDBRANCH  12  15
TORSDOF 3
ENDMDL
MODEL 3
REMARK VINA RESULT:     -10.6      1.534      3.941
REMARK  Name = 
REMARK  3 active torsions:
REMARK  status: ('A' for Active; 'I' for Inactive)
REMARK    1  A    between atoms: C_2  and  N_4
REMARK    2  A    between atoms: C_9  and  C_10
REMARK    3  A    between atoms: C_12  and  C_15
REMARK                            x       y       z     vdW  Elec       q    Type
REMARK                         _______ _______ _______ _____ _____    ______ ____
ROOT
ATOM     10  C   UNL     1      -3.878  -0.339  24.351  0.00  0.00    +0.156 A 
ATOM     11  N   UNL     1      -4.447   0.124  24.726  0.00  0.00    -0.228 NA
ATOM     12  C   UNL     1      -4.253   0.917  24.601  0.00  0.00    +0.102 A 
ATOM     13  C   UNL     1      -3.564   0.942  24.149  0.00  0.00    +0.119 A 
ATOM     14  N   UNL     1      -3.332   0.166  23.993  0.00  0.00    -0.226 NA
ENDROOT
BRANCH  10   9
ATOM      4  N   UNL     1      -3.385  -1.576  24.871  0.00  0.00    -0.265 NA
ATOM      5  C   UNL     1      -3.364  -2.400  24.855  0.00  0.00    +0.105 C 
ATOM      6  C   UNL     1      -3.817  -2.814  24.302  0.00  0.00    +0.160 C 
ATOM      7  O   UNL     1      -4.290  -2.402  23.766  0.00  0.00    -0.350 OA
ATOM      8  C   UNL     1      -4.310  -1.577  23.782  0.00  0.00    +0.166 C 
ATOM      9  C   UNL     1      -3.858  -1.164  24.334  0.00  0.00    +0.147 C 
BRANCH   4   2
ATOM      1  C   UNL     1      -2.181  -0.890  25.221  0.00  0.00    +0.017 C 
ATOM      2  C   UNL     1      -2.932  -1.163  25.424  0.00  0.00    +0.058 C 
ATOM      3  C   UNL     1      -3.231  -1.024  26.181  0.00  0.00    +0.017 C 
ENDBRANCH   4   2
ENDBRANCH  10   9
BRANCH  12  15
ATOM     15  C   UNL     1      -4.674   1.569  24.880  0.00  0.00    +0.019 A 
ATOM     16  C   UNL     1      -5.488   1.512  25.001  0.00  0.00    +0.002 A 
ATOM     17  C   UNL     1      -5.910   2.165  25.281  0.00  0.00    +0.000 A 
ATOM     18  C   UNL     1      -5.518   2.873  25.438  0.00  0.00    +0.000 A 
ATOM     19  C   UNL     1      -4.703   2.929  25.317  0.00  0.00    +0.000 A 
ATOM     20  C   UNL     1      -4.281   2.277  25.038  0.00  0.00    +0.002 A 
ENDBRANCH  12  15
TORSDOF 3
ENDMDL
