MODEL 1
REMARK VINA RESULT:     -15.5      0.000      0.000
REMARK  Name = 
REMARK  4 active torsions:
REMARK  status: ('A' for Active; 'I' for Inactive)
REMARK    1  A    between atoms: N_9  and  C_11
REMARK    2  A    between atoms: C_20  and  C_21
REMARK    3  A    between atoms: C_22  and  C_23
REMARK    4  A    between atoms: C_23  and  N_24
REMARK                            x       y       z     vdW  Elec       q    Type
REMARK                         _______ _______ _______ _____ _____    ______ ____
ROOT
ATOM      1  O   UNL     1      -2.089   0.312  24.526  0.00  0.00    -0.267 OA
ATOM      2  C   UNL     1      -2.750  -0.137  24.317  0.00  0.00    +0.261 A 
ATOM      3  N   UNL     1      -2.791  -0.933  24.529  0.00  0.00    -0.299 N 
ATOM      4  C   UNL     1      -3.513  -0.820  24.123  0.00  0.00    +0.110 C 
ATOM      5  C   UNL     1      -3.889  -1.731  24.196  0.00  0.00    +0.039 C 
ATOM      6  C   UNL     1      -4.329  -2.415  24.169  0.00  0.00    +0.011 C 
ATOM      7  C   UNL     1      -3.711  -2.206  24.427  0.00  0.00    +0.054 C 
ATOM      8  C   UNL     1      -2.983  -2.516  24.894  0.00  0.00    +0.078 C 
ATOM      9  N   UNL     1      -2.546  -1.831  24.919  0.00  0.00    -0.273 NA
ATOM     10  C   UNL     1      -3.124  -2.045  24.683  0.00  0.00    +0.074 C 
ATOM     17  C   UNL     1      -3.451  -1.381  24.320  0.00  0.00    +0.041 A 
ATOM     18  C   UNL     1      -4.069  -1.034  23.899  0.00  0.00    +0.013 A 
ATOM     19  C   UNL     1      -4.028  -0.239  23.687  0.00  0.00    +0.006 A 
ATOM     20  C   UNL     1      -3.368   0.210  23.896  0.00  0.00    +0.056 A 
ENDROOT
BRANCH   9  11
ATOM     11  C   UNL     1      -1.925  -1.317  25.089  0.00  0.00    +0.063 C 
ATOM     12  C   UNL     1      -1.934  -0.874  25.785  0.00  0.00    +0.048 C 
ATOM     13  C   UNL     1      -1.312  -0.360  25.954  0.00  0.00    +0.144 C 
ATOM     14  O   UNL     1      -0.680  -0.288  25.428  0.00  0.00    -0.354 OA
ATOM     15  C   UNL     1      -0.671  -0.732  24.733  0.00  0.00    +0.144 C 
ATOM     16  C   UNL     1      -1.293  -1.246  24.563  0.00  0.00    +0.048 C 
ENDBRANCH   9  11
BRANCH  20  21
ATOM     21  C   UNL     1      -3.326   1.007  23.683  0.00  0.00    +0.002 A 
ATOM     22  C   UNL     1      -3.783   1.565  24.085  0.00  0.00    -0.006 A 
ATOM     30  C   UNL     1      -3.741   2.361  23.873  0.00  0.00    -0.003 A 
ATOM     31  C   UNL     1      -3.243   2.599  23.259  0.00  0.00    -0.000 A 
ATOM     32  C   UNL     1      -2.787   2.041  22.858  0.00  0.00    -0.000 A 
ATOM     33  C   UNL     1      -2.829   1.245  23.070  0.00  0.00    -0.000 A 
BRANCH  22  23
ATOM     23  C   UNL     1      -4.281   1.326  24.698  0.00  0.00    +0.099 C 
BRANCH  23  24
ATOM     24  N   UNL     1      -4.780   1.874  25.060  0.00  0.00    -0.265 NA
ATOM     25  C   UNL     1      -5.586   1.880  24.880  0.00  0.00    +0.105 C 
ATOM     26  C   UNL     1      -6.085   2.428  25.241  0.00  0.00    +0.159 C 
ATOM     27  O   UNL     1      -5.780   2.969  25.784  0.00  0.00    -0.351 OA
ATOM     28  C   UNL     1      -4.975   2.964  25.964  0.00  0.00    +0.159 C 
ATOM     29  C   UNL     1      -4.475   2.416  25.602  0.00  0.00    +0.105 C 
ENDBRANCH  23  24
ENDBRANCH  22  23
ENDBRANCH  20  21
TORSDOF 4
ENDMDL
MODEL 2
REMARK VINA RESULT:     -14.2      0.834      4.384
REMARK  Name = 
REMARK  4 active torsions:
REMARK  status: ('A' for Active; 'I' for Inactive)
REMARK    1  A    between atoms: N_9  and  C_11
REMARK    2  A    between atoms: C_20  and  C_21
REMARK    3  A    between atoms: C_22  and  C_23
REMARK    4  A    between atoms: C_23  and  N_24
REMARK                            x       y       z     vdW  Elec       q    Type
REMARK                         _______ _______ _______ _____ _____    ______ ____
ROOT
ATOM      1  O   UNL     1      -4.710   0.722  24.946  0.00  0.00    -0.267 OA
ATOM      2  C   UNL     1      -4.179   1.013  24.385  0.00  0.00    +0.261 A 
ATOM      3  N   UNL     1      -4.153   1.821  24.222  0.00  0.00    -0.299 N 
ATOM      4  C   UNL     1      -3.567   1.518  23.709  0.00  0.00    +0.110 C 
ATOM      5  C   UNL     1      -3.271   2.358  23.281  0.00  0.00    +0.039 C 
ATOM      6  C   UNL     1      -2.920   2.948  22.842  0.00  0.00    +0.011 C 
ATOM      7  C   UNL     1      -3.419   2.893  23.333  0.00  0.00    +0.054 C 
ATOM      8  C   UNL     1      -4.012   3.400  23.818  0.00  0.00    +0.078 C 
ATOM      9  N   UNL     1      -4.360   2.809  24.253  0.00  0.00    -0.273 NA
ATOM     10  C   UNL     1      -3.894   2.879  23.792  0.00  0.00    +0.074 C 
ATOM     17  C   UNL     1      -3.623   2.112  23.661  0.00  0.00    +0.041 A 
ATOM     18  C   UNL     1      -3.118   1.594  23.264  0.00  0.00    +0.013 A 
ATOM     19  C   UNL     1      -3.144   0.787  23.426  0.00  0.00    +0.006 A 
ATOM     20  C   UNL     1      -3.675   0.496  23.987  0.00  0.00    +0.056 A 
ENDROOT
BRANCH   9  11
ATOM     11  C   UNL     1      -4.858   2.441  24.797  0.00  0.00    +0.063 C 
ATOM     12  C   UNL     1      -5.590   2.147  24.553  0.00  0.00    +0.048 C 
ATOM     13  C   UNL     1      -6.089   1.779  25.098  0.00  0.00    +0.144 C 
ATOM     14  O   UNL     1      -5.856   1.704  25.886  0.00  0.00    -0.354 OA
ATOM     15  C   UNL     1      -5.124   1.997  26.129  0.00  0.00    +0.144 C 
ATOM     16  C   UNL     1      -4.626   2.366  25.585  0.00  0.00    +0.048 C 
ENDBRANCH   9  11
BRANCH  20  21
ATOM     21  C   UNL     1      -3.701  -0.313  24.150  0.00  0.00    +0.002 A 
ATOM     22  C   UNL     1      -3.073  -0.675  24.546  0.00  0.00    -0.006 A 
ATOM     30  C   UNL     1      -3.100  -1.483  24.709  0.00  0.00    -0.003 A 
ATOM     31  C   UNL     1      -3.753  -1.930  24.476  0.00  0.00    -0.000 A 
ATOM     32  C   UNL     1      -4.380  -1.568  24.080  0.00  0.00    -0.000 A 
ATOM     33  C   UNL     1      -4.354  -0.760  23.917  0.00  0.00    -0.000 A 
BRANCH  22  23
ATOM     23  C   UNL     1      -2.420  -0.228  24.778  0.00  0.00    +0.099 C 
BRANCH  23  24
ATOM     24  N   UNL     1      -1.763  -0.600  25.108  0.00  0.00    -0.265 NA
ATOM     25  C   UNL     1      -1.191  -0.938  24.618  0.00  0.00    +0.105 C 
ATOM     26  C   UNL     1      -0.533  -1.311  24.948  0.00  0.00    +0.159 C 
ATOM     27  O   UNL     1      -0.446  -1.345  25.768  0.00  0.00    -0.351 OA
ATOM     28  C   UNL     1      -1.017  -1.007  26.258  0.00  0.00    +0.159 C 
ATOM     29  C   UNL     1      -1.676  -0.634  25.928  0.00  0.00    +0.105 C 
ENDBRANCH  23  24
ENDBRANCH  22  23
ENDBRANCH  20  21
TORSDOF 4
ENDMDL
MODEL 3
REMARK VINA RESULT:     -13.4      1.832      4.231
REMARK  Name = 
REMARK  4 active torsions:
REMARK  status: ('A' for Active; 'I' for Inactive)
REMARK    1  A    between atoms: N_9  and  C_11
REMARK    2  A    between atoms: C_20  and  C_21
REMARK    3  A    between atoms: C_22  and  C_23
REMARK    4  A    between atoms: C_23  and  N_24
REMARK                            x       y       z     vdW  Elec       q    Type
REMARK                         _______ _______ _______ _____ _____    ______ ____
ROOT
ATOM      1  O   UNL     1      -1.880   2.840  24.374  0.00  0.00    -0.267 OA
ATOM      2  C   UNL     1      -2.684   2.918  24.545  0.00  0.00    +0.261 A 
ATOM      3  N   UNL     1      -2.928   3.388  25.177  0.00  0.00    -0.299 N 
ATOM      4  C   UNL     1      -3.654   3.107  24.875  0.00  0.00    +0.110 C 
ATOM      5  C   UNL     1      -4.277   3.548  25.503  0.00  0.00    +0.039 C 
ATOM      6  C   UNL     1      -4.910   3.833  25.929  0.00  0.00    +0.011 C 
ATOM      7  C   UNL     1      -4.210   3.888  25.940  0.00  0.00    +0.054 C 
ATOM      8  C   UNL     1      -3.526   4.290  26.403  0.00  0.00    +0.078 C 
ATOM      9  N   UNL     1      -2.897   4.004  25.976  0.00  0.00    -0.273 NA
ATOM     10  C   UNL     1      -3.555   3.964  25.981  0.00  0.00    +0.074 C 
ATOM     17  C   UNL     1      -3.730   3.465  25.348  0.00  0.00    +0.041 A 
ATOM     18  C   UNL     1      -4.290   3.073  24.886  0.00  0.00    +0.013 A 
ATOM     19  C   UNL     1      -4.047   2.603  24.254  0.00  0.00    +0.006 A 
ATOM     20  C   UNL     1      -3.243   2.525  24.083  0.00  0.00    +0.056 A 
ENDROOT
BRANCH   9  11
ATOM     11  C   UNL     1      -2.117   3.876  25.741  0.00  0.00    +0.063 C 
ATOM     12  C   UNL     1      -1.692   3.239  26.050  0.00  0.00    +0.048 C 
ATOM     13  C   UNL     1      -0.912   3.111  25.814  0.00  0.00    +0.144 C 
ATOM     14  O   UNL     1      -0.556   3.619  25.270  0.00  0.00    -0.354 OA
ATOM     15  C   UNL     1      -0.982   4.256  24.961  0.00  0.00    +0.144 C 
ATOM     16  C   UNL     1      -1.762   4.384  25.197  0.00  0.00    +0.048 C 
ENDBRANCH   9  11
BRANCH  20  21
ATOM     21  C   UNL     1      -3.000   2.055  23.450  0.00  0.00    +0.002 A 
ATOM     22  C   UNL     1      -3.019   1.232  23.516  0.00  0.00    -0.006 A 
ATOM     30  C   UNL     1      -2.776   0.762  22.883  0.00  0.00    -0.003 A 
ATOM     31  C   UNL     1      -2.512   1.115  22.185  0.00  0.00    -0.000 A 
ATOM     32  C   UNL     1      -2.493   1.937  22.119  0.00  0.00    -0.000 A 
ATOM     33  C   UNL     1      -2.737   2.407  22.752  0.00  0.00    -0.000 A 
BRANCH  22  23
ATOM     23  C   UNL     1      -3.283   0.881  24.214  0.00  0.00    +0.099 C 
BRANCH  23  24
ATOM     24  N   UNL     1      -3.286   0.059  24.286  0.00  0.00    -0.265 NA
ATOM     25  C   UNL     1      -2.626  -0.332  24.589  0.00  0.00    +0.105 C 
ATOM     26  C   UNL     1      -2.630  -1.154  24.660  0.00  0.00    +0.159 C 
ATOM     27  O   UNL     1      -3.294  -1.585  24.429  0.00  0.00    -0.351 OA
ATOM     28  C   UNL     1      -3.955  -1.194  24.126  0.00  0.00    +0.159 C 
ATOM     29  C   UNL     1      -3.951  -0.372  24.055  0.00  0.00    +0.105 C 
ENDBRANCH  23  24
ENDBRANCH  22  23
ENDBRANCH  20  21
TORSDOF 4
ENDMDL
MODEL 4
REMARK VINA RESULT:     -13.4      1.362      4.170
REMARK  Name = 
REMARK  4 active torsions:
REMARK  status: ('A' for Active; 'I' for Inactive)
REMARK    1  A    between atoms: N_9  and  C_11
REMARK    2  A    between atoms: C_20  and  C_21
REMARK    3  A    between atoms: C_22  and  C_23
REMARK    4  A    between atoms: C_23  and  N_24
REMARK                            x       y       z     vdW  Elec       q    Type
REMARK                         _______ _______ _______ _____ _____    ______ ____
ROOT
ATOM      1  O   UNL     1      -2.948   2.936  24.634  0.00  0.00    -0.267 OA
ATOM      2  C   UNL     1      -3.603   2.434  24.648  0.00  0.00    +0.261 A 
ATOM      3  N   UNL     1      -4.270   2.638  25.088  0.00  0.00    -0.299 N 
ATOM      4  C   UNL     1      -4.493   1.904  24.757  0.00  0.00    +0.110 C 
ATOM      5  C   UNL     1      -5.400   1.819  25.140  0.00  0.00    +0.039 C 
ATOM      6  C   UNL     1      -6.151   1.603  25.369  0.00  0.00    +0.011 C 
ATOM      7  C   UNL     1      -5.710   2.138  25.477  0.00  0.00    +0.054 C 
ATOM      8  C   UNL     1      -5.643   2.938  25.923  0.00  0.00    +0.078 C 
ATOM      9  N   UNL     1      -4.894   3.151  25.693  0.00  0.00    -0.273 NA
ATOM     10  C   UNL     1      -5.321   2.657  25.602  0.00  0.00    +0.074 C 
ATOM     17  C   UNL     1      -4.924   2.137  25.102  0.00  0.00    +0.041 A 
ATOM     18  C   UNL     1      -4.912   1.431  24.675  0.00  0.00    +0.013 A 
ATOM     19  C   UNL     1      -4.245   1.227  24.235  0.00  0.00    +0.006 A 
ATOM     20  C   UNL     1      -3.590   1.728  24.221  0.00  0.00    +0.056 A 
ENDROOT
BRANCH   9  11
ATOM     11  C   UNL     1      -4.203   3.595  25.628  0.00  0.00    +0.063 C 
ATOM     12  C   UNL     1      -4.110   4.127  25.003  0.00  0.00    +0.048 C 
ATOM     13  C   UNL     1      -3.418   4.571  24.938  0.00  0.00    +0.144 C 
ATOM     14  O   UNL     1      -2.818   4.484  25.498  0.00  0.00    -0.354 OA
ATOM     15  C   UNL     1      -2.911   3.953  26.123  0.00  0.00    +0.144 C 
ATOM     16  C   UNL     1      -3.603   3.509  26.187  0.00  0.00    +0.048 C 
ENDBRANCH   9  11
BRANCH  20  21
ATOM     21  C   UNL     1      -2.923   1.524  23.780  0.00  0.00    +0.002 A 
ATOM     22  C   UNL     1      -2.416   0.931  24.050  0.00  0.00    -0.006 A 
ATOM     30  C   UNL     1      -1.749   0.726  23.610  0.00  0.00    -0.003 A 
ATOM     31  C   UNL     1      -1.589   1.115  22.899  0.00  0.00    -0.000 A 
ATOM     32  C   UNL     1      -2.095   1.708  22.630  0.00  0.00    -0.000 A 
ATOM     33  C   UNL     1      -2.763   1.912  23.070  0.00  0.00    -0.000 A 
BRANCH  22  23
ATOM     23  C   UNL     1      -2.577   0.542  24.760  0.00  0.00    +0.099 C 
BRANCH  23  24
ATOM     24  N   UNL     1      -2.077  -0.058  25.023  0.00  0.00    -0.265 NA
ATOM     25  C   UNL     1      -1.444   0.121  25.522  0.00  0.00    +0.105 C 
ATOM     26  C   UNL     1      -0.944  -0.480  25.785  0.00  0.00    +0.159 C 
ATOM     27  O   UNL     1      -1.077  -1.260  25.551  0.00  0.00    -0.351 OA
ATOM     28  C   UNL     1      -1.709  -1.439  25.052  0.00  0.00    +0.159 C 
ATOM     29  C   UNL     1      -2.210  -0.838  24.789  0.00  0.00    +0.105 C 
ENDBRANCH  23  24
ENDBRANCH  22  23
ENDBRANCH  20  21
TORSDOF 4
ENDMDL
MODEL 5
REMARK VINA RESULT:     -13.1      1.710      3.544
REMARK  Name = 
REMARK  4 active torsions:
REMARK  status: ('A' for Active; 'I' for Inactive)
REMARK    1  A    between atoms: N_9  and  C_11
REMARK    2  A    between atoms: C_20  and  C_21
REMARK    3  A    between atoms: C_22  and  C_23
REMARK    4  A    between atoms: C_23  and  N_24
REMARK                            x       y       z     vdW  Elec       q    Type
REMARK                         _______ _______ _______ _____ _____    ______ ____
ROOT
ATOM      1  O   UNL     1      -3.290   0.549  24.160  0.00  0.00    -0.267 OA
ATOM      2  C   UNL     1      -3.710   1.238  24.334  0.00  0.00    +0.261 A 
ATOM      3  N   UNL     1      -4.412   1.196  24.766  0.00  0.00    -0.299 N 
ATOM      4  C   UNL     1      -4.339   2.016  24.626  0.00  0.00    +0.110 C 
ATOM      5  C   UNL     1      -5.155   2.335  25.083  0.00  0.00    +0.039 C 
ATOM      6  C   UNL     1      -5.774   2.751  25.411  0.00  0.00    +0.011 C 
ATOM      7  C   UNL     1      -5.566   2.083  25.363  0.00  0.00    +0.054 C 
ATOM      8  C   UNL     1      -5.811   1.232  25.611  0.00  0.00    +0.078 C 
ATOM      9  N   UNL     1      -5.193   0.820  25.284  0.00  0.00    -0.273 NA
ATOM     10  C   UNL     1      -5.403   1.443  25.338  0.00  0.00    +0.074 C 
ATOM     17  C   UNL     1      -4.831   1.884  24.940  0.00  0.00    +0.041 A 
ATOM     18  C   UNL     1      -4.549   2.615  24.683  0.00  0.00    +0.013 A 
ATOM     19  C   UNL     1      -3.848   2.658  24.252  0.00  0.00    +0.006 A 
ATOM     20  C   UNL     1      -3.428   1.969  24.077  0.00  0.00    +0.056 A 
ENDROOT
BRANCH   9  11
ATOM     11  C   UNL     1      -4.717   0.182  25.069  0.00  0.00    +0.063 C 
ATOM     12  C   UNL     1      -4.828  -0.190  24.342  0.00  0.00    +0.048 C 
ATOM     13  C   UNL     1      -4.352  -0.829  24.128  0.00  0.00    +0.144 C 
ATOM     14  O   UNL     1      -3.764  -1.095  24.641  0.00  0.00    -0.354 OA
ATOM     15  C   UNL     1      -3.652  -0.723  25.369  0.00  0.00    +0.144 C 
ATOM     16  C   UNL     1      -4.129  -0.084  25.583  0.00  0.00    +0.048 C 
ENDBRANCH   9  11
BRANCH  20  21
ATOM     21  C   UNL     1      -2.726   2.012  23.646  0.00  0.00    +0.002 A 
ATOM     22  C   UNL     1      -2.023   2.230  24.021  0.00  0.00    -0.006 A 
ATOM     30  C   UNL     1      -1.321   2.273  23.590  0.00  0.00    -0.003 A 
ATOM     31  C   UNL     1      -1.321   2.098  22.783  0.00  0.00    -0.000 A 
ATOM     32  C   UNL     1      -2.023   1.880  22.409  0.00  0.00    -0.000 A 
ATOM     33  C   UNL     1      -2.725   1.837  22.840  0.00  0.00    -0.000 A 
BRANCH  22  23
ATOM     23  C   UNL     1      -2.024   2.405  24.827  0.00  0.00    +0.099 C 
BRANCH  23  24
ATOM     24  N   UNL     1      -1.315   2.575  25.213  0.00  0.00    -0.265 NA
ATOM     25  C   UNL     1      -1.029   3.349  25.230  0.00  0.00    +0.105 C 
ATOM     26  C   UNL     1      -0.320   3.519  25.615  0.00  0.00    +0.159 C 
ATOM     27  O   UNL     1       0.104   2.915  25.983  0.00  0.00    -0.351 OA
ATOM     28  C   UNL     1      -0.180   2.141  25.966  0.00  0.00    +0.159 C 
ATOM     29  C   UNL     1      -0.890   1.971  25.581  0.00  0.00    +0.105 C 
ENDBRANCH  23  24
ENDBRANCH  22  23
ENDBRANCH  20  21
TORSDOF 4
ENDMDL
MODEL 6
REMARK VINA RESULT:     -12.8      1.094      4.139
REMARK  Name = 
REMARK  4 active torsions:
REMARK  status: ('A' for Active; 'I' for Inactive)
REMARK    1  A    between atoms: N_9  and  C_11
REMARK    2  A    between atoms: C_20  and  C_21
REMARK    3  A    between atoms: C_22  and  C_23
REMARK    4  A    between atoms: C_23  and  N_24
REMARK                            x       y       z     vdW  Elec       q    Type
REMARK                         _______ _______ _______ _____ _____    ______ ____
ROOT
ATOM      1  O   UNL     1      -3.236   0.878  23.457  0.00  0.00    -0.267 OA
ATOM      2  C   UNL     1      -3.736   1.088  24.079  0.00  0.00    +0.261 A 
ATOM      3  N   UNL     1      -3.884   1.883  24.239  0.00  0.00    -0.299 N 
ATOM      4  C   UNL     1      -4.338   1.497  24.824  0.00  0.00    +0.110 C 
ATOM      5  C   UNL     1      -4.723   2.285  25.281  0.00  0.00    +0.039 C 
ATOM      6  C   UNL     1      -5.115   2.817  25.757  0.00  0.00    +0.011 C 
ATOM      7  C   UNL     1      -4.678   2.836  25.207  0.00  0.00    +0.054 C 
ATOM      8  C   UNL     1      -4.249   3.424  24.647  0.00  0.00    +0.078 C 
ATOM      9  N   UNL     1      -3.859   2.890  24.175  0.00  0.00    -0.273 NA
ATOM     10  C   UNL     1      -4.270   2.892  24.691  0.00  0.00    +0.074 C 
ATOM     17  C   UNL     1      -4.383   2.093  24.860  0.00  0.00    +0.041 A 
ATOM     18  C   UNL     1      -4.735   1.508  25.322  0.00  0.00    +0.013 A 
ATOM     19  C   UNL     1      -4.587   0.712  25.163  0.00  0.00    +0.006 A 
ATOM     20  C   UNL     1      -4.088   0.502  24.541  0.00  0.00    +0.056 A 
ENDROOT
BRANCH   9  11
ATOM     11  C   UNL     1      -3.375   2.599  23.575  0.00  0.00    +0.063 C 
ATOM     12  C   UNL     1      -3.696   2.415  22.838  0.00  0.00    +0.048 C 
ATOM     13  C   UNL     1      -3.210   2.123  22.238  0.00  0.00    +0.144 C 
ATOM     14  O   UNL     1      -2.403   2.017  22.375  0.00  0.00    -0.354 OA
ATOM     15  C   UNL     1      -2.083   2.202  23.112  0.00  0.00    +0.144 C 
ATOM     16  C   UNL     1      -2.568   2.493  23.712  0.00  0.00    +0.048 C 
ENDBRANCH   9  11
BRANCH  20  21
ATOM     21  C   UNL     1      -3.940  -0.294  24.381  0.00  0.00    +0.002 A 
ATOM     22  C   UNL     1      -3.300  -0.674  24.738  0.00  0.00    -0.006 A 
ATOM     30  C   UNL     1      -3.152  -1.470  24.579  0.00  0.00    -0.003 A 
ATOM     31  C   UNL     1      -3.644  -1.886  24.062  0.00  0.00    -0.000 A 
ATOM     32  C   UNL     1      -4.283  -1.505  23.705  0.00  0.00    -0.000 A 
ATOM     33  C   UNL     1      -4.431  -0.709  23.865  0.00  0.00    -0.000 A 
BRANCH  22  23
ATOM     23  C   UNL     1      -2.809  -0.259  25.255  0.00  0.00    +0.099 C 
BRANCH  23  24
ATOM     24  N   UNL     1      -2.095  -0.590  25.500  0.00  0.00    -0.265 NA
ATOM     25  C   UNL     1      -1.443  -0.589  24.993  0.00  0.00    +0.105 C 
ATOM     26  C   UNL     1      -0.729  -0.921  25.239  0.00  0.00    +0.159 C 
ATOM     27  O   UNL     1      -0.666  -1.253  25.992  0.00  0.00    -0.351 OA
ATOM     28  C   UNL     1      -1.316  -1.254  26.499  0.00  0.00    +0.159 C 
ATOM     29  C   UNL     1      -2.031  -0.922  26.253  0.00  0.00    +0.105 C 
ENDBRANCH  23  24
ENDBRANCH  22  23
ENDBRANCH  20  21
TORSDOF 4
ENDMDL
MODEL 7
REMARK VINA RESULT:     -12.7      1.600      2.564
REMARK  Name = 
REMARK  4 active torsions:
REMARK  status: ('A' for Active; 'I' for Inactive)
REMARK    1  A    between atoms: N_9  and  C_11
REMARK    2  A    between atoms: C_20  and  C_21
REMARK    3  A    between atoms: C_22  and  C_23
REMARK    4  A    between atoms: C_23  and  N_24
REMARK                            x       y       z     vdW  Elec       q    Type
REMARK                         _______ _______ _______ _____ _____    ______ ____
ROOT
ATOM      1  O   UNL     1      -3.368   0.351  24.275  0.00  0.00    -0.267 OA
ATOM      2  C   UNL     1      -2.543   0.365  24.235  0.00  0.00    +0.261 A 
ATOM      3  N   UNL     1      -2.105  -0.272  24.523  0.00  0.00    -0.299 N 
ATOM      4  C   UNL     1      -1.508   0.245  24.250  0.00  0.00    +0.110 C 
ATOM      5  C   UNL     1      -0.710  -0.291  24.475  0.00  0.00    +0.039 C 
ATOM      6  C   UNL     1       0.034  -0.602  24.594  0.00  0.00    +0.011 C 
ATOM      7  C   UNL     1      -0.632  -0.790  24.712  0.00  0.00    +0.054 C 
ATOM      8  C   UNL     1      -1.137  -1.474  25.062  0.00  0.00    +0.078 C 
ATOM      9  N   UNL     1      -1.876  -1.161  24.942  0.00  0.00    -0.273 NA
ATOM     10  C   UNL     1      -1.245  -1.000  24.839  0.00  0.00    +0.074 C 
ATOM     17  C   UNL     1      -1.282  -0.258  24.483  0.00  0.00    +0.041 A 
ATOM     18  C   UNL     1      -0.897   0.392  24.154  0.00  0.00    +0.013 A 
ATOM     19  C   UNL     1      -1.334   1.029  23.865  0.00  0.00    +0.006 A 
ATOM     20  C   UNL     1      -2.158   1.015  23.905  0.00  0.00    +0.056 A 
ENDROOT
BRANCH   9  11
ATOM     11  C   UNL     1      -2.698  -1.098  24.946  0.00  0.00    +0.063 C 
ATOM     12  C   UNL     1      -3.084  -0.761  25.592  0.00  0.00    +0.048 C 
ATOM     13  C   UNL     1      -3.907  -0.698  25.595  0.00  0.00    +0.144 C 
ATOM     14  O   UNL     1      -4.344  -0.972  24.951  0.00  0.00    -0.354 OA
ATOM     15  C   UNL     1      -3.958  -1.310  24.305  0.00  0.00    +0.144 C 
ATOM     16  C   UNL     1      -3.135  -1.372  24.302  0.00  0.00    +0.048 C 
ENDBRANCH   9  11
BRANCH  20  21
ATOM     21  C   UNL     1      -2.596   1.652  23.617  0.00  0.00    +0.002 A 
ATOM     22  C   UNL     1      -2.632   2.356  24.046  0.00  0.00    -0.006 A 
ATOM     30  C   UNL     1      -3.070   2.993  23.758  0.00  0.00    -0.003 A 
ATOM     31  C   UNL     1      -3.472   2.926  23.039  0.00  0.00    -0.000 A 
ATOM     32  C   UNL     1      -3.435   2.223  22.610  0.00  0.00    -0.000 A 
ATOM     33  C   UNL     1      -2.997   1.586  22.899  0.00  0.00    -0.000 A 
BRANCH  22  23
ATOM     23  C   UNL     1      -2.231   2.423  24.764  0.00  0.00    +0.099 C 
BRANCH  23  24
ATOM     24  N   UNL     1      -2.230   3.140  25.170  0.00  0.00    -0.265 NA
ATOM     25  C   UNL     1      -1.639   3.698  25.023  0.00  0.00    +0.105 C 
ATOM     26  C   UNL     1      -1.638   4.415  25.429  0.00  0.00    +0.159 C 
ATOM     27  O   UNL     1      -2.227   4.576  25.983  0.00  0.00    -0.351 OA
ATOM     28  C   UNL     1      -2.818   4.020  26.132  0.00  0.00    +0.159 C 
ATOM     29  C   UNL     1      -2.819   3.301  25.725  0.00  0.00    +0.105 C 
ENDBRANCH  23  24
ENDBRANCH  22  23
ENDBRANCH  20  21
TORSDOF 4
ENDMDL
MODEL 8
REMARK VINA RESULT:     -12.3      1.996      4.906
REMARK  Name = 
REMARK  4 active torsions:
REMARK  status: ('A' for Active; 'I' for Inactive)
REMARK    1  A    between atoms: N_9  and  C_11
REMARK    2  A    between atoms: C_20  and  C_21
REMARK    3  A    between atoms: C_22  and  C_23
REMARK    4  A    between atoms: C_23  and  N_24
REMARK                            x       y       z     vdW  Elec       q    Type
REMARK                         _______ _______ _______ _____ _____    ______ ____
ROOT
ATOM      1  O   UNL     1      -3.491   2.528  24.897  0.00  0.00    -0.267 OA
ATOM      2  C   UNL     1      -2.705   2.706  24.717  0.00  0.00    +0.261 A 
ATOM      3  N   UNL     1      -2.376   3.420  24.968  0.00  0.00    -0.299 N 
ATOM      4  C   UNL     1      -1.738   3.063  24.564  0.00  0.00    +0.110 C 
ATOM      5  C   UNL     1      -1.052   3.764  24.686  0.00  0.00    +0.039 C 
ATOM      6  C   UNL     1      -0.388   4.236  24.697  0.00  0.00    +0.011 C 
ATOM      7  C   UNL     1      -1.047   4.261  24.938  0.00  0.00    +0.054 C 
ATOM      8  C   UNL     1      -1.620   4.800  25.413  0.00  0.00    +0.078 C 
ATOM      9  N   UNL     1      -2.281   4.328  25.399  0.00  0.00    -0.273 NA
ATOM     10  C   UNL     1      -1.659   4.320  25.180  0.00  0.00    +0.074 C 
ATOM     17  C   UNL     1      -1.592   3.599  24.788  0.00  0.00    +0.041 A 
ATOM     18  C   UNL     1      -1.136   3.064  24.356  0.00  0.00    +0.013 A 
ATOM     19  C   UNL     1      -1.464   2.351  24.105  0.00  0.00    +0.006 A 
ATOM     20  C   UNL     1      -2.249   2.172  24.285  0.00  0.00    +0.056 A 
ENDROOT
BRANCH   9  11
ATOM     11  C   UNL     1      -3.053   4.076  25.538  0.00  0.00    +0.063 C 
ATOM     12  C   UNL     1      -3.646   4.236  24.986  0.00  0.00    +0.048 C 
ATOM     13  C   UNL     1      -4.418   3.984  25.126  0.00  0.00    +0.144 C 
ATOM     14  O   UNL     1      -4.599   3.570  25.816  0.00  0.00    -0.354 OA
ATOM     15  C   UNL     1      -4.007   3.409  26.368  0.00  0.00    +0.144 C 
ATOM     16  C   UNL     1      -3.234   3.662  26.228  0.00  0.00    +0.048 C 
ENDBRANCH   9  11
BRANCH  20  21
ATOM     21  C   UNL     1      -2.578   1.458  24.034  0.00  0.00    +0.002 A 
ATOM     22  C   UNL     1      -2.306   0.745  24.348  0.00  0.00    -0.006 A 
ATOM     30  C   UNL     1      -2.634   0.031  24.097  0.00  0.00    -0.003 A 
ATOM     31  C   UNL     1      -3.236   0.030  23.531  0.00  0.00    -0.000 A 
ATOM     32  C   UNL     1      -3.508   0.743  23.217  0.00  0.00    -0.000 A 
ATOM     33  C   UNL     1      -3.179   1.456  23.469  0.00  0.00    -0.000 A 
BRANCH  22  23
ATOM     23  C   UNL     1      -1.705   0.746  24.913  0.00  0.00    +0.099 C 
BRANCH  23  24
ATOM     24  N   UNL     1      -1.377   0.034  25.167  0.00  0.00    -0.265 NA
ATOM     25  C   UNL     1      -1.653  -0.326  25.857  0.00  0.00    +0.105 C 
ATOM     26  C   UNL     1      -1.324  -1.038  26.112  0.00  0.00    +0.159 C 
ATOM     27  O   UNL     1      -0.720  -1.392  25.676  0.00  0.00    -0.351 OA
ATOM     28  C   UNL     1      -0.443  -1.034  24.986  0.00  0.00    +0.159 C 
ATOM     29  C   UNL     1      -0.772  -0.321  24.732  0.00  0.00    +0.105 C 
ENDBRANCH  23  24
ENDBRANCH  22  23
ENDBRANCH  20  21
TORSDOF 4
ENDMDL
