MODEL 1
REMARK VINA RESULT:      -6.7      0.000      0.000
REMARK  Name = 
REMARK  8 active torsions:
REMARK  status: ('A' for Active; 'I' for Inactive)
REMARK    1  A    between atoms: O_2  and  C_3
REMARK    2  A    between atoms: C_6  and  C_9
REMARK    3  A    between atoms: N_14  and  C_15
REMARK    4  A    between atoms: C_19  and  O_23
REMARK    5  A    between atoms: O_23  and  C_24
REMARK    6  A    between atoms: N_26  and  C_27
REMARK    7  A    between atoms: C_30  and  O_31
REMARK    8  A    between atoms: O_31  and  C_32
REMARK                            x       y       z     vdW  Elec       q    Type
REMARK                         _______ _______ _______ _____ _____    ______ ____
ROOT
ATOM     15  C   UNL     1       0.000  -1.122  24.188  0.00  0.00    +0.155 C 
ATOM     16  C   UNL     1      -0.462  -1.263  23.520  0.00  0.00    +0.166 C 
ATOM     17  O   UNL     1      -1.248  -1.323  23.763  0.00  0.00    -0.348 OA
ATOM     18  C   UNL     1      -1.272  -1.219  24.580  0.00  0.00    +0.186 C 
ATOM     19  C   UNL     1      -1.771  -1.191  25.236  0.00  0.00    +0.229 C 
ATOM     20  C   UNL     1      -1.308  -1.050  25.904  0.00  0.00    +0.188 C 
ATOM     21  O   UNL     1      -0.523  -0.991  25.662  0.00  0.00    -0.348 OA
ATOM     22  C   UNL     1      -0.500  -1.095  24.843  0.00  0.00    +0.168 C 
ENDROOT
BRANCH  15  14
ATOM      9  C   UNL     1       2.386  -0.081  23.007  0.00  0.00    +0.086 A 
ATOM     10  C   UNL     1       1.940   0.247  22.395  0.00  0.00    +0.040 A 
ATOM     11  C   UNL     1       1.120   0.150  22.385  0.00  0.00    +0.103 A 
ATOM     12  N   UNL     1       0.747  -0.274  22.986  0.00  0.00    -0.211 NA
ATOM     13  C   UNL     1       1.194  -0.602  23.598  0.00  0.00    +0.237 A 
ATOM     14  N   UNL     1       0.820  -1.026  24.199  0.00  0.00    -0.200 NA
ATOM     40  N   UNL     1       2.012  -0.505  23.608  0.00  0.00    -0.212 NA
BRANCH   9   6
ATOM      3  C   UNL     1       4.844   0.208  23.039  0.00  0.00    +0.139 A 
ATOM      4  C   UNL     1       4.357   0.833  22.804  0.00  0.00    +0.037 A 
ATOM      5  C   UNL     1       3.539   0.736  22.794  0.00  0.00    +0.005 A 
ATOM      6  C   UNL     1       3.205   0.016  23.018  0.00  0.00    +0.018 A 
ATOM      7  C   UNL     1       3.690  -0.608  23.252  0.00  0.00    +0.005 A 
ATOM      8  C   UNL     1       4.510  -0.512  23.263  0.00  0.00    +0.037 A 
BRANCH   3   2
ATOM      1  C   UNL     1       6.088   0.146  23.738  0.00  0.00    +0.252 C 
ATOM      2  O   UNL     1       5.663   0.305  23.049  0.00  0.00    -0.471 OA
ENDBRANCH   3   2
ENDBRANCH   9   6
ENDBRANCH  15  14
BRANCH  19  23
ATOM     23  O   UNL     1      -2.591  -1.288  25.226  0.00  0.00    -0.432 OA
BRANCH  23  24
ATOM     24  C   UNL     1      -3.084  -0.627  25.243  0.00  0.00    +0.425 C 
ATOM     25  O   UNL     1      -2.963  -0.036  25.806  0.00  0.00    -0.224 OA
ATOM     26  N   UNL     1      -3.699  -0.556  24.699  0.00  0.00    -0.142 NA
BRANCH  26  27
ATOM     27  C   UNL     1      -4.193   0.105  24.717  0.00  0.00    +0.077 A 
ATOM     28  C   UNL     1      -4.771   0.172  25.300  0.00  0.00    +0.020 A 
ATOM     29  C   UNL     1      -5.265   0.832  25.318  0.00  0.00    +0.039 A 
ATOM     30  C   UNL     1      -5.180   1.426  24.751  0.00  0.00    +0.145 A 
ATOM     38  C   UNL     1      -4.602   1.359  24.166  0.00  0.00    +0.039 A 
ATOM     39  C   UNL     1      -4.108   0.698  24.150  0.00  0.00    +0.020 A 
BRANCH  30  31
ATOM     31  O   UNL     1      -5.673   2.087  24.768  0.00  0.00    -0.453 OA
BRANCH  31  32
ATOM     32  C   UNL     1      -5.397   2.799  25.080  0.00  0.00    +0.145 A 
ATOM     33  C   UNL     1      -5.619   3.029  25.841  0.00  0.00    +0.037 A 
ATOM     34  C   UNL     1      -5.343   3.742  26.153  0.00  0.00    +0.003 A 
ATOM     35  C   UNL     1      -4.846   4.223  25.704  0.00  0.00    +0.000 A 
ATOM     36  C   UNL     1      -4.624   3.993  24.944  0.00  0.00    +0.003 A 
ATOM     37  C   UNL     1      -4.900   3.281  24.632  0.00  0.00    +0.037 A 
ENDBRANCH  31  32
ENDBRANCH  30  31
ENDBRANCH  26  27
ENDBRANCH  23  24
ENDBRANCH  19  23
TORSDOF 8
ENDMDL
MODEL 2
REMARK VINA RESULT:      -6.5      1.399      8.167
REMARK  Name = 
REMARK  8 active torsions:
REMARK  status: ('A' for Active; 'I' for Inactive)
REMARK    1  A    between atoms: O_2  and  C_3
REMARK    2  A    between atoms: C_6  and  C_9
REMARK    3  A    between atoms: N_14  and  C_15
REMARK    4  A    between atoms: C_19  and  O_23
REMARK    5  A    between atoms: O_23  and  C_24
REMARK    6  A    between atoms: N_26  and  C_27
REMARK    7  A    between atoms: C_30  and  O_31
REMARK    8  A    between atoms: O_31  and  C_32
REMARK                            x       y       z     vdW  Elec       q    Type
REMARK                         _______ _______ _______ _____ _____    ______ ____
ROOT
ATOM     15  C   UNL     1      -1.787   0.846  24.689  0.00  0.00    +0.155 C 
ATOM     16  C   UNL     1      -1.783   0.073  24.976  0.00  0.00    +0.166 C 
ATOM     17  O   UNL     1      -1.198  -0.346  24.572  0.00  0.00    -0.348 OA
ATOM     18  C   UNL     1      -0.841   0.168  24.035  0.00  0.00    +0.186 C 
ATOM     19  C   UNL     1      -0.260   0.228  23.453  0.00  0.00    +0.229 C 
ATOM     20  C   UNL     1      -0.264   1.001  23.166  0.00  0.00    +0.188 C 
ATOM     21  O   UNL     1      -0.848   1.419  23.570  0.00  0.00    -0.348 OA
ATOM     22  C   UNL     1      -1.205   0.904  24.107  0.00  0.00    +0.168 C 
ENDROOT
BRANCH  15  14
ATOM      9  C   UNL     1      -4.413   1.943  24.952  0.00  0.00    +0.086 A 
ATOM     10  C   UNL     1      -4.729   1.276  24.583  0.00  0.00    +0.040 A 
ATOM     11  C   UNL     1      -4.230   0.668  24.332  0.00  0.00    +0.103 A 
ATOM     12  N   UNL     1      -3.415   0.727  24.451  0.00  0.00    -0.211 NA
ATOM     13  C   UNL     1      -3.100   1.395  24.821  0.00  0.00    +0.237 A 
ATOM     14  N   UNL     1      -2.286   1.453  24.940  0.00  0.00    -0.200 NA
ATOM     40  N   UNL     1      -3.599   2.002  25.071  0.00  0.00    -0.212 NA
BRANCH   9   6
ATOM      3  C   UNL     1      -5.911   3.765  25.704  0.00  0.00    +0.139 A 
ATOM      4  C   UNL     1      -5.198   3.944  25.327  0.00  0.00    +0.037 A 
ATOM      5  C   UNL     1      -4.700   3.337  25.076  0.00  0.00    +0.005 A 
ATOM      6  C   UNL     1      -4.912   2.550  25.203  0.00  0.00    +0.018 A 
ATOM      7  C   UNL     1      -5.623   2.370  25.580  0.00  0.00    +0.005 A 
ATOM      8  C   UNL     1      -6.122   2.977  25.830  0.00  0.00    +0.037 A 
BRANCH   3   2
ATOM      1  C   UNL     1      -6.313   5.134  25.655  0.00  0.00    +0.252 C 
ATOM      2  O   UNL     1      -6.409   4.372  25.954  0.00  0.00    -0.471 OA
ENDBRANCH   3   2
ENDBRANCH   9   6
ENDBRANCH  15  14
BRANCH  19  23
ATOM     23  O   UNL     1       0.239  -0.380  23.202  0.00  0.00    -0.432 OA
BRANCH  23  24
ATOM     24  C   UNL     1       1.057  -0.273  23.212  0.00  0.00    +0.425 C 
ATOM     25  O   UNL     1       1.495  -0.506  23.872  0.00  0.00    -0.224 OA
ATOM     26  N   UNL     1       1.438   0.065  22.564  0.00  0.00    -0.142 NA
BRANCH  26  27
ATOM     27  C   UNL     1       2.256   0.172  22.574  0.00  0.00    +0.077 A 
ATOM     28  C   UNL     1       2.754  -0.433  22.317  0.00  0.00    +0.020 A 
ATOM     29  C   UNL     1       3.571  -0.326  22.327  0.00  0.00    +0.039 A 
ATOM     30  C   UNL     1       3.892   0.386  22.595  0.00  0.00    +0.145 A 
ATOM     38  C   UNL     1       3.393   0.991  22.853  0.00  0.00    +0.039 A 
ATOM     39  C   UNL     1       2.575   0.883  22.843  0.00  0.00    +0.020 A 
BRANCH  30  31
ATOM     31  O   UNL     1       4.709   0.493  22.606  0.00  0.00    -0.453 OA
BRANCH  31  32
ATOM     32  C   UNL     1       5.152   0.222  23.247  0.00  0.00    +0.145 A 
ATOM     33  C   UNL     1       5.373  -0.571  23.290  0.00  0.00    +0.037 A 
ATOM     34  C   UNL     1       5.816  -0.842  23.932  0.00  0.00    +0.003 A 
ATOM     35  C   UNL     1       6.038  -0.318  24.530  0.00  0.00    +0.000 A 
ATOM     36  C   UNL     1       5.817   0.475  24.487  0.00  0.00    +0.003 A 
ATOM     37  C   UNL     1       5.374   0.745  23.846  0.00  0.00    +0.037 A 
ENDBRANCH  31  32
ENDBRANCH  30  31
ENDBRANCH  26  27
ENDBRANCH  23  24
ENDBRANCH  19  23
TORSDOF 8
ENDMDL
MODEL 3
REMARK VINA RESULT:      -5.4      2.044      3.200
REMARK  Name = 
REMARK  8 active torsions:
REMARK  status: ('A' for Active; 'I' for Inactive)
REMARK    1  A    between atoms: O_2  and  C_3
REMARK    2  A    between atoms: C_6  and  C_9
REMARK    3  A    between atoms: N_14  and  C_15
REMARK    4  A    between atoms: C_19  and  O_23
REMARK    5  A    between atoms: O_23  and  C_24
REMARK    6  A    between atoms: N_26  and  C_27
REMARK    7  A    between atoms: C_30  and  O_31
REMARK    8  A    between atoms: O_31  and  C_32
REMARK                            x       y       z     vdW  Elec       q    Type
REMARK                         _______ _______ _______ _____ _____    ______ ____
ROOT
ATOM     15  C   UNL     1       0.798   1.901  23.986  0.00  0.00    +0.155 C 
ATOM     16  C   UNL     1       0.296   1.822  23.336  0.00  0.00    +0.166 C 
ATOM     17  O   UNL     1      -0.476   1.962  23.593  0.00  0.00    -0.348 OA
ATOM     18  C   UNL     1      -0.451   2.127  24.400  0.00  0.00    +0.186 C 
ATOM     19  C   UNL     1      -0.911   2.316  25.058  0.00  0.00    +0.229 C 
ATOM     20  C   UNL     1      -0.409   2.394  25.708  0.00  0.00    +0.188 C 
ATOM     21  O   UNL     1       0.362   2.254  25.451  0.00  0.00    -0.348 OA
ATOM     22  C   UNL     1       0.337   2.089  24.643  0.00  0.00    +0.168 C 
ENDROOT
BRANCH  15  14
ATOM      9  C   UNL     1       3.115   0.433  23.183  0.00  0.00    +0.086 A 
ATOM     10  C   UNL     1       2.634  -0.114  22.795  0.00  0.00    +0.040 A 
ATOM     11  C   UNL     1       1.814  -0.020  22.802  0.00  0.00    +0.103 A 
ATOM     12  N   UNL     1       1.475   0.620  23.196  0.00  0.00    -0.211 NA
ATOM     13  C   UNL     1       1.957   1.167  23.585  0.00  0.00    +0.237 A 
ATOM     14  N   UNL     1       1.618   1.807  23.979  0.00  0.00    -0.200 NA
ATOM     40  N   UNL     1       2.776   1.073  23.578  0.00  0.00    -0.212 NA
BRANCH   9   6
ATOM      3  C   UNL     1       5.574   0.151  23.163  0.00  0.00    +0.139 A 
ATOM      4  C   UNL     1       5.230   0.804  22.794  0.00  0.00    +0.037 A 
ATOM      5  C   UNL     1       4.411   0.898  22.801  0.00  0.00    +0.005 A 
ATOM      6  C   UNL     1       3.934   0.339  23.176  0.00  0.00    +0.018 A 
ATOM      7  C   UNL     1       4.277  -0.314  23.545  0.00  0.00    +0.005 A 
ATOM      8  C   UNL     1       5.097  -0.408  23.538  0.00  0.00    +0.037 A 
BRANCH   3   2
ATOM      1  C   UNL     1       6.721  -0.700  23.148  0.00  0.00    +0.252 C 
ATOM      2  O   UNL     1       6.393   0.057  23.156  0.00  0.00    -0.471 OA
ENDBRANCH   3   2
ENDBRANCH   9   6
ENDBRANCH  15  14
BRANCH  19  23
ATOM     23  O   UNL     1      -1.731   2.410  25.065  0.00  0.00    -0.432 OA
BRANCH  23  24
ATOM     24  C   UNL     1      -2.223   1.748  25.032  0.00  0.00    +0.425 C 
ATOM     25  O   UNL     1      -2.113   1.126  25.564  0.00  0.00    -0.224 OA
ATOM     26  N   UNL     1      -2.823   1.707  24.469  0.00  0.00    -0.142 NA
BRANCH  26  27
ATOM     27  C   UNL     1      -3.315   1.045  24.437  0.00  0.00    +0.077 A 
ATOM     28  C   UNL     1      -3.320   0.567  23.765  0.00  0.00    +0.020 A 
ATOM     29  C   UNL     1      -3.811  -0.094  23.733  0.00  0.00    +0.039 A 
ATOM     30  C   UNL     1      -4.298  -0.279  24.373  0.00  0.00    +0.145 A 
ATOM     38  C   UNL     1      -4.293   0.199  25.046  0.00  0.00    +0.039 A 
ATOM     39  C   UNL     1      -3.801   0.861  25.077  0.00  0.00    +0.020 A 
BRANCH  30  31
ATOM     31  O   UNL     1      -4.789  -0.940  24.341  0.00  0.00    -0.453 OA
BRANCH  31  32
ATOM     32  C   UNL     1      -4.461  -1.696  24.302  0.00  0.00    +0.145 A 
ATOM     33  C   UNL     1      -4.020  -1.988  24.936  0.00  0.00    +0.037 A 
ATOM     34  C   UNL     1      -3.692  -2.744  24.897  0.00  0.00    +0.003 A 
ATOM     35  C   UNL     1      -3.804  -3.208  24.224  0.00  0.00    +0.000 A 
ATOM     36  C   UNL     1      -4.245  -2.916  23.591  0.00  0.00    +0.003 A 
ATOM     37  C   UNL     1      -4.573  -2.161  23.630  0.00  0.00    +0.037 A 
ENDBRANCH  31  32
ENDBRANCH  30  31
ENDBRANCH  26  27
ENDBRANCH  23  24
ENDBRANCH  19  23
TORSDOF 8
ENDMDL
