MODEL 1
REMARK VINA RESULT:     -14.4      0.000      0.000
REMARK  Name = 
REMARK  6 active torsions:
REMARK  status: ('A' for Active; 'I' for Inactive)
REMARK    1  A    between atoms: C_2  and  N_3
REMARK    2  A    between atoms: C_2  and  C_35
REMARK    3  A    between atoms: C_4  and  C_6
REMARK    4  A    between atoms: C_6  and  C_7
REMARK    5  A    between atoms: C_12  and  C_14
REMARK    6  A    between atoms: C_25  and  C_27
REMARK                            x       y       z     vdW  Elec       q    Type
REMARK                         _______ _______ _______ _____ _____    ______ ____
ROOT
ATOM      7  C   UNL     1      -2.302  -0.510  25.043  0.00  0.00    +0.050 C 
ATOM      8  C   UNL     1      -2.933   0.023  25.035  0.00  0.00    +0.063 A 
ATOM      9  C   UNL     1      -3.678  -0.224  24.781  0.00  0.00    +0.023 A 
ATOM     10  C   UNL     1      -3.792  -1.004  24.535  0.00  0.00    +0.034 C 
ATOM     11  C   UNL     1      -3.163  -1.535  24.543  0.00  0.00    +0.010 C 
ATOM     12  C   UNL     1      -3.277  -2.314  24.297  0.00  0.00    +0.059 C 
ATOM     13  C   UNL     1      -4.039  -2.017  24.191  0.00  0.00    +0.005 C 
ATOM     16  C   UNL     1      -2.647  -2.847  24.305  0.00  0.00    +0.154 C 
ATOM     17  O   UNL     1      -2.761  -3.626  24.059  0.00  0.00    -0.223 OA
ATOM     18  C   UNL     1      -1.902  -2.600  24.559  0.00  0.00    +0.033 C 
ATOM     19  C   UNL     1      -1.787  -1.820  24.805  0.00  0.00    +0.003 C 
ATOM     20  C   UNL     1      -2.417  -1.289  24.797  0.00  0.00    +0.006 C 
ATOM     21  C   UNL     1      -1.672  -1.042  25.051  0.00  0.00    +0.000 C 
ATOM     22  S   UNL     1      -4.192   0.420  24.833  0.00  0.00    -0.054 S 
ATOM     23  C   UNL     1      -3.764   1.064  25.119  0.00  0.00    +0.185 A 
ATOM     24  N   UNL     1      -4.062   1.821  25.257  0.00  0.00    -0.151 NA
ATOM     25  C   UNL     1      -4.856   1.986  25.106  0.00  0.00    +0.271 C 
ATOM     26  O   UNL     1      -5.352   1.393  24.817  0.00  0.00    -0.268 OA
ATOM     34  N   UNL     1      -2.986   0.819  25.244  0.00  0.00    -0.227 NA
ENDROOT
BRANCH  25  27
ATOM     27  C   UNL     1      -5.154   2.743  25.243  0.00  0.00    +0.056 A 
ATOM     28  C   UNL     1      -5.894   2.837  25.594  0.00  0.00    +0.007 A 
ATOM     29  C   UNL     1      -6.191   3.594  25.731  0.00  0.00    +0.030 A 
ATOM     30  C   UNL     1      -5.749   4.257  25.518  0.00  0.00    +0.140 A 
ATOM     31  F   UNL     1      -6.047   5.014  25.655  0.00  0.00    -0.204 F 
ATOM     32  C   UNL     1      -5.009   4.162  25.167  0.00  0.00    +0.030 A 
ATOM     33  C   UNL     1      -4.711   3.405  25.030  0.00  0.00    +0.007 A 
ENDBRANCH  25  27
BRANCH  12  14
ATOM     14  C   UNL     1      -3.656  -2.990  24.014  0.00  0.00    +0.184 C 
ATOM     15  O   UNL     1      -4.436  -2.947  23.751  0.00  0.00    -0.220 OA
ENDBRANCH  12  14
BRANCH   7   6
ATOM      6  C   UNL     1      -1.558  -0.263  25.297  0.00  0.00    +0.093 C 
BRANCH   6   4
ATOM      3  N   UNL     1      -0.750   0.913  25.226  0.00  0.00    -0.203 NA
ATOM      4  C   UNL     1      -1.130   0.284  24.852  0.00  0.00    +0.242 C 
ATOM      5  O   UNL     1      -1.084   0.202  24.033  0.00  0.00    -0.273 OA
BRANCH   3   2
ATOM      1  C   UNL     1       0.191   1.200  24.190  0.00  0.00    +0.028 C 
ATOM      2  C   UNL     1      -0.323   1.460  24.781  0.00  0.00    +0.118 C 
BRANCH   2  35
ATOM     35  C   UNL     1      -0.409   2.268  24.926  0.00  0.00    -0.003 A 
ATOM     36  C   UNL     1      -0.316   2.562  25.692  0.00  0.00    -0.003 A 
ATOM     37  C   UNL     1      -0.402   3.369  25.837  0.00  0.00    -0.000 A 
ATOM     38  C   UNL     1      -0.581   3.884  25.217  0.00  0.00    -0.000 A 
ATOM     39  C   UNL     1      -0.674   3.589  24.452  0.00  0.00    -0.000 A 
ATOM     40  C   UNL     1      -0.588   2.782  24.307  0.00  0.00    -0.003 A 
ENDBRANCH   2  35
ENDBRANCH   3   2
ENDBRANCH   6   4
ENDBRANCH   7   6
TORSDOF 6
ENDMDL
MODEL 2
REMARK VINA RESULT:     -14.1      1.404      3.687
REMARK  Name = 
REMARK  6 active torsions:
REMARK  status: ('A' for Active; 'I' for Inactive)
REMARK    1  A    between atoms: C_2  and  N_3
REMARK    2  A    between atoms: C_2  and  C_35
REMARK    3  A    between atoms: C_4  and  C_6
REMARK    4  A    between atoms: C_6  and  C_7
REMARK    5  A    between atoms: C_12  and  C_14
REMARK    6  A    between atoms: C_25  and  C_27
REMARK                            x       y       z     vdW  Elec       q    Type
REMARK                         _______ _______ _______ _____ _____    ______ ____
ROOT
ATOM      7  C   UNL     1      -3.582  -0.129  24.385  0.00  0.00    +0.050 C 
ATOM      8  C   UNL     1      -3.000   0.450  24.475  0.00  0.00    +0.063 A 
ATOM      9  C   UNL     1      -2.215   0.230  24.598  0.00  0.00    +0.023 A 
ATOM     10  C   UNL     1      -2.012  -0.569  24.633  0.00  0.00    +0.034 C 
ATOM     11  C   UNL     1      -2.593  -1.147  24.543  0.00  0.00    +0.010 C 
ATOM     12  C   UNL     1      -2.389  -1.946  24.577  0.00  0.00    +0.059 C 
ATOM     13  C   UNL     1      -1.647  -1.604  24.692  0.00  0.00    +0.005 C 
ATOM     16  C   UNL     1      -2.970  -2.525  24.488  0.00  0.00    +0.154 C 
ATOM     17  O   UNL     1      -2.767  -3.324  24.522  0.00  0.00    -0.223 OA
ATOM     18  C   UNL     1      -3.756  -2.304  24.364  0.00  0.00    +0.033 C 
ATOM     19  C   UNL     1      -3.960  -1.505  24.330  0.00  0.00    +0.003 C 
ATOM     20  C   UNL     1      -3.378  -0.927  24.419  0.00  0.00    +0.006 C 
ATOM     21  C   UNL     1      -4.163  -0.707  24.296  0.00  0.00    +0.000 C 
ATOM     22  S   UNL     1      -1.765   0.918  24.667  0.00  0.00    -0.054 S 
ATOM     23  C   UNL     1      -2.272   1.563  24.586  0.00  0.00    +0.185 A 
ATOM     24  N   UNL     1      -2.054   2.358  24.618  0.00  0.00    -0.151 NA
ATOM     25  C   UNL     1      -1.265   2.565  24.741  0.00  0.00    +0.271 C 
ATOM     26  O   UNL     1      -0.694   1.976  24.832  0.00  0.00    -0.268 OA
ATOM     34  N   UNL     1      -3.036   1.275  24.467  0.00  0.00    -0.227 NA
ENDROOT
BRANCH  25  27
ATOM     27  C   UNL     1      -1.047   3.360  24.773  0.00  0.00    +0.056 A 
ATOM     28  C   UNL     1      -1.472   3.885  25.245  0.00  0.00    +0.007 A 
ATOM     29  C   UNL     1      -1.254   4.680  25.276  0.00  0.00    +0.030 A 
ATOM     30  C   UNL     1      -0.611   4.950  24.837  0.00  0.00    +0.140 A 
ATOM     31  F   UNL     1      -0.393   5.745  24.869  0.00  0.00    -0.204 F 
ATOM     32  C   UNL     1      -0.185   4.424  24.365  0.00  0.00    +0.030 A 
ATOM     33  C   UNL     1      -0.403   3.629  24.333  0.00  0.00    +0.007 A 
ENDBRANCH  25  27
BRANCH  12  14
ATOM     14  C   UNL     1      -1.928  -2.626  24.651  0.00  0.00    +0.184 C 
ATOM     15  O   UNL     1      -1.142  -2.568  24.895  0.00  0.00    -0.220 OA
ENDBRANCH  12  14
BRANCH   7   6
ATOM      6  C   UNL     1      -4.367   0.091  24.261  0.00  0.00    +0.093 C 
BRANCH   6   4
ATOM      3  N   UNL     1      -5.208   1.169  24.678  0.00  0.00    -0.203 NA
ATOM      4  C   UNL     1      -4.784   0.484  24.855  0.00  0.00    +0.242 C 
ATOM      5  O   UNL     1      -4.776   0.190  25.626  0.00  0.00    -0.273 OA
BRANCH   3   2
ATOM      1  C   UNL     1      -6.138   1.140  25.763  0.00  0.00    +0.028 C 
ATOM      2  C   UNL     1      -5.625   1.560  25.272  0.00  0.00    +0.118 C 
BRANCH   2  35
ATOM     35  C   UNL     1      -5.529   2.373  25.375  0.00  0.00    -0.003 A 
ATOM     36  C   UNL     1      -5.388   2.679  26.129  0.00  0.00    -0.003 A 
ATOM     37  C   UNL     1      -5.293   3.492  26.233  0.00  0.00    -0.000 A 
ATOM     38  C   UNL     1      -5.338   4.000  25.583  0.00  0.00    -0.000 A 
ATOM     39  C   UNL     1      -5.479   3.693  24.830  0.00  0.00    -0.000 A 
ATOM     40  C   UNL     1      -5.574   2.880  24.727  0.00  0.00    -0.003 A 
ENDBRANCH   2  35
ENDBRANCH   3   2
ENDBRANCH   6   4
ENDBRANCH   7   6
TORSDOF 6
ENDMDL
MODEL 3
REMARK VINA RESULT:     -13.5      2.715      4.851
REMARK  Name = 
REMARK  6 active torsions:
REMARK  status: ('A' for Active; 'I' for Inactive)
REMARK    1  A    between atoms: C_2  and  N_3
REMARK    2  A    between atoms: C_2  and  C_35
REMARK    3  A    between atoms: C_4  and  C_6
REMARK    4  A    between atoms: C_6  and  C_7
REMARK    5  A    between atoms: C_12  and  C_14
REMARK    6  A    between atoms: C_25  and  C_27
REMARK                            x       y       z     vdW  Elec       q    Type
REMARK                         _______ _______ _______ _____ _____    ______ ____
ROOT
ATOM      7  C   UNL     1      -1.919   0.468  24.486  0.00  0.00    +0.050 C 
ATOM      8  C   UNL     1      -1.172   0.280  24.188  0.00  0.00    +0.063 A 
ATOM      9  C   UNL     1      -0.932  -0.508  24.142  0.00  0.00    +0.023 A 
ATOM     10  C   UNL     1      -1.439  -1.108  24.394  0.00  0.00    +0.034 C 
ATOM     11  C   UNL     1      -2.185  -0.921  24.691  0.00  0.00    +0.010 C 
ATOM     12  C   UNL     1      -2.691  -1.521  24.942  0.00  0.00    +0.059 C 
ATOM     13  C   UNL     1      -2.043  -1.972  24.704  0.00  0.00    +0.005 C 
ATOM     16  C   UNL     1      -3.438  -1.335  25.240  0.00  0.00    +0.154 C 
ATOM     17  O   UNL     1      -3.945  -1.935  25.492  0.00  0.00    -0.223 OA
ATOM     18  C   UNL     1      -3.678  -0.547  25.286  0.00  0.00    +0.033 C 
ATOM     19  C   UNL     1      -3.171   0.055  25.034  0.00  0.00    +0.003 C 
ATOM     20  C   UNL     1      -2.425  -0.133  24.737  0.00  0.00    +0.006 C 
ATOM     21  C   UNL     1      -2.665   0.655  24.783  0.00  0.00    +0.000 C 
ATOM     22  S   UNL     1      -0.169  -0.524  23.827  0.00  0.00    -0.054 S 
ATOM     23  C   UNL     1       0.061   0.253  23.678  0.00  0.00    +0.185 A 
ATOM     24  N   UNL     1       0.784   0.491  23.361  0.00  0.00    -0.151 NA
ATOM     25  C   UNL     1       1.354  -0.071  23.163  0.00  0.00    +0.271 C 
ATOM     26  O   UNL     1       1.200  -0.873  23.282  0.00  0.00    -0.268 OA
ATOM     34  N   UNL     1      -0.558   0.751  23.901  0.00  0.00    -0.227 NA
ENDROOT
BRANCH  25  27
ATOM     27  C   UNL     1       2.077   0.167  22.846  0.00  0.00    +0.056 A 
ATOM     28  C   UNL     1       2.318  -0.116  22.110  0.00  0.00    +0.007 A 
ATOM     29  C   UNL     1       3.042   0.123  21.793  0.00  0.00    +0.030 A 
ATOM     30  C   UNL     1       3.524   0.645  22.212  0.00  0.00    +0.140 A 
ATOM     31  F   UNL     1       4.248   0.883  21.895  0.00  0.00    -0.204 F 
ATOM     32  C   UNL     1       3.282   0.927  22.948  0.00  0.00    +0.030 A 
ATOM     33  C   UNL     1       2.559   0.689  23.265  0.00  0.00    +0.007 A 
ENDBRANCH  25  27
BRANCH  12  14
ATOM     14  C   UNL     1      -2.973  -2.279  25.111  0.00  0.00    +0.184 C 
ATOM     15  O   UNL     1      -2.652  -2.934  24.727  0.00  0.00    -0.220 OA
ENDBRANCH  12  14
BRANCH   7   6
ATOM      6  C   UNL     1      -2.158   1.255  24.532  0.00  0.00    +0.093 C 
BRANCH   6   4
ATOM      3  N   UNL     1      -1.777   2.578  24.914  0.00  0.00    -0.203 NA
ATOM      4  C   UNL     1      -1.794   1.767  25.065  0.00  0.00    +0.242 C 
ATOM      5  O   UNL     1      -1.445   1.468  25.750  0.00  0.00    -0.273 OA
BRANCH   3   2
ATOM      1  C   UNL     1      -1.071   2.792  26.138  0.00  0.00    +0.028 C 
ATOM      2  C   UNL     1      -1.412   3.089  25.448  0.00  0.00    +0.118 C 
BRANCH   2  35
ATOM     35  C   UNL     1      -1.388   3.899  25.292  0.00  0.00    -0.003 A 
ATOM     36  C   UNL     1      -2.025   4.380  25.506  0.00  0.00    -0.003 A 
ATOM     37  C   UNL     1      -2.001   5.190  25.350  0.00  0.00    -0.000 A 
ATOM     38  C   UNL     1      -1.340   5.520  24.981  0.00  0.00    -0.000 A 
ATOM     39  C   UNL     1      -0.704   5.039  24.768  0.00  0.00    -0.000 A 
ATOM     40  C   UNL     1      -0.728   4.230  24.924  0.00  0.00    -0.003 A 
ENDBRANCH   2  35
ENDBRANCH   3   2
ENDBRANCH   6   4
ENDBRANCH   7   6
TORSDOF 6
ENDMDL
MODEL 4
REMARK VINA RESULT:     -13.4      2.411      5.890
REMARK  Name = 
REMARK  6 active torsions:
REMARK  status: ('A' for Active; 'I' for Inactive)
REMARK    1  A    between atoms: C_2  and  N_3
REMARK    2  A    between atoms: C_2  and  C_35
REMARK    3  A    between atoms: C_4  and  C_6
REMARK    4  A    between atoms: C_6  and  C_7
REMARK    5  A    between atoms: C_12  and  C_14
REMARK    6  A    between atoms: C_25  and  C_27
REMARK                            x       y       z     vdW  Elec       q    Type
REMARK                         _______ _______ _______ _____ _____    ______ ____
ROOT
ATOM      7  C   UNL     1      -3.476   1.599  24.562  0.00  0.00    +0.050 C 
ATOM      8  C   UNL     1      -2.666   1.578  24.401  0.00  0.00    +0.063 A 
ATOM      9  C   UNL     1      -2.195   2.233  24.571  0.00  0.00    +0.023 A 
ATOM     10  C   UNL     1      -2.533   2.910  24.901  0.00  0.00    +0.034 C 
ATOM     11  C   UNL     1      -3.342   2.931  25.062  0.00  0.00    +0.010 C 
ATOM     12  C   UNL     1      -3.679   3.607  25.391  0.00  0.00    +0.059 C 
ATOM     13  C   UNL     1      -2.893   3.850  25.339  0.00  0.00    +0.005 C 
ATOM     16  C   UNL     1      -4.488   3.628  25.552  0.00  0.00    +0.154 C 
ATOM     17  O   UNL     1      -4.827   4.305  25.882  0.00  0.00    -0.223 OA
ATOM     18  C   UNL     1      -4.960   2.973  25.383  0.00  0.00    +0.033 C 
ATOM     19  C   UNL     1      -4.622   2.296  25.052  0.00  0.00    +0.003 C 
ATOM     20  C   UNL     1      -3.813   2.275  24.892  0.00  0.00    +0.006 C 
ATOM     21  C   UNL     1      -4.284   1.620  24.723  0.00  0.00    +0.000 C 
ATOM     22  S   UNL     1      -1.420   2.053  24.354  0.00  0.00    -0.054 S 
ATOM     23  C   UNL     1      -1.412   1.286  24.051  0.00  0.00    +0.185 A 
ATOM     24  N   UNL     1      -0.750   0.884  23.768  0.00  0.00    -0.151 NA
ATOM     25  C   UNL     1      -0.011   1.250  23.772  0.00  0.00    +0.271 C 
ATOM     26  O   UNL     1       0.066   2.018  24.061  0.00  0.00    -0.268 OA
ATOM     34  N   UNL     1      -2.182   0.992  24.080  0.00  0.00    -0.227 NA
ENDROOT
BRANCH  25  27
ATOM     27  C   UNL     1       0.651   0.847  23.489  0.00  0.00    +0.056 A 
ATOM     28  C   UNL     1       0.565   0.102  23.147  0.00  0.00    +0.007 A 
ATOM     29  C   UNL     1       1.227  -0.301  22.863  0.00  0.00    +0.030 A 
ATOM     30  C   UNL     1       1.975   0.041  22.923  0.00  0.00    +0.140 A 
ATOM     31  F   UNL     1       2.637  -0.361  22.640  0.00  0.00    -0.204 F 
ATOM     32  C   UNL     1       2.060   0.787  23.266  0.00  0.00    +0.030 A 
ATOM     33  C   UNL     1       1.399   1.189  23.549  0.00  0.00    +0.007 A 
ENDBRANCH  25  27
BRANCH  12  14
ATOM     14  C   UNL     1      -3.744   4.368  25.703  0.00  0.00    +0.184 C 
ATOM     15  O   UNL     1      -3.105   4.709  26.096  0.00  0.00    -0.220 OA
ENDBRANCH  12  14
BRANCH   7   6
ATOM      6  C   UNL     1      -3.947   0.944  24.393  0.00  0.00    +0.093 C 
BRANCH   6   4
ATOM      3  N   UNL     1      -3.958  -0.482  24.487  0.00  0.00    -0.203 NA
ATOM      4  C   UNL     1      -3.877   0.257  24.844  0.00  0.00    +0.242 C 
ATOM      5  O   UNL     1      -3.725   0.310  25.653  0.00  0.00    -0.273 OA
BRANCH   3   2
ATOM      1  C   UNL     1      -3.893  -1.123  25.762  0.00  0.00    +0.028 C 
ATOM      2  C   UNL     1      -3.887  -1.168  24.938  0.00  0.00    +0.118 C 
BRANCH   2  35
ATOM     35  C   UNL     1      -3.811  -1.901  24.566  0.00  0.00    -0.003 A 
ATOM     36  C   UNL     1      -3.247  -2.442  24.831  0.00  0.00    -0.003 A 
ATOM     37  C   UNL     1      -3.171  -3.174  24.459  0.00  0.00    -0.000 A 
ATOM     38  C   UNL     1      -3.659  -3.367  23.822  0.00  0.00    -0.000 A 
ATOM     39  C   UNL     1      -4.223  -2.826  23.558  0.00  0.00    -0.000 A 
ATOM     40  C   UNL     1      -4.299  -2.093  23.930  0.00  0.00    -0.003 A 
ENDBRANCH   2  35
ENDBRANCH   3   2
ENDBRANCH   6   4
ENDBRANCH   7   6
TORSDOF 6
ENDMDL
MODEL 5
REMARK VINA RESULT:     -13.4      2.118      5.700
REMARK  Name = 
REMARK  6 active torsions:
REMARK  status: ('A' for Active; 'I' for Inactive)
REMARK    1  A    between atoms: C_2  and  N_3
REMARK    2  A    between atoms: C_2  and  C_35
REMARK    3  A    between atoms: C_4  and  C_6
REMARK    4  A    between atoms: C_6  and  C_7
REMARK    5  A    between atoms: C_12  and  C_14
REMARK    6  A    between atoms: C_25  and  C_27
REMARK                            x       y       z     vdW  Elec       q    Type
REMARK                         _______ _______ _______ _____ _____    ______ ____
ROOT
ATOM      7  C   UNL     1      -2.531   3.246  25.462  0.00  0.00    +0.050 C 
ATOM      8  C   UNL     1      -2.487   2.457  25.223  0.00  0.00    +0.063 A 
ATOM      9  C   UNL     1      -1.853   2.201  24.760  0.00  0.00    +0.023 A 
ATOM     10  C   UNL     1      -1.264   2.734  24.538  0.00  0.00    +0.034 C 
ATOM     11  C   UNL     1      -1.308   3.522  24.777  0.00  0.00    +0.010 C 
ATOM     12  C   UNL     1      -0.719   4.054  24.554  0.00  0.00    +0.059 C 
ATOM     13  C   UNL     1      -0.436   3.369  24.194  0.00  0.00    +0.005 C 
ATOM     16  C   UNL     1      -0.763   4.843  24.793  0.00  0.00    +0.154 C 
ATOM     17  O   UNL     1      -0.174   5.376  24.570  0.00  0.00    -0.223 OA
ATOM     18  C   UNL     1      -1.397   5.099  25.255  0.00  0.00    +0.033 C 
ATOM     19  C   UNL     1      -1.987   4.566  25.479  0.00  0.00    +0.003 C 
ATOM     20  C   UNL     1      -1.942   3.778  25.239  0.00  0.00    +0.006 C 
ATOM     21  C   UNL     1      -2.575   4.033  25.701  0.00  0.00    +0.000 C 
ATOM     22  S   UNL     1      -1.956   1.396  24.608  0.00  0.00    -0.054 S 
ATOM     23  C   UNL     1      -2.653   1.156  24.976  0.00  0.00    +0.185 A 
ATOM     24  N   UNL     1      -2.968   0.393  24.967  0.00  0.00    -0.151 NA
ATOM     25  C   UNL     1      -2.577  -0.210  24.562  0.00  0.00    +0.271 C 
ATOM     26  O   UNL     1      -1.871  -0.049  24.167  0.00  0.00    -0.268 OA
ATOM     34  N   UNL     1      -2.982   1.810  25.356  0.00  0.00    -0.227 NA
ENDROOT
BRANCH  25  27
ATOM     27  C   UNL     1      -2.891  -0.973  24.553  0.00  0.00    +0.056 A 
ATOM     28  C   UNL     1      -2.480  -1.592  24.908  0.00  0.00    +0.007 A 
ATOM     29  C   UNL     1      -2.794  -2.355  24.898  0.00  0.00    +0.030 A 
ATOM     30  C   UNL     1      -3.520  -2.498  24.534  0.00  0.00    +0.140 A 
ATOM     31  F   UNL     1      -3.835  -3.260  24.524  0.00  0.00    -0.204 F 
ATOM     32  C   UNL     1      -3.931  -1.877  24.178  0.00  0.00    +0.030 A 
ATOM     33  C   UNL     1      -3.617  -1.115  24.188  0.00  0.00    +0.007 A 
ENDBRANCH  25  27
BRANCH  12  14
ATOM     14  C   UNL     1      -0.032   4.350  24.206  0.00  0.00    +0.184 C 
ATOM     15  O   UNL     1       0.347   3.921  23.612  0.00  0.00    -0.220 OA
ENDBRANCH  12  14
BRANCH   7   6
ATOM      6  C   UNL     1      -3.164   3.501  25.924  0.00  0.00    +0.093 C 
BRANCH   6   4
ATOM      3  N   UNL     1      -4.569   3.249  25.992  0.00  0.00    -0.203 NA
ATOM      4  C   UNL     1      -3.918   3.562  25.594  0.00  0.00    +0.242 C 
ATOM      5  O   UNL     1      -4.019   3.937  24.867  0.00  0.00    -0.273 OA
BRANCH   3   2
ATOM      1  C   UNL     1      -5.615   4.048  25.435  0.00  0.00    +0.028 C 
ATOM      2  C   UNL     1      -5.322   3.310  25.661  0.00  0.00    +0.118 C 
BRANCH   2  35
ATOM     35  C   UNL     1      -5.783   2.634  25.557  0.00  0.00    -0.003 A 
ATOM     36  C   UNL     1      -6.035   2.201  26.214  0.00  0.00    -0.003 A 
ATOM     37  C   UNL     1      -6.496   1.525  26.110  0.00  0.00    -0.000 A 
ATOM     38  C   UNL     1      -6.706   1.281  25.349  0.00  0.00    -0.000 A 
ATOM     39  C   UNL     1      -6.454   1.714  24.694  0.00  0.00    -0.000 A 
ATOM     40  C   UNL     1      -5.993   2.390  24.798  0.00  0.00    -0.003 A 
ENDBRANCH   2  35
ENDBRANCH   3   2
ENDBRANCH   6   4
ENDBRANCH   7   6
TORSDOF 6
ENDMDL
MODEL 6
REMARK VINA RESULT:     -13.0      1.992      3.038
REMARK  Name = 
REMARK  6 active torsions:
REMARK  status: ('A' for Active; 'I' for Inactive)
REMARK    1  A    between atoms: C_2  and  N_3
REMARK    2  A    between atoms: C_2  and  C_35
REMARK    3  A    between atoms: C_4  and  C_6
REMARK    4  A    between atoms: C_6  and  C_7
REMARK    5  A    between atoms: C_12  and  C_14
REMARK    6  A    between atoms: C_25  and  C_27
REMARK                            x       y       z     vdW  Elec       q    Type
REMARK                         _______ _______ _______ _____ _____    ______ ____
ROOT
ATOM      7  C   UNL     1      -0.989  -0.564  24.545  0.00  0.00    +0.050 C 
ATOM      8  C   UNL     1      -1.247   0.212  24.659  0.00  0.00    +0.063 A 
ATOM      9  C   UNL     1      -2.045   0.364  24.807  0.00  0.00    +0.023 A 
ATOM     10  C   UNL     1      -2.583  -0.261  24.843  0.00  0.00    +0.034 C 
ATOM     11  C   UNL     1      -2.325  -1.035  24.730  0.00  0.00    +0.010 C 
ATOM     12  C   UNL     1      -2.864  -1.659  24.765  0.00  0.00    +0.059 C 
ATOM     13  C   UNL     1      -3.370  -1.023  24.908  0.00  0.00    +0.005 C 
ATOM     16  C   UNL     1      -2.606  -2.434  24.652  0.00  0.00    +0.154 C 
ATOM     17  O   UNL     1      -3.145  -3.059  24.688  0.00  0.00    -0.223 OA
ATOM     18  C   UNL     1      -1.809  -2.586  24.504  0.00  0.00    +0.033 C 
ATOM     19  C   UNL     1      -1.269  -1.962  24.468  0.00  0.00    +0.003 C 
ATOM     20  C   UNL     1      -1.528  -1.187  24.581  0.00  0.00    +0.006 C 
ATOM     21  C   UNL     1      -0.731  -1.339  24.432  0.00  0.00    +0.000 C 
ATOM     22  S   UNL     1      -2.137   1.179  24.896  0.00  0.00    -0.054 S 
ATOM     23  C   UNL     1      -1.397   1.530  24.802  0.00  0.00    +0.185 A 
ATOM     24  N   UNL     1      -1.235   2.338  24.847  0.00  0.00    -0.151 NA
ATOM     25  C   UNL     1      -1.844   2.874  24.998  0.00  0.00    +0.271 C 
ATOM     26  O   UNL     1      -2.615   2.601  25.104  0.00  0.00    -0.268 OA
ATOM     34  N   UNL     1      -0.847   0.934  24.655  0.00  0.00    -0.227 NA
ENDROOT
BRANCH  25  27
ATOM     27  C   UNL     1      -1.682   3.681  25.043  0.00  0.00    +0.056 A 
ATOM     28  C   UNL     1      -0.955   3.971  24.783  0.00  0.00    +0.007 A 
ATOM     29  C   UNL     1      -0.793   4.778  24.827  0.00  0.00    +0.030 A 
ATOM     30  C   UNL     1      -1.358   5.297  25.132  0.00  0.00    +0.140 A 
ATOM     31  F   UNL     1      -1.196   6.104  25.177  0.00  0.00    -0.204 F 
ATOM     32  C   UNL     1      -2.085   5.006  25.392  0.00  0.00    +0.030 A 
ATOM     33  C   UNL     1      -2.247   4.199  25.348  0.00  0.00    +0.007 A 
ENDBRANCH  25  27
BRANCH  12  14
ATOM     14  C   UNL     1      -3.579  -2.062  24.851  0.00  0.00    +0.184 C 
ATOM     15  O   UNL     1      -4.289  -1.689  24.660  0.00  0.00    -0.220 OA
ENDBRANCH  12  14
BRANCH   7   6
ATOM      6  C   UNL     1      -0.193  -0.716  24.397  0.00  0.00    +0.093 C 
BRANCH   6   4
ATOM      3  N   UNL     1       0.938  -0.323  23.615  0.00  0.00    -0.203 NA
ATOM      4  C   UNL     1       0.137  -0.515  23.668  0.00  0.00    +0.242 C 
ATOM      5  O   UNL     1      -0.335  -0.506  22.991  0.00  0.00    -0.273 OA
BRANCH   3   2
ATOM      1  C   UNL     1       0.831  -0.229  22.193  0.00  0.00    +0.028 C 
ATOM      2  C   UNL     1       1.266  -0.123  22.886  0.00  0.00    +0.118 C 
BRANCH   2  35
ATOM     35  C   UNL     1       2.031   0.185  22.849  0.00  0.00    -0.003 A 
ATOM     36  C   UNL     1       2.191   0.931  23.165  0.00  0.00    -0.003 A 
ATOM     37  C   UNL     1       2.956   1.239  23.128  0.00  0.00    -0.000 A 
ATOM     38  C   UNL     1       3.561   0.802  22.775  0.00  0.00    -0.000 A 
ATOM     39  C   UNL     1       3.400   0.057  22.460  0.00  0.00    -0.000 A 
ATOM     40  C   UNL     1       2.635  -0.251  22.497  0.00  0.00    -0.003 A 
ENDBRANCH   2  35
ENDBRANCH   3   2
ENDBRANCH   6   4
ENDBRANCH   7   6
TORSDOF 6
ENDMDL
MODEL 7
REMARK VINA RESULT:     -12.7      2.035      4.879
REMARK  Name = 
REMARK  6 active torsions:
REMARK  status: ('A' for Active; 'I' for Inactive)
REMARK    1  A    between atoms: C_2  and  N_3
REMARK    2  A    between atoms: C_2  and  C_35
REMARK    3  A    between atoms: C_4  and  C_6
REMARK    4  A    between atoms: C_6  and  C_7
REMARK    5  A    between atoms: C_12  and  C_14
REMARK    6  A    between atoms: C_25  and  C_27
REMARK                            x       y       z     vdW  Elec       q    Type
REMARK                         _______ _______ _______ _____ _____    ______ ____
ROOT
ATOM      7  C   UNL     1      -3.216   2.450  24.388  0.00  0.00    +0.050 C 
ATOM      8  C   UNL     1      -3.467   1.666  24.445  0.00  0.00    +0.063 A 
ATOM      9  C   UNL     1      -4.199   1.490  24.781  0.00  0.00    +0.023 A 
ATOM     10  C   UNL     1      -4.681   2.099  25.061  0.00  0.00    +0.034 C 
ATOM     11  C   UNL     1      -4.430   2.882  25.005  0.00  0.00    +0.010 C 
ATOM     12  C   UNL     1      -4.912   3.490  25.284  0.00  0.00    +0.059 C 
ATOM     13  C   UNL     1      -5.387   2.839  25.459  0.00  0.00    +0.005 C 
ATOM     16  C   UNL     1      -4.662   4.275  25.228  0.00  0.00    +0.154 C 
ATOM     17  O   UNL     1      -5.143   4.884  25.508  0.00  0.00    -0.223 OA
ATOM     18  C   UNL     1      -3.929   4.450  24.892  0.00  0.00    +0.033 C 
ATOM     19  C   UNL     1      -3.447   3.842  24.612  0.00  0.00    +0.003 C 
ATOM     20  C   UNL     1      -3.698   3.058  24.668  0.00  0.00    +0.006 C 
ATOM     21  C   UNL     1      -2.965   3.234  24.332  0.00  0.00    +0.000 C 
ATOM     22  S   UNL     1      -4.298   0.671  24.762  0.00  0.00    -0.054 S 
ATOM     23  C   UNL     1      -3.628   0.341  24.415  0.00  0.00    +0.185 A 
ATOM     24  N   UNL     1      -3.494  -0.462  24.286  0.00  0.00    -0.151 NA
ATOM     25  C   UNL     1      -4.061  -1.017  24.512  0.00  0.00    +0.271 C 
ATOM     26  O   UNL     1      -4.762  -0.767  24.868  0.00  0.00    -0.268 OA
ATOM     34  N   UNL     1      -3.113   0.955  24.218  0.00  0.00    -0.227 NA
ENDROOT
BRANCH  25  27
ATOM     27  C   UNL     1      -3.928  -1.821  24.383  0.00  0.00    +0.056 A 
ATOM     28  C   UNL     1      -4.296  -2.204  23.753  0.00  0.00    +0.007 A 
ATOM     29  C   UNL     1      -4.163  -3.007  23.624  0.00  0.00    +0.030 A 
ATOM     30  C   UNL     1      -3.661  -3.428  24.125  0.00  0.00    +0.140 A 
ATOM     31  F   UNL     1      -3.527  -4.232  23.996  0.00  0.00    -0.204 F 
ATOM     32  C   UNL     1      -3.293  -3.045  24.755  0.00  0.00    +0.030 A 
ATOM     33  C   UNL     1      -3.426  -2.241  24.884  0.00  0.00    +0.007 A 
ENDBRANCH  25  27
BRANCH  12  14
ATOM     14  C   UNL     1      -5.559   3.873  25.625  0.00  0.00    +0.184 C 
ATOM     15  O   UNL     1      -6.143   3.435  26.007  0.00  0.00    -0.220 OA
ENDBRANCH  12  14
BRANCH   7   6
ATOM      6  C   UNL     1      -2.484   2.626  24.052  0.00  0.00    +0.093 C 
BRANCH   6   4
ATOM      3  N   UNL     1      -1.194   2.017  23.966  0.00  0.00    -0.203 NA
ATOM      4  C   UNL     1      -1.790   2.367  24.416  0.00  0.00    +0.242 C 
ATOM      5  O   UNL     1      -1.693   2.459  25.230  0.00  0.00    -0.273 OA
BRANCH   3   2
ATOM      1  C   UNL     1      -0.159   2.207  24.933  0.00  0.00    +0.028 C 
ATOM      2  C   UNL     1      -0.500   1.759  24.329  0.00  0.00    +0.118 C 
BRANCH   2  35
ATOM     35  C   UNL     1      -0.147   1.053  24.090  0.00  0.00    -0.003 A 
ATOM     36  C   UNL     1      -0.189   0.386  24.574  0.00  0.00    -0.003 A 
ATOM     37  C   UNL     1       0.164  -0.321  24.334  0.00  0.00    -0.000 A 
ATOM     38  C   UNL     1       0.559  -0.360  23.611  0.00  0.00    -0.000 A 
ATOM     39  C   UNL     1       0.601   0.307  23.128  0.00  0.00    -0.000 A 
ATOM     40  C   UNL     1       0.248   1.014  23.367  0.00  0.00    -0.003 A 
ENDBRANCH   2  35
ENDBRANCH   3   2
ENDBRANCH   6   4
ENDBRANCH   7   6
TORSDOF 6
ENDMDL
MODEL 8
REMARK VINA RESULT:     -12.2      2.351      5.041
REMARK  Name = 
REMARK  6 active torsions:
REMARK  status: ('A' for Active; 'I' for Inactive)
REMARK    1  A    between atoms: C_2  and  N_3
REMARK    2  A    between atoms: C_2  and  C_35
REMARK    3  A    between atoms: C_4  and  C_6
REMARK    4  A    between atoms: C_6  and  C_7
REMARK    5  A    between atoms: C_12  and  C_14
REMARK    6  A    between atoms: C_25  and  C_27
REMARK                            x       y       z     vdW  Elec       q    Type
REMARK                         _______ _______ _______ _____ _____    ______ ____
ROOT
ATOM      7  C   UNL     1      -1.339   2.519  24.298  0.00  0.00    +0.050 C 
ATOM      8  C   UNL     1      -1.844   1.878  24.420  0.00  0.00    +0.063 A 
ATOM      9  C   UNL     1      -2.511   1.963  24.898  0.00  0.00    +0.023 A 
ATOM     10  C   UNL     1      -2.672   2.690  25.255  0.00  0.00    +0.034 C 
ATOM     11  C   UNL     1      -2.167   3.330  25.133  0.00  0.00    +0.010 C 
ATOM     12  C   UNL     1      -2.329   4.056  25.490  0.00  0.00    +0.059 C 
ATOM     13  C   UNL     1      -2.967   3.614  25.769  0.00  0.00    +0.005 C 
ATOM     16  C   UNL     1      -1.824   4.697  25.368  0.00  0.00    +0.154 C 
ATOM     17  O   UNL     1      -1.985   5.423  25.725  0.00  0.00    -0.223 OA
ATOM     18  C   UNL     1      -1.157   4.612  24.890  0.00  0.00    +0.033 C 
ATOM     19  C   UNL     1      -0.995   3.885  24.533  0.00  0.00    +0.003 C 
ATOM     20  C   UNL     1      -1.501   3.245  24.655  0.00  0.00    +0.006 C 
ATOM     21  C   UNL     1      -0.834   3.159  24.177  0.00  0.00    +0.000 C 
ATOM     22  S   UNL     1      -2.906   1.238  24.917  0.00  0.00    -0.054 S 
ATOM     23  C   UNL     1      -2.483   0.706  24.450  0.00  0.00    +0.185 A 
ATOM     24  N   UNL     1      -2.682  -0.083  24.314  0.00  0.00    -0.151 NA
ATOM     25  C   UNL     1      -3.358  -0.404  24.660  0.00  0.00    +0.271 C 
ATOM     26  O   UNL     1      -3.836   0.065  25.142  0.00  0.00    -0.268 OA
ATOM     34  N   UNL     1      -1.827   1.100  24.143  0.00  0.00    -0.227 NA
ENDROOT
BRANCH  25  27
ATOM     27  C   UNL     1      -3.556  -1.193  24.525  0.00  0.00    +0.056 A 
ATOM     28  C   UNL     1      -3.204  -1.789  24.972  0.00  0.00    +0.007 A 
ATOM     29  C   UNL     1      -3.403  -2.579  24.836  0.00  0.00    +0.030 A 
ATOM     30  C   UNL     1      -3.953  -2.772  24.253  0.00  0.00    +0.140 A 
ATOM     31  F   UNL     1      -4.152  -3.561  24.117  0.00  0.00    -0.204 F 
ATOM     32  C   UNL     1      -4.305  -2.174  23.806  0.00  0.00    +0.030 A 
ATOM     33  C   UNL     1      -4.107  -1.385  23.942  0.00  0.00    +0.007 A 
ENDBRANCH  25  27
BRANCH  12  14
ATOM     14  C   UNL     1      -2.712   4.629  25.943  0.00  0.00    +0.184 C 
ATOM     15  O   UNL     1      -3.302   4.408  26.475  0.00  0.00    -0.220 OA
ENDBRANCH  12  14
BRANCH   7   6
ATOM      6  C   UNL     1      -0.673   2.434  23.820  0.00  0.00    +0.093 C 
BRANCH   6   4
ATOM      3  N   UNL     1       0.396   1.532  23.524  0.00  0.00    -0.203 NA
ATOM      4  C   UNL     1      -0.040   1.968  24.072  0.00  0.00    +0.242 C 
ATOM      5  O   UNL     1       0.154   1.937  24.873  0.00  0.00    -0.273 OA
BRANCH   3   2
ATOM      1  C   UNL     1       1.199   1.004  24.582  0.00  0.00    +0.028 C 
ATOM      2  C   UNL     1       1.028   1.067  23.777  0.00  0.00    +0.118 C 
BRANCH   2  35
ATOM     35  C   UNL     1       1.490   0.664  23.225  0.00  0.00    -0.003 A 
ATOM     36  C   UNL     1       1.154   0.070  22.761  0.00  0.00    -0.003 A 
ATOM     37  C   UNL     1       1.616  -0.334  22.209  0.00  0.00    -0.000 A 
ATOM     38  C   UNL     1       2.414  -0.143  22.120  0.00  0.00    -0.000 A 
ATOM     39  C   UNL     1       2.750   0.451  22.584  0.00  0.00    -0.000 A 
ATOM     40  C   UNL     1       2.288   0.854  23.136  0.00  0.00    -0.003 A 
ENDBRANCH   2  35
ENDBRANCH   3   2
ENDBRANCH   6   4
ENDBRANCH   7   6
TORSDOF 6
ENDMDL
