MODEL 1
REMARK VINA RESULT:     -10.0      0.000      0.000
REMARK  Name = 
REMARK  4 active torsions:
REMARK  status: ('A' for Active; 'I' for Inactive)
REMARK    1  A    between atoms: O_2  and  C_3
REMARK    2  A    between atoms: C_8  and  C_10
REMARK    3  A    between atoms: N_13  and  C_14
REMARK    4  A    between atoms: C_14  and  C_15
REMARK                            x       y       z     vdW  Elec       q    Type
REMARK                         _______ _______ _______ _____ _____    ______ ____
ROOT
ATOM      3  C   UNL     1      -3.292  -2.116  24.727  0.00  0.00    +0.140 A 
ATOM      4  C   UNL     1      -3.214  -1.407  25.140  0.00  0.00    +0.058 A 
ATOM      5  C   UNL     1      -3.681  -0.757  24.939  0.00  0.00    +0.103 A 
ATOM      6  C   UNL     1      -4.227  -0.818  24.324  0.00  0.00    +0.100 A 
ATOM      7  N   UNL     1      -4.609  -0.091  24.250  0.00  0.00    -0.229 NA
ATOM      8  C   UNL     1      -4.299   0.419  24.819  0.00  0.00    +0.140 A 
ATOM      9  N   UNL     1      -3.726   0.007  25.245  0.00  0.00    -0.229 NA
ATOM     21  C   UNL     1      -4.306  -1.527  23.909  0.00  0.00    +0.024 A 
ATOM     22  C   UNL     1      -3.838  -2.176  24.111  0.00  0.00    +0.039 A 
ENDROOT
BRANCH   8  10
ATOM     10  C   UNL     1      -4.524   1.203  24.942  0.00  0.00    +0.076 C 
ATOM     11  C   UNL     1      -5.193   1.458  25.351  0.00  0.00    +0.026 C 
ATOM     12  C   UNL     1      -5.202   2.283  25.339  0.00  0.00    +0.073 C 
ATOM     13  N   UNL     1      -4.537   2.538  24.922  0.00  0.00    -0.266 NA
ATOM     20  C   UNL     1      -4.118   1.871  24.676  0.00  0.00    +0.080 C 
BRANCH  13  14
ATOM     14  C   UNL     1      -4.328   3.323  24.775  0.00  0.00    +0.139 C 
BRANCH  14  15
ATOM     15  C   UNL     1      -3.674   3.654  25.155  0.00  0.00    +0.155 A 
ATOM     16  N   UNL     1      -2.930   3.776  24.821  0.00  0.00    -0.226 NA
ATOM     17  C   UNL     1      -2.445   4.118  25.394  0.00  0.00    +0.121 A 
ATOM     18  C   UNL     1      -2.891   4.207  26.083  0.00  0.00    +0.121 A 
ATOM     19  N   UNL     1      -3.650   3.920  25.935  0.00  0.00    -0.226 NA
ENDBRANCH  14  15
ENDBRANCH  13  14
ENDBRANCH   8  10
BRANCH   3   2
ATOM      1  C   UNL     1      -2.123  -2.912  24.520  0.00  0.00    +0.252 C 
ATOM      2  O   UNL     1      -2.825  -2.765  24.928  0.00  0.00    -0.471 OA
ENDBRANCH   3   2
TORSDOF 4
ENDMDL
MODEL 2
REMARK VINA RESULT:      -9.1      1.931      4.929
REMARK  Name = 
REMARK  4 active torsions:
REMARK  status: ('A' for Active; 'I' for Inactive)
REMARK    1  A    between atoms: O_2  and  C_3
REMARK    2  A    between atoms: C_8  and  C_10
REMARK    3  A    between atoms: N_13  and  C_14
REMARK    4  A    between atoms: C_14  and  C_15
REMARK                            x       y       z     vdW  Elec       q    Type
REMARK                         _______ _______ _______ _____ _____    ______ ____
ROOT
ATOM      3  C   UNL     1      -1.757   3.900  25.231  0.00  0.00    +0.140 A 
ATOM      4  C   UNL     1      -1.719   3.080  25.147  0.00  0.00    +0.058 A 
ATOM      5  C   UNL     1      -2.409   2.644  25.029  0.00  0.00    +0.103 A 
ATOM      6  C   UNL     1      -3.138   3.028  24.995  0.00  0.00    +0.100 A 
ATOM      7  N   UNL     1      -3.721   2.458  24.873  0.00  0.00    -0.229 NA
ATOM      8  C   UNL     1      -3.353   1.721  24.833  0.00  0.00    +0.140 A 
ATOM      9  N   UNL     1      -2.542   1.837  24.929  0.00  0.00    -0.229 NA
ATOM     21  C   UNL     1      -3.177   3.849  25.078  0.00  0.00    +0.024 A 
ATOM     22  C   UNL     1      -2.487   4.284  25.196  0.00  0.00    +0.039 A 
ENDROOT
BRANCH   8  10
ATOM     10  C   UNL     1      -3.729   0.996  24.717  0.00  0.00    +0.076 C 
ATOM     11  C   UNL     1      -4.434   0.753  25.070  0.00  0.00    +0.026 C 
ATOM     12  C   UNL     1      -4.608  -0.006  24.799  0.00  0.00    +0.073 C 
ATOM     13  N   UNL     1      -4.010  -0.233  24.277  0.00  0.00    -0.266 NA
ATOM     20  C   UNL     1      -3.467   0.387  24.227  0.00  0.00    +0.080 C 
BRANCH  13  14
ATOM     14  C   UNL     1      -3.963  -0.952  23.877  0.00  0.00    +0.139 C 
BRANCH  14  15
ATOM     15  C   UNL     1      -3.579  -1.595  24.225  0.00  0.00    +0.155 A 
ATOM     16  N   UNL     1      -3.938  -2.196  24.662  0.00  0.00    -0.226 NA
ATOM     17  C   UNL     1      -3.350  -2.721  24.905  0.00  0.00    +0.121 A 
ATOM     18  C   UNL     1      -2.628  -2.444  24.617  0.00  0.00    +0.121 A 
ATOM     19  N   UNL     1      -2.770  -1.748  24.198  0.00  0.00    -0.226 NA
ENDBRANCH  14  15
ENDBRANCH  13  14
ENDBRANCH   8  10
BRANCH   3   2
ATOM      1  C   UNL     1      -0.965   5.059  24.966  0.00  0.00    +0.252 C 
ATOM      2  O   UNL     1      -1.067   4.335  25.348  0.00  0.00    -0.471 OA
ENDBRANCH   3   2
TORSDOF 4
ENDMDL
MODEL 3
REMARK VINA RESULT:      -9.0      1.897      4.787
REMARK  Name = 
REMARK  4 active torsions:
REMARK  status: ('A' for Active; 'I' for Inactive)
REMARK    1  A    between atoms: O_2  and  C_3
REMARK    2  A    between atoms: C_8  and  C_10
REMARK    3  A    between atoms: N_13  and  C_14
REMARK    4  A    between atoms: C_14  and  C_15
REMARK                            x       y       z     vdW  Elec       q    Type
REMARK                         _______ _______ _______ _____ _____    ______ ____
ROOT
ATOM      3  C   UNL     1      -4.760   3.106  25.145  0.00  0.00    +0.140 A 
ATOM      4  C   UNL     1      -4.202   2.559  24.883  0.00  0.00    +0.058 A 
ATOM      5  C   UNL     1      -4.378   1.753  24.889  0.00  0.00    +0.103 A 
ATOM      6  C   UNL     1      -5.114   1.495  25.158  0.00  0.00    +0.100 A 
ATOM      7  N   UNL     1      -5.133   0.673  25.101  0.00  0.00    -0.229 NA
ATOM      8  C   UNL     1      -4.408   0.422  24.797  0.00  0.00    +0.140 A 
ATOM      9  N   UNL     1      -3.943   1.090  24.666  0.00  0.00    -0.229 NA
ATOM     21  C   UNL     1      -5.674   2.043  25.420  0.00  0.00    +0.024 A 
ATOM     22  C   UNL     1      -5.496   2.848  25.413  0.00  0.00    +0.039 A 
ENDROOT
BRANCH   8  10
ATOM     10  C   UNL     1      -4.188  -0.359  24.649  0.00  0.00    +0.076 C 
ATOM     11  C   UNL     1      -4.461  -0.832  24.031  0.00  0.00    +0.026 C 
ATOM     12  C   UNL     1      -4.099  -1.570  24.093  0.00  0.00    +0.073 C 
ATOM     13  N   UNL     1      -3.601  -1.554  24.750  0.00  0.00    -0.266 NA
ATOM     20  C   UNL     1      -3.656  -0.805  25.094  0.00  0.00    +0.080 C 
BRANCH  13  14
ATOM     14  C   UNL     1      -3.130  -2.176  25.018  0.00  0.00    +0.139 C 
BRANCH  14  15
ATOM     15  C   UNL     1      -2.321  -2.184  24.850  0.00  0.00    +0.155 A 
ATOM     16  N   UNL     1      -1.733  -1.797  25.279  0.00  0.00    -0.226 NA
ATOM     17  C   UNL     1      -1.008  -1.954  24.918  0.00  0.00    +0.121 A 
ATOM     18  C   UNL     1      -1.149  -2.440  24.265  0.00  0.00    +0.121 A 
ATOM     19  N   UNL     1      -1.961  -2.581  24.224  0.00  0.00    -0.226 NA
ENDBRANCH  14  15
ENDBRANCH  13  14
ENDBRANCH   8  10
BRANCH   3   2
ATOM      1  C   UNL     1      -4.009   4.213  25.648  0.00  0.00    +0.252 C 
ATOM      2  O   UNL     1      -4.583   3.911  25.138  0.00  0.00    -0.471 OA
ENDBRANCH   3   2
TORSDOF 4
ENDMDL
MODEL 4
REMARK VINA RESULT:      -9.0      1.811      2.428
REMARK  Name = 
REMARK  4 active torsions:
REMARK  status: ('A' for Active; 'I' for Inactive)
REMARK    1  A    between atoms: O_2  and  C_3
REMARK    2  A    between atoms: C_8  and  C_10
REMARK    3  A    between atoms: N_13  and  C_14
REMARK    4  A    between atoms: C_14  and  C_15
REMARK                            x       y       z     vdW  Elec       q    Type
REMARK                         _______ _______ _______ _____ _____    ______ ____
ROOT
ATOM      3  C   UNL     1      -3.426  -1.740  24.801  0.00  0.00    +0.140 A 
ATOM      4  C   UNL     1      -2.702  -1.428  25.043  0.00  0.00    +0.058 A 
ATOM      5  C   UNL     1      -2.519  -0.639  24.887  0.00  0.00    +0.103 A 
ATOM      6  C   UNL     1      -3.062  -0.161  24.491  0.00  0.00    +0.100 A 
ATOM      7  N   UNL     1      -2.732   0.591  24.415  0.00  0.00    -0.229 NA
ATOM      8  C   UNL     1      -1.986   0.579  24.765  0.00  0.00    +0.140 A 
ATOM      9  N   UNL     1      -1.855  -0.182  25.057  0.00  0.00    -0.229 NA
ATOM     21  C   UNL     1      -3.787  -0.472  24.249  0.00  0.00    +0.024 A 
ATOM     22  C   UNL     1      -3.969  -1.262  24.405  0.00  0.00    +0.039 A 
ENDROOT
BRANCH   8  10
ATOM     10  C   UNL     1      -1.462   1.214  24.815  0.00  0.00    +0.076 C 
ATOM     11  C   UNL     1      -0.825   1.358  24.312  0.00  0.00    +0.026 C 
ATOM     12  C   UNL     1      -0.452   2.050  24.562  0.00  0.00    +0.073 C 
ATOM     13  N   UNL     1      -0.861   2.335  25.220  0.00  0.00    -0.266 NA
ATOM     20  C   UNL     1      -1.485   1.818  25.376  0.00  0.00    +0.080 C 
BRANCH  13  14
ATOM     14  C   UNL     1      -0.677   3.017  25.647  0.00  0.00    +0.139 C 
BRANCH  14  15
ATOM     15  C   UNL     1      -1.041   3.733  25.458  0.00  0.00    +0.155 A 
ATOM     16  N   UNL     1      -0.714   4.338  25.002  0.00  0.00    -0.226 NA
ATOM     17  C   UNL     1      -1.267   4.949  24.953  0.00  0.00    +0.121 A 
ATOM     18  C   UNL     1      -1.935   4.721  25.380  0.00  0.00    +0.121 A 
ATOM     19  N   UNL     1      -1.795   3.970  25.692  0.00  0.00    -0.226 NA
ENDBRANCH  14  15
ENDBRANCH  13  14
ENDBRANCH   8  10
BRANCH   3   2
ATOM      1  C   UNL     1      -3.612  -3.080  24.343  0.00  0.00    +0.252 C 
ATOM      2  O   UNL     1      -3.608  -2.529  24.957  0.00  0.00    -0.471 OA
ENDBRANCH   3   2
TORSDOF 4
ENDMDL
MODEL 5
REMARK VINA RESULT:      -8.7      2.787      5.380
REMARK  Name = 
REMARK  4 active torsions:
REMARK  status: ('A' for Active; 'I' for Inactive)
REMARK    1  A    between atoms: O_2  and  C_3
REMARK    2  A    between atoms: C_8  and  C_10
REMARK    3  A    between atoms: N_13  and  C_14
REMARK    4  A    between atoms: C_14  and  C_15
REMARK                            x       y       z     vdW  Elec       q    Type
REMARK                         _______ _______ _______ _____ _____    ______ ____
ROOT
ATOM      3  C   UNL     1      -0.665   3.367  25.003  0.00  0.00    +0.140 A 
ATOM      4  C   UNL     1      -1.078   2.760  24.627  0.00  0.00    +0.058 A 
ATOM      5  C   UNL     1      -1.091   2.003  24.956  0.00  0.00    +0.103 A 
ATOM      6  C   UNL     1      -0.690   1.854  25.662  0.00  0.00    +0.100 A 
ATOM      7  N   UNL     1      -0.800   1.060  25.854  0.00  0.00    -0.229 NA
ATOM      8  C   UNL     1      -1.269   0.718  25.268  0.00  0.00    +0.140 A 
ATOM      9  N   UNL     1      -1.449   1.301  24.714  0.00  0.00    -0.229 NA
ATOM     21  C   UNL     1      -0.276   2.461  26.038  0.00  0.00    +0.024 A 
ATOM     22  C   UNL     1      -0.264   3.217  25.708  0.00  0.00    +0.039 A 
ENDROOT
BRANCH   8  10
ATOM     10  C   UNL     1      -1.515  -0.069  25.242  0.00  0.00    +0.076 C 
ATOM     11  C   UNL     1      -1.053  -0.714  25.018  0.00  0.00    +0.026 C 
ATOM     12  C   UNL     1      -1.518  -1.394  25.072  0.00  0.00    +0.073 C 
ATOM     13  N   UNL     1      -2.269  -1.168  25.329  0.00  0.00    -0.266 NA
ATOM     20  C   UNL     1      -2.266  -0.349  25.434  0.00  0.00    +0.080 C 
BRANCH  13  14
ATOM     14  C   UNL     1      -2.909  -1.671  25.459  0.00  0.00    +0.139 C 
BRANCH  14  15
ATOM     15  C   UNL     1      -3.395  -1.892  24.830  0.00  0.00    +0.155 A 
ATOM     16  N   UNL     1      -3.987  -1.429  24.489  0.00  0.00    -0.226 NA
ATOM     17  C   UNL     1      -4.333  -1.865  23.880  0.00  0.00    +0.121 A 
ATOM     18  C   UNL     1      -3.954  -2.598  23.845  0.00  0.00    +0.121 A 
ATOM     19  N   UNL     1      -3.375  -2.613  24.432  0.00  0.00    -0.226 NA
ENDBRANCH  14  15
ENDBRANCH  13  14
ENDBRANCH   8  10
BRANCH   3   2
ATOM      1  C   UNL     1      -1.086   4.732  25.022  0.00  0.00    +0.252 C 
ATOM      2  O   UNL     1      -0.653   4.122  24.674  0.00  0.00    -0.471 OA
ENDBRANCH   3   2
TORSDOF 4
ENDMDL
MODEL 6
REMARK VINA RESULT:      -8.2      2.584      3.272
REMARK  Name = 
REMARK  4 active torsions:
REMARK  status: ('A' for Active; 'I' for Inactive)
REMARK    1  A    between atoms: O_2  and  C_3
REMARK    2  A    between atoms: C_8  and  C_10
REMARK    3  A    between atoms: N_13  and  C_14
REMARK    4  A    between atoms: C_14  and  C_15
REMARK                            x       y       z     vdW  Elec       q    Type
REMARK                         _______ _______ _______ _____ _____    ______ ____
ROOT
ATOM      3  C   UNL     1       0.149  -0.055  23.581  0.00  0.00    +0.140 A 
ATOM      4  C   UNL     1      -0.170   0.692  23.440  0.00  0.00    +0.058 A 
ATOM      5  C   UNL     1      -0.752   0.994  23.940  0.00  0.00    +0.103 A 
ATOM      6  C   UNL     1      -1.016   0.548  24.582  0.00  0.00    +0.100 A 
ATOM      7  N   UNL     1      -1.592   0.986  24.977  0.00  0.00    -0.229 NA
ATOM      8  C   UNL     1      -1.685   1.703  24.580  0.00  0.00    +0.140 A 
ATOM      9  N   UNL     1      -1.166   1.707  23.939  0.00  0.00    -0.229 NA
ATOM     21  C   UNL     1      -0.697  -0.200  24.724  0.00  0.00    +0.024 A 
ATOM     22  C   UNL     1      -0.114  -0.501  24.224  0.00  0.00    +0.039 A 
ENDROOT
BRANCH   8  10
ATOM     10  C   UNL     1      -2.205   2.308  24.787  0.00  0.00    +0.076 C 
ATOM     11  C   UNL     1      -2.050   2.921  25.317  0.00  0.00    +0.026 C 
ATOM     12  C   UNL     1      -2.721   3.400  25.358  0.00  0.00    +0.073 C 
ATOM     13  N   UNL     1      -3.291   3.082  24.853  0.00  0.00    -0.266 NA
ATOM     20  C   UNL     1      -2.972   2.408  24.500  0.00  0.00    +0.080 C 
BRANCH  13  14
ATOM     14  C   UNL     1      -4.047   3.386  24.724  0.00  0.00    +0.139 C 
BRANCH  14  15
ATOM     15  C   UNL     1      -4.704   3.013  25.056  0.00  0.00    +0.155 A 
ATOM     16  N   UNL     1      -5.024   3.166  25.801  0.00  0.00    -0.226 NA
ATOM     17  C   UNL     1      -5.674   2.670  25.908  0.00  0.00    +0.121 A 
ATOM     18  C   UNL     1      -5.756   2.210  25.227  0.00  0.00    +0.121 A 
ATOM     19  N   UNL     1      -5.157   2.422  24.702  0.00  0.00    -0.226 NA
ENDBRANCH  14  15
ENDBRANCH  13  14
ENDBRANCH   8  10
BRANCH   3   2
ATOM      1  C   UNL     1       1.468   0.013  23.034  0.00  0.00    +0.252 C 
ATOM      2  O   UNL     1       0.731  -0.356  23.082  0.00  0.00    -0.471 OA
ENDBRANCH   3   2
TORSDOF 4
ENDMDL
MODEL 7
REMARK VINA RESULT:      -6.1     14.167     16.428
REMARK  Name = 
REMARK  4 active torsions:
REMARK  status: ('A' for Active; 'I' for Inactive)
REMARK    1  A    between atoms: O_2  and  C_3
REMARK    2  A    between atoms: C_8  and  C_10
REMARK    3  A    between atoms: N_13  and  C_14
REMARK    4  A    between atoms: C_14  and  C_15
REMARK                            x       y       z     vdW  Elec       q    Type
REMARK                         _______ _______ _______ _____ _____    ______ ____
ROOT
ATOM      3  C   UNL     1      -4.238 -10.732  16.428  0.00  0.00    +0.140 A 
ATOM      4  C   UNL     1      -4.406 -10.711  15.622  0.00  0.00    +0.058 A 
ATOM      5  C   UNL     1      -3.792 -10.664  15.072  0.00  0.00    +0.103 A 
ATOM      6  C   UNL     1      -3.009 -10.640  15.331  0.00  0.00    +0.100 A 
ATOM      7  N   UNL     1      -2.522 -10.594  14.667  0.00  0.00    -0.229 NA
ATOM      8  C   UNL     1      -3.004 -10.591  13.998  0.00  0.00    +0.140 A 
ATOM      9  N   UNL     1      -3.788 -10.634  14.249  0.00  0.00    -0.229 NA
ATOM     21  C   UNL     1      -2.840 -10.661  16.139  0.00  0.00    +0.024 A 
ATOM     22  C   UNL     1      -3.455 -10.708  16.687  0.00  0.00    +0.039 A 
ENDROOT
BRANCH   8  10
ATOM     10  C   UNL     1      -2.747 -10.552  13.215  0.00  0.00    +0.076 C 
ATOM     11  C   UNL     1      -1.998 -10.316  12.962  0.00  0.00    +0.026 C 
ATOM     12  C   UNL     1      -1.981 -10.359  12.138  0.00  0.00    +0.073 C 
ATOM     13  N   UNL     1      -2.719 -10.623  11.882  0.00  0.00    -0.266 NA
ATOM     20  C   UNL     1      -3.193 -10.742  12.548  0.00  0.00    +0.080 C 
BRANCH  13  14
ATOM     14  C   UNL     1      -2.946 -10.746  11.098  0.00  0.00    +0.139 C 
BRANCH  14  15
ATOM     15  C   UNL     1      -3.272 -10.127  10.661  0.00  0.00    +0.155 A 
ATOM     16  N   UNL     1      -2.854  -9.588  10.196  0.00  0.00    -0.226 NA
ATOM     17  C   UNL     1      -3.397  -9.066   9.859  0.00  0.00    +0.121 A 
ATOM     18  C   UNL     1      -4.151  -9.283  10.116  0.00  0.00    +0.121 A 
ATOM     19  N   UNL     1      -4.073  -9.938  10.611  0.00  0.00    -0.226 NA
ENDBRANCH  14  15
ENDBRANCH  13  14
ENDBRANCH   8  10
BRANCH   3   2
ATOM      1  C   UNL     1      -5.212 -10.090  17.253  0.00  0.00    +0.252 C 
ATOM      2  O   UNL     1      -4.852 -10.779  16.977  0.00  0.00    -0.471 OA
ENDBRANCH   3   2
TORSDOF 4
ENDMDL
