MODEL 1
REMARK VINA RESULT:     -11.5      0.000      0.000
REMARK  Name = 
REMARK  5 active torsions:
REMARK  status: ('A' for Active; 'I' for Inactive)
REMARK    1  A    between atoms: S_2  and  C_3
REMARK    2  A    between atoms: C_3  and  C_4
REMARK    3  A    between atoms: N_6  and  C_7
REMARK    4  A    between atoms: C_18  and  C_21
REMARK    5  A    between atoms: C_23  and  C_27
REMARK                            x       y       z     vdW  Elec       q    Type
REMARK                         _______ _______ _______ _____ _____    ______ ____
ROOT
ATOM      7  C   UNL     1       0.033   0.809  23.942  0.00  0.00    +0.124 C 
ATOM      8  C   UNL     1      -0.334   0.070  23.933  0.00  0.00    +0.045 C 
ATOM      9  C   UNL     1      -1.125   0.176  24.141  0.00  0.00    +0.096 C 
ATOM     10  N   UNL     1      -1.248   0.980  24.279  0.00  0.00    -0.268 N 
ATOM     11  C   UNL     1      -0.531   1.372  24.156  0.00  0.00    +0.174 C 
ATOM     12  C   UNL     1      -0.368   2.177  24.224  0.00  0.00    +0.265 C 
ATOM     13  O   UNL     1       0.411   2.398  24.063  0.00  0.00    -0.271 OA
ATOM     14  N   UNL     1      -0.878   2.790  24.431  0.00  0.00    -0.178 NA
ATOM     15  C   UNL     1      -1.680   2.750  24.623  0.00  0.00    +0.078 A 
ATOM     16  C   UNL     1      -2.168   2.086  24.653  0.00  0.00    +0.069 A 
ATOM     17  C   UNL     1      -2.963   2.167  24.859  0.00  0.00    +0.006 A 
ATOM     18  C   UNL     1      -3.269   2.913  25.034  0.00  0.00    +0.000 A 
ATOM     19  C   UNL     1      -2.781   3.578  25.004  0.00  0.00    +0.001 A 
ATOM     20  C   UNL     1      -1.986   3.496  24.798  0.00  0.00    +0.017 A 
ATOM     31  C   UNL     1      -1.975   1.298  24.500  0.00  0.00    +0.251 C 
ATOM     32  O   UNL     1      -2.593   0.757  24.579  0.00  0.00    -0.270 OA
ENDROOT
BRANCH  18  21
ATOM     21  C   UNL     1      -4.064   2.995  25.240  0.00  0.00    -0.000 A 
ATOM     22  C   UNL     1      -4.607   2.409  25.032  0.00  0.00    +0.004 A 
ATOM     23  C   UNL     1      -5.401   2.491  25.238  0.00  0.00    +0.071 A 
ATOM     24  C   UNL     1      -5.653   3.159  25.652  0.00  0.00    +0.004 A 
ATOM     25  C   UNL     1      -5.110   3.745  25.859  0.00  0.00    -0.000 A 
ATOM     26  C   UNL     1      -4.315   3.663  25.653  0.00  0.00    -0.000 A 
BRANCH  23  27
ATOM     27  C   UNL     1      -5.943   1.905  25.031  0.00  0.00    +0.419 C 
ATOM     28  F   UNL     1      -6.486   1.319  24.823  0.00  0.00    -0.166 F 
ATOM     29  F   UNL     1      -5.914   1.606  25.799  0.00  0.00    -0.166 F 
ATOM     30  F   UNL     1      -5.973   2.205  24.263  0.00  0.00    -0.166 F 
ENDBRANCH  23  27
ENDBRANCH  18  21
BRANCH   7   6
ATOM      4  C   UNL     1       1.263   0.411  23.332  0.00  0.00    +0.252 C 
ATOM      5  O   UNL     1       0.908  -0.287  23.071  0.00  0.00    -0.272 OA
ATOM      6  N   UNL     1       0.825   0.959  23.768  0.00  0.00    -0.204 NA
BRANCH   4   3
ATOM      3  C   UNL     1       2.055   0.561  23.158  0.00  0.00    +0.144 C 
BRANCH   3   2
ATOM      1  C   UNL     1       3.235   0.261  22.409  0.00  0.00    +0.070 C 
ATOM      2  S   UNL     1       2.453   0.091  22.608  0.00  0.00    -0.130 S 
ENDBRANCH   3   2
ENDBRANCH   4   3
ENDBRANCH   7   6
TORSDOF 5
ENDMDL
MODEL 2
REMARK VINA RESULT:     -11.3      3.129      4.573
REMARK  Name = 
REMARK  5 active torsions:
REMARK  status: ('A' for Active; 'I' for Inactive)
REMARK    1  A    between atoms: S_2  and  C_3
REMARK    2  A    between atoms: C_3  and  C_4
REMARK    3  A    between atoms: N_6  and  C_7
REMARK    4  A    between atoms: C_18  and  C_21
REMARK    5  A    between atoms: C_23  and  C_27
REMARK                            x       y       z     vdW  Elec       q    Type
REMARK                         _______ _______ _______ _____ _____    ______ ____
ROOT
ATOM      7  C   UNL     1      -1.783   3.002  24.997  0.00  0.00    +0.124 C 
ATOM      8  C   UNL     1      -1.037   2.676  24.861  0.00  0.00    +0.045 C 
ATOM      9  C   UNL     1      -1.136   1.872  24.705  0.00  0.00    +0.096 C 
ATOM     10  N   UNL     1      -1.942   1.701  24.744  0.00  0.00    -0.268 N 
ATOM     11  C   UNL     1      -2.342   2.401  24.924  0.00  0.00    +0.174 C 
ATOM     12  C   UNL     1      -3.153   2.518  25.023  0.00  0.00    +0.265 C 
ATOM     13  O   UNL     1      -3.382   3.290  25.203  0.00  0.00    -0.271 OA
ATOM     14  N   UNL     1      -3.763   1.967  24.966  0.00  0.00    -0.178 NA
ATOM     15  C   UNL     1      -3.715   1.161  24.795  0.00  0.00    +0.078 A 
ATOM     16  C   UNL     1      -3.043   0.708  24.641  0.00  0.00    +0.069 A 
ATOM     17  C   UNL     1      -3.117  -0.098  24.481  0.00  0.00    +0.006 A 
ATOM     18  C   UNL     1      -3.863  -0.452  24.477  0.00  0.00    +0.000 A 
ATOM     19  C   UNL     1      -4.535   0.002  24.633  0.00  0.00    +0.001 A 
ATOM     20  C   UNL     1      -4.461   0.808  24.791  0.00  0.00    +0.017 A 
ATOM     31  C   UNL     1      -2.254   0.949  24.618  0.00  0.00    +0.251 C 
ATOM     32  O   UNL     1      -1.705   0.358  24.446  0.00  0.00    -0.270 OA
ENDROOT
BRANCH  18  21
ATOM     21  C   UNL     1      -3.937  -1.257  24.319  0.00  0.00    -0.000 A 
ATOM     22  C   UNL     1      -3.515  -1.807  24.767  0.00  0.00    +0.004 A 
ATOM     23  C   UNL     1      -3.589  -2.613  24.608  0.00  0.00    +0.071 A 
ATOM     24  C   UNL     1      -4.086  -2.870  24.000  0.00  0.00    +0.004 A 
ATOM     25  C   UNL     1      -4.508  -2.319  23.553  0.00  0.00    -0.000 A 
ATOM     26  C   UNL     1      -4.433  -1.513  23.712  0.00  0.00    -0.000 A 
BRANCH  23  27
ATOM     27  C   UNL     1      -3.168  -3.162  25.056  0.00  0.00    +0.419 C 
ATOM     28  F   UNL     1      -2.745  -3.712  25.504  0.00  0.00    -0.166 F 
ATOM     29  F   UNL     1      -2.640  -3.267  24.430  0.00  0.00    -0.166 F 
ATOM     30  F   UNL     1      -3.695  -3.058  25.681  0.00  0.00    -0.166 F 
ENDBRANCH  23  27
ENDBRANCH  18  21
BRANCH   7   6
ATOM      4  C   UNL     1      -1.335   4.352  25.143  0.00  0.00    +0.252 C 
ATOM      5  O   UNL     1      -0.571   4.121  24.936  0.00  0.00    -0.272 OA
ATOM      6  N   UNL     1      -1.942   3.793  25.174  0.00  0.00    -0.204 NA
BRANCH   4   3
ATOM      3  C   UNL     1      -1.494   5.142  25.320  0.00  0.00    +0.144 C 
BRANCH   3   2
ATOM      1  C   UNL     1      -1.641   6.442  24.747  0.00  0.00    +0.070 C 
ATOM      2  S   UNL     1      -1.216   5.739  24.823  0.00  0.00    -0.130 S 
ENDBRANCH   3   2
ENDBRANCH   4   3
ENDBRANCH   7   6
TORSDOF 5
ENDMDL
MODEL 3
REMARK VINA RESULT:      -8.8     17.492     18.914
REMARK  Name = 
REMARK  5 active torsions:
REMARK  status: ('A' for Active; 'I' for Inactive)
REMARK    1  A    between atoms: S_2  and  C_3
REMARK    2  A    between atoms: C_3  and  C_4
REMARK    3  A    between atoms: N_6  and  C_7
REMARK    4  A    between atoms: C_18  and  C_21
REMARK    5  A    between atoms: C_23  and  C_27
REMARK                            x       y       z     vdW  Elec       q    Type
REMARK                         _______ _______ _______ _____ _____    ______ ____
ROOT
ATOM      7  C   UNL     1      -7.357  -8.775  10.083  0.00  0.00    +0.124 C 
ATOM      8  C   UNL     1      -7.558  -8.980  10.856  0.00  0.00    +0.045 C 
ATOM      9  C   UNL     1      -6.866  -9.199  11.249  0.00  0.00    +0.096 C 
ATOM     10  N   UNL     1      -6.238  -9.129  10.719  0.00  0.00    -0.268 N 
ATOM     11  C   UNL     1      -6.542  -8.867   9.997  0.00  0.00    +0.174 C 
ATOM     12  C   UNL     1      -6.137  -8.713   9.295  0.00  0.00    +0.265 C 
ATOM     13  O   UNL     1      -6.602  -8.455   8.665  0.00  0.00    -0.271 OA
ATOM     14  N   UNL     1      -5.331  -8.782   9.140  0.00  0.00    -0.178 NA
ATOM     15  C   UNL     1      -4.728  -9.024   9.649  0.00  0.00    +0.078 A 
ATOM     16  C   UNL     1      -4.784  -9.255  10.439  0.00  0.00    +0.069 A 
ATOM     17  C   UNL     1      -4.105  -9.478  10.853  0.00  0.00    +0.006 A 
ATOM     18  C   UNL     1      -3.371  -9.470  10.476  0.00  0.00    +0.000 A 
ATOM     19  C   UNL     1      -3.315  -9.239   9.685  0.00  0.00    +0.001 A 
ATOM     20  C   UNL     1      -3.993  -9.016   9.272  0.00  0.00    +0.017 A 
ATOM     31  C   UNL     1      -5.456  -9.302  10.915  0.00  0.00    +0.251 C 
ATOM     32  O   UNL     1      -5.329  -9.555  11.689  0.00  0.00    -0.270 OA
ENDROOT
BRANCH  18  21
ATOM     21  C   UNL     1      -2.693  -9.693  10.889  0.00  0.00    -0.000 A 
ATOM     22  C   UNL     1      -2.051  -9.177  10.938  0.00  0.00    +0.004 A 
ATOM     23  C   UNL     1      -1.373  -9.400  11.351  0.00  0.00    +0.071 A 
ATOM     24  C   UNL     1      -1.336 -10.140  11.716  0.00  0.00    +0.004 A 
ATOM     25  C   UNL     1      -1.979 -10.656  11.666  0.00  0.00    -0.000 A 
ATOM     26  C   UNL     1      -2.657 -10.433  11.253  0.00  0.00    -0.000 A 
BRANCH  23  27
ATOM     27  C   UNL     1      -0.731  -8.884  11.401  0.00  0.00    +0.419 C 
ATOM     28  F   UNL     1      -0.090  -8.367  11.449  0.00  0.00    -0.166 F 
ATOM     29  F   UNL     1      -0.690  -8.857  10.577  0.00  0.00    -0.166 F 
ATOM     30  F   UNL     1      -0.773  -8.911  12.224  0.00  0.00    -0.166 F 
ENDBRANCH  23  27
ENDBRANCH  18  21
BRANCH   7   6
ATOM      4  C   UNL     1      -8.693  -8.533   9.637  0.00  0.00    +0.252 C 
ATOM      5  O   UNL     1      -8.983  -8.797  10.363  0.00  0.00    -0.272 OA
ATOM      6  N   UNL     1      -7.880  -8.522   9.497  0.00  0.00    -0.204 NA
BRANCH   4   3
ATOM      3  C   UNL     1      -9.216  -8.280   9.051  0.00  0.00    +0.144 C 
BRANCH   3   2
ATOM      1  C   UNL     1     -10.515  -7.819   8.676  0.00  0.00    +0.070 C 
ATOM      2  S   UNL     1     -10.012  -8.158   9.234  0.00  0.00    -0.130 S 
ENDBRANCH   3   2
ENDBRANCH   4   3
ENDBRANCH   7   6
TORSDOF 5
ENDMDL
MODEL 4
REMARK VINA RESULT:      -8.7     15.584     17.048
REMARK  Name = 
REMARK  5 active torsions:
REMARK  status: ('A' for Active; 'I' for Inactive)
REMARK    1  A    between atoms: S_2  and  C_3
REMARK    2  A    between atoms: C_3  and  C_4
REMARK    3  A    between atoms: N_6  and  C_7
REMARK    4  A    between atoms: C_18  and  C_21
REMARK    5  A    between atoms: C_23  and  C_27
REMARK                            x       y       z     vdW  Elec       q    Type
REMARK                         _______ _______ _______ _____ _____    ______ ____
ROOT
ATOM      7  C   UNL     1      -5.167 -10.493  16.235  0.00  0.00    +0.124 C 
ATOM      8  C   UNL     1      -4.385 -10.746  16.311  0.00  0.00    +0.045 C 
ATOM      9  C   UNL     1      -4.055 -10.781  15.556  0.00  0.00    +0.096 C 
ATOM     10  N   UNL     1      -4.632 -10.549  15.013  0.00  0.00    -0.268 N 
ATOM     11  C   UNL     1      -5.320 -10.371  15.434  0.00  0.00    +0.174 C 
ATOM     12  C   UNL     1      -6.048 -10.115  15.143  0.00  0.00    +0.265 C 
ATOM     13  O   UNL     1      -6.632  -9.983  15.710  0.00  0.00    -0.271 OA
ATOM     14  N   UNL     1      -6.269  -9.974  14.362  0.00  0.00    -0.178 NA
ATOM     15  C   UNL     1      -5.816 -10.054  13.676  0.00  0.00    +0.078 A 
ATOM     16  C   UNL     1      -5.031 -10.295  13.605  0.00  0.00    +0.069 A 
ATOM     17  C   UNL     1      -4.679 -10.338  12.859  0.00  0.00    +0.006 A 
ATOM     18  C   UNL     1      -5.113 -10.140  12.186  0.00  0.00    +0.000 A 
ATOM     19  C   UNL     1      -5.899  -9.898  12.258  0.00  0.00    +0.001 A 
ATOM     20  C   UNL     1      -6.250  -9.856  13.003  0.00  0.00    +0.017 A 
ATOM     31  C   UNL     1      -4.504 -10.515  14.200  0.00  0.00    +0.251 C 
ATOM     32  O   UNL     1      -3.749 -10.731  13.947  0.00  0.00    -0.270 OA
ENDROOT
BRANCH  18  21
ATOM     21  C   UNL     1      -4.761 -10.182  11.441  0.00  0.00    -0.000 A 
ATOM     22  C   UNL     1      -4.142  -9.672  11.247  0.00  0.00    +0.004 A 
ATOM     23  C   UNL     1      -3.791  -9.715  10.502  0.00  0.00    +0.071 A 
ATOM     24  C   UNL     1      -4.059 -10.268   9.950  0.00  0.00    +0.004 A 
ATOM     25  C   UNL     1      -4.678 -10.777  10.146  0.00  0.00    -0.000 A 
ATOM     26  C   UNL     1      -5.029 -10.735  10.890  0.00  0.00    -0.000 A 
BRANCH  23  27
ATOM     27  C   UNL     1      -3.172  -9.206  10.308  0.00  0.00    +0.419 C 
ATOM     28  F   UNL     1      -2.553  -8.695  10.114  0.00  0.00    -0.166 F 
ATOM     29  F   UNL     1      -3.676  -8.784   9.808  0.00  0.00    -0.166 F 
ATOM     30  F   UNL     1      -2.669  -9.627  10.807  0.00  0.00    -0.166 F 
ENDBRANCH  23  27
ENDBRANCH  18  21
BRANCH   7   6
ATOM      4  C   UNL     1      -5.469 -10.525  17.632  0.00  0.00    +0.252 C 
ATOM      5  O   UNL     1      -4.702 -10.781  17.792  0.00  0.00    -0.272 OA
ATOM      6  N   UNL     1      -5.702 -10.380  16.853  0.00  0.00    -0.204 NA
BRANCH   4   3
ATOM      3  C   UNL     1      -6.005 -10.412  18.250  0.00  0.00    +0.144 C 
BRANCH   3   2
ATOM      1  C   UNL     1      -6.419 -10.721  19.582  0.00  0.00    +0.070 C 
ATOM      2  S   UNL     1      -5.832 -10.702  19.003  0.00  0.00    -0.130 S 
ENDBRANCH   3   2
ENDBRANCH   4   3
ENDBRANCH   7   6
TORSDOF 5
ENDMDL
MODEL 5
REMARK VINA RESULT:      -8.4     14.103     14.792
REMARK  Name = 
REMARK  5 active torsions:
REMARK  status: ('A' for Active; 'I' for Inactive)
REMARK    1  A    between atoms: S_2  and  C_3
REMARK    2  A    between atoms: C_3  and  C_4
REMARK    3  A    between atoms: N_6  and  C_7
REMARK    4  A    between atoms: C_18  and  C_21
REMARK    5  A    between atoms: C_23  and  C_27
REMARK                            x       y       z     vdW  Elec       q    Type
REMARK                         _______ _______ _______ _____ _____    ______ ____
ROOT
ATOM      7  C   UNL     1      -4.349 -10.468  16.311  0.00  0.00    +0.124 C 
ATOM      8  C   UNL     1      -4.230 -10.437  17.127  0.00  0.00    +0.045 C 
ATOM      9  C   UNL     1      -4.950 -10.248  17.482  0.00  0.00    +0.096 C 
ATOM     10  N   UNL     1      -5.514 -10.161  16.886  0.00  0.00    -0.268 N 
ATOM     11  C   UNL     1      -5.142 -10.298  16.161  0.00  0.00    +0.174 C 
ATOM     12  C   UNL     1      -5.469 -10.277  15.404  0.00  0.00    +0.265 C 
ATOM     13  O   UNL     1      -4.947 -10.440  14.786  0.00  0.00    -0.271 OA
ATOM     14  N   UNL     1      -6.246 -10.115  15.184  0.00  0.00    -0.178 NA
ATOM     15  C   UNL     1      -6.891  -9.934  15.666  0.00  0.00    +0.078 A 
ATOM     16  C   UNL     1      -6.916  -9.870  16.488  0.00  0.00    +0.069 A 
ATOM     17  C   UNL     1      -7.625  -9.681  16.866  0.00  0.00    +0.006 A 
ATOM     18  C   UNL     1      -8.309  -9.556  16.421  0.00  0.00    +0.000 A 
ATOM     19  C   UNL     1      -8.284  -9.621  15.598  0.00  0.00    +0.001 A 
ATOM     20  C   UNL     1      -7.575  -9.809  15.221  0.00  0.00    +0.017 A 
ATOM     31  C   UNL     1      -6.303  -9.971  17.030  0.00  0.00    +0.251 C 
ATOM     32  O   UNL     1      -6.507  -9.868  17.823  0.00  0.00    -0.270 OA
ENDROOT
BRANCH  18  21
ATOM     21  C   UNL     1      -9.018  -9.368  16.798  0.00  0.00    -0.000 A 
ATOM     22  C   UNL     1      -9.292  -8.589  16.797  0.00  0.00    +0.004 A 
ATOM     23  C   UNL     1     -10.001  -8.401  17.174  0.00  0.00    +0.071 A 
ATOM     24  C   UNL     1     -10.436  -8.991  17.553  0.00  0.00    +0.004 A 
ATOM     25  C   UNL     1     -10.162  -9.769  17.553  0.00  0.00    -0.000 A 
ATOM     26  C   UNL     1      -9.453  -9.958  17.176  0.00  0.00    -0.000 A 
BRANCH  23  27
ATOM     27  C   UNL     1     -10.275  -7.623  17.172  0.00  0.00    +0.419 C 
ATOM     28  F   UNL     1     -10.549  -6.845  17.171  0.00  0.00    -0.166 F 
ATOM     29  F   UNL     1     -10.711  -7.778  16.489  0.00  0.00    -0.166 F 
ATOM     30  F   UNL     1      -9.839  -7.469  17.855  0.00  0.00    -0.166 F 
ENDBRANCH  23  27
ENDBRANCH  18  21
BRANCH   7   6
ATOM      4  C   UNL     1      -2.975 -10.598  15.941  0.00  0.00    +0.252 C 
ATOM      5  O   UNL     1      -2.749 -10.386  16.705  0.00  0.00    -0.272 OA
ATOM      6  N   UNL     1      -3.775 -10.639  15.743  0.00  0.00    -0.204 NA
BRANCH   4   3
ATOM      3  C   UNL     1      -2.401 -10.770  15.373  0.00  0.00    +0.144 C 
BRANCH   3   2
ATOM      1  C   UNL     1      -0.980 -10.781  15.220  0.00  0.00    +0.070 C 
ATOM      2  S   UNL     1      -1.678 -10.372  15.385  0.00  0.00    -0.130 S 
ENDBRANCH   3   2
ENDBRANCH   4   3
ENDBRANCH   7   6
TORSDOF 5
ENDMDL
MODEL 6
REMARK VINA RESULT:      -7.6     16.796     17.926
REMARK  Name = 
REMARK  5 active torsions:
REMARK  status: ('A' for Active; 'I' for Inactive)
REMARK    1  A    between atoms: S_2  and  C_3
REMARK    2  A    between atoms: C_3  and  C_4
REMARK    3  A    between atoms: N_6  and  C_7
REMARK    4  A    between atoms: C_18  and  C_21
REMARK    5  A    between atoms: C_23  and  C_27
REMARK                            x       y       z     vdW  Elec       q    Type
REMARK                         _______ _______ _______ _____ _____    ______ ____
ROOT
ATOM      7  C   UNL     1      -3.083 -10.445  12.825  0.00  0.00    +0.124 C 
ATOM      8  C   UNL     1      -2.485 -10.400  12.259  0.00  0.00    +0.045 C 
ATOM      9  C   UNL     1      -2.830 -10.190  11.539  0.00  0.00    +0.096 C 
ATOM     10  N   UNL     1      -3.642 -10.105  11.661  0.00  0.00    -0.268 N 
ATOM     11  C   UNL     1      -3.798 -10.264  12.457  0.00  0.00    +0.174 C 
ATOM     12  C   UNL     1      -4.523 -10.253  12.849  0.00  0.00    +0.265 C 
ATOM     13  O   UNL     1      -4.496 -10.438  13.653  0.00  0.00    -0.271 OA
ATOM     14  N   UNL     1      -5.270 -10.082  12.546  0.00  0.00    -0.178 NA
ATOM     15  C   UNL     1      -5.478  -9.879  11.774  0.00  0.00    +0.078 A 
ATOM     16  C   UNL     1      -4.989  -9.797  11.115  0.00  0.00    +0.069 A 
ATOM     17  C   UNL     1      -5.312  -9.587  10.385  0.00  0.00    +0.006 A 
ATOM     18  C   UNL     1      -6.125  -9.460  10.314  0.00  0.00    +0.000 A 
ATOM     19  C   UNL     1      -6.614  -9.542  10.974  0.00  0.00    +0.001 A 
ATOM     20  C   UNL     1      -6.291  -9.751  11.704  0.00  0.00    +0.017 A 
ATOM     31  C   UNL     1      -4.172  -9.898  11.065  0.00  0.00    +0.251 C 
ATOM     32  O   UNL     1      -3.841  -9.775  10.319  0.00  0.00    -0.270 OA
ENDROOT
BRANCH  18  21
ATOM     21  C   UNL     1      -6.448  -9.250   9.585  0.00  0.00    -0.000 A 
ATOM     22  C   UNL     1      -6.767  -8.497   9.476  0.00  0.00    +0.004 A 
ATOM     23  C   UNL     1      -7.090  -8.288   8.746  0.00  0.00    +0.071 A 
ATOM     24  C   UNL     1      -7.095  -8.832   8.126  0.00  0.00    +0.004 A 
ATOM     25  C   UNL     1      -6.776  -9.585   8.236  0.00  0.00    -0.000 A 
ATOM     26  C   UNL     1      -6.453  -9.795   8.965  0.00  0.00    -0.000 A 
BRANCH  23  27
ATOM     27  C   UNL     1      -7.408  -7.535   8.637  0.00  0.00    +0.419 C 
ATOM     28  F   UNL     1      -7.727  -6.781   8.528  0.00  0.00    -0.166 F 
ATOM     29  F   UNL     1      -8.165  -7.861   8.600  0.00  0.00    -0.166 F 
ATOM     30  F   UNL     1      -6.651  -7.210   8.675  0.00  0.00    -0.166 F 
ENDBRANCH  23  27
ENDBRANCH  18  21
BRANCH   7   6
ATOM      4  C   UNL     1      -2.241 -10.564  13.974  0.00  0.00    +0.252 C 
ATOM      5  O   UNL     1      -1.599 -10.295  13.531  0.00  0.00    -0.272 OA
ATOM      6  N   UNL     1      -2.984 -10.639  13.621  0.00  0.00    -0.204 NA
BRANCH   4   3
ATOM      3  C   UNL     1      -2.142 -10.758  14.770  0.00  0.00    +0.144 C 
BRANCH   3   2
ATOM      1  C   UNL     1      -1.417 -10.617  15.993  0.00  0.00    +0.070 C 
ATOM      2  S   UNL     1      -1.484 -10.479  15.183  0.00  0.00    -0.130 S 
ENDBRANCH   3   2
ENDBRANCH   4   3
ENDBRANCH   7   6
TORSDOF 5
ENDMDL
