MODEL 1
REMARK VINA RESULT:      -9.4      0.000      0.000
REMARK  Name = 
REMARK  3 active torsions:
REMARK  status: ('A' for Active; 'I' for Inactive)
REMARK    1  A    between atoms: O_2  and  C_3
REMARK    2  A    between atoms: C_6  and  O_7
REMARK    3  A    between atoms: O_7  and  C_8
REMARK                            x       y       z     vdW  Elec       q    Type
REMARK                         _______ _______ _______ _____ _____    ______ ____
ROOT
ATOM      8  C   UNL     1      -4.305   0.999  24.447  0.00  0.00    +0.215 C 
ATOM      9  C   UNL     1      -3.710   1.004  23.875  0.00  0.00    +0.187 C 
ATOM     10  O   UNL     1      -3.236   1.634  23.632  0.00  0.00    -0.348 OA
ATOM     11  C   UNL     1      -3.239   2.414  23.900  0.00  0.00    +0.164 C 
ATOM     12  C   UNL     1      -3.718   2.756  24.478  0.00  0.00    +0.126 C 
ATOM     13  N   UNL     1      -4.312   2.404  24.930  0.00  0.00    -0.273 N 
ATOM     14  C   UNL     1      -4.573   1.622  24.916  0.00  0.00    +0.139 C 
ATOM     15  C   UNL     1      -4.695   2.900  25.467  0.00  0.00    +0.226 C 
ATOM     16  C   UNL     1      -4.476   3.692  25.525  0.00  0.00    +0.095 C 
ATOM     17  O   UNL     1      -5.297   2.602  25.946  0.00  0.00    -0.275 OA
ENDROOT
BRANCH   8   7
ATOM      7  O   UNL     1      -4.682   0.274  24.564  0.00  0.00    -0.475 OA
BRANCH   7   6
ATOM      3  C   UNL     1      -3.342  -1.780  24.893  0.00  0.00    +0.139 A 
ATOM      4  C   UNL     1      -3.700  -1.633  24.165  0.00  0.00    +0.040 A 
ATOM      5  C   UNL     1      -4.146  -0.949  24.055  0.00  0.00    +0.040 A 
ATOM      6  C   UNL     1      -4.235  -0.411  24.674  0.00  0.00    +0.139 A 
ATOM     18  C   UNL     1      -3.877  -0.557  25.403  0.00  0.00    +0.040 A 
ATOM     19  C   UNL     1      -3.430  -1.241  25.512  0.00  0.00    +0.040 A 
BRANCH   3   2
ATOM      1  C   UNL     1      -2.161  -2.543  24.632  0.00  0.00    +0.252 C 
ATOM      2  O   UNL     1      -2.895  -2.465  25.003  0.00  0.00    -0.471 OA
ENDBRANCH   3   2
ENDBRANCH   7   6
ENDBRANCH   8   7
TORSDOF 3
ENDMDL
MODEL 2
REMARK VINA RESULT:      -9.3      1.030      1.650
REMARK  Name = 
REMARK  3 active torsions:
REMARK  status: ('A' for Active; 'I' for Inactive)
REMARK    1  A    between atoms: O_2  and  C_3
REMARK    2  A    between atoms: C_6  and  O_7
REMARK    3  A    between atoms: O_7  and  C_8
REMARK                            x       y       z     vdW  Elec       q    Type
REMARK                         _______ _______ _______ _____ _____    ______ ____
ROOT
ATOM      8  C   UNL     1      -3.879   1.722  24.527  0.00  0.00    +0.215 C 
ATOM      9  C   UNL     1      -4.700   1.692  24.608  0.00  0.00    +0.187 C 
ATOM     10  O   UNL     1      -5.198   2.223  24.995  0.00  0.00    -0.348 OA
ATOM     11  C   UNL     1      -5.000   2.916  25.397  0.00  0.00    +0.164 C 
ATOM     12  C   UNL     1      -4.253   3.248  25.510  0.00  0.00    +0.126 C 
ATOM     13  N   UNL     1      -3.521   2.970  25.250  0.00  0.00    -0.273 N 
ATOM     14  C   UNL     1      -3.356   2.291  24.812  0.00  0.00    +0.139 C 
ATOM     15  C   UNL     1      -2.869   3.433  25.455  0.00  0.00    +0.226 C 
ATOM     16  C   UNL     1      -2.975   4.124  25.892  0.00  0.00    +0.095 C 
ATOM     17  O   UNL     1      -2.112   3.204  25.221  0.00  0.00    -0.275 OA
ENDROOT
BRANCH   8   7
ATOM      7  O   UNL     1      -3.539   1.102  24.103  0.00  0.00    -0.475 OA
BRANCH   7   6
ATOM      3  C   UNL     1      -3.666  -1.210  24.978  0.00  0.00    +0.139 A 
ATOM      4  C   UNL     1      -3.107  -0.684  25.281  0.00  0.00    +0.040 A 
ATOM      5  C   UNL     1      -3.065   0.085  24.990  0.00  0.00    +0.040 A 
ATOM      6  C   UNL     1      -3.581   0.331  24.395  0.00  0.00    +0.139 A 
ATOM     18  C   UNL     1      -4.140  -0.195  24.091  0.00  0.00    +0.040 A 
ATOM     19  C   UNL     1      -4.183  -0.965  24.383  0.00  0.00    +0.040 A 
BRANCH   3   2
ATOM      1  C   UNL     1      -3.360  -2.601  24.850  0.00  0.00    +0.252 C 
ATOM      2  O   UNL     1      -3.708  -1.981  25.269  0.00  0.00    -0.471 OA
ENDBRANCH   3   2
ENDBRANCH   7   6
ENDBRANCH   8   7
TORSDOF 3
ENDMDL
MODEL 3
REMARK VINA RESULT:      -9.0      1.394      4.095
REMARK  Name = 
REMARK  3 active torsions:
REMARK  status: ('A' for Active; 'I' for Inactive)
REMARK    1  A    between atoms: O_2  and  C_3
REMARK    2  A    between atoms: C_6  and  O_7
REMARK    3  A    between atoms: O_7  and  C_8
REMARK                            x       y       z     vdW  Elec       q    Type
REMARK                         _______ _______ _______ _____ _____    ______ ____
ROOT
ATOM      8  C   UNL     1      -3.399   0.123  24.352  0.00  0.00    +0.215 C 
ATOM      9  C   UNL     1      -2.794   0.406  24.836  0.00  0.00    +0.187 C 
ATOM     10  O   UNL     1      -2.291  -0.019  25.333  0.00  0.00    -0.348 OA
ATOM     11  C   UNL     1      -2.268  -0.833  25.468  0.00  0.00    +0.164 C 
ATOM     12  C   UNL     1      -2.744  -1.421  25.139  0.00  0.00    +0.126 C 
ATOM     13  N   UNL     1      -3.359  -1.342  24.595  0.00  0.00    -0.273 N 
ATOM     14  C   UNL     1      -3.650  -0.655  24.245  0.00  0.00    +0.139 C 
ATOM     15  C   UNL     1      -3.732  -2.044  24.372  0.00  0.00    +0.226 C 
ATOM     16  C   UNL     1      -3.483  -2.762  24.690  0.00  0.00    +0.095 C 
ATOM     17  O   UNL     1      -4.354  -2.025  23.830  0.00  0.00    -0.275 OA
ENDROOT
BRANCH   8   7
ATOM      7  O   UNL     1      -3.806   0.695  23.918  0.00  0.00    -0.475 OA
BRANCH   7   6
ATOM      3  C   UNL     1      -5.071   2.471  25.088  0.00  0.00    +0.139 A 
ATOM      4  C   UNL     1      -5.358   1.697  25.079  0.00  0.00    +0.040 A 
ATOM      5  C   UNL     1      -4.936   1.106  24.690  0.00  0.00    +0.040 A 
ATOM      6  C   UNL     1      -4.228   1.287  24.308  0.00  0.00    +0.139 A 
ATOM     18  C   UNL     1      -3.941   2.061  24.316  0.00  0.00    +0.040 A 
ATOM     19  C   UNL     1      -4.362   2.652  24.706  0.00  0.00    +0.040 A 
BRANCH   3   2
ATOM      1  C   UNL     1      -5.117   3.767  25.691  0.00  0.00    +0.252 C 
ATOM      2  O   UNL     1      -5.493   3.063  25.478  0.00  0.00    -0.471 OA
ENDBRANCH   3   2
ENDBRANCH   7   6
ENDBRANCH   8   7
TORSDOF 3
ENDMDL
