MODEL 1
REMARK VINA RESULT:     -11.9      0.000      0.000
REMARK  Name = 
REMARK  8 active torsions:
REMARK  status: ('A' for Active; 'I' for Inactive)
REMARK    1  A    between atoms: N_2  and  C_3
REMARK    2  A    between atoms: C_3  and  C_4
REMARK    3  A    between atoms: C_6  and  C_8
REMARK    4  A    between atoms: C_8  and  C_9
REMARK    5  A    between atoms: C_14  and  C_16
REMARK    6  A    between atoms: C_27  and  C_29
REMARK    7  A    between atoms: C_29  and  O_30
REMARK    8  A    between atoms: O_30  and  C_31
REMARK                            x       y       z     vdW  Elec       q    Type
REMARK                         _______ _______ _______ _____ _____    ______ ____
ROOT
ATOM      9  C   UNL     1      -3.730   1.090  24.506  0.00  0.00    +0.050 C 
ATOM     10  C   UNL     1      -2.964   1.398  24.485  0.00  0.00    +0.063 A 
ATOM     11  C   UNL     1      -2.825   2.172  24.732  0.00  0.00    +0.023 A 
ATOM     12  C   UNL     1      -3.449   2.638  25.000  0.00  0.00    +0.034 C 
ATOM     13  C   UNL     1      -4.214   2.331  25.022  0.00  0.00    +0.010 C 
ATOM     14  C   UNL     1      -4.839   2.798  25.290  0.00  0.00    +0.059 C 
ATOM     15  C   UNL     1      -4.216   3.332  25.372  0.00  0.00    +0.005 C 
ATOM     18  C   UNL     1      -5.604   2.490  25.312  0.00  0.00    +0.154 C 
ATOM     19  O   UNL     1      -6.230   2.957  25.581  0.00  0.00    -0.223 OA
ATOM     20  C   UNL     1      -5.744   1.716  25.065  0.00  0.00    +0.033 C 
ATOM     21  C   UNL     1      -5.119   1.249  24.796  0.00  0.00    +0.003 C 
ATOM     22  C   UNL     1      -4.354   1.556  24.775  0.00  0.00    +0.006 C 
ATOM     23  C   UNL     1      -4.494   0.782  24.528  0.00  0.00    +0.000 C 
ATOM     24  S   UNL     1      -2.017   2.324  24.649  0.00  0.00    -0.054 S 
ATOM     25  C   UNL     1      -1.659   1.644  24.351  0.00  0.00    +0.185 A 
ATOM     26  N   UNL     1      -0.856   1.552  24.183  0.00  0.00    -0.151 NA
ATOM     27  C   UNL     1      -0.576   0.836  23.886  0.00  0.00    +0.292 C 
ATOM     28  O   UNL     1      -1.099   0.211  23.755  0.00  0.00    -0.269 OA
ATOM     37  N   UNL     1      -2.244   1.071  24.249  0.00  0.00    -0.227 NA
ENDROOT
BRANCH  14  16
ATOM     16  C   UNL     1      -5.248   3.450  25.587  0.00  0.00    +0.184 C 
ATOM     17  O   UNL     1      -4.858   4.171  25.685  0.00  0.00    -0.220 OA
ENDBRANCH  14  16
BRANCH   9   8
ATOM      8  C   UNL     1      -3.869   0.315  24.259  0.00  0.00    +0.091 C 
BRANCH   8   6
ATOM      1  C   UNL     1      -3.941  -1.236  23.703  0.00  0.00    +0.115 C 
ATOM      2  N   UNL     1      -3.754  -1.090  24.492  0.00  0.00    -0.274 N 
ATOM      6  C   UNL     1      -3.718  -0.314  24.771  0.00  0.00    +0.226 C 
ATOM      7  O   UNL     1      -3.530  -0.168  25.560  0.00  0.00    -0.275 OA
BRANCH   2   3
ATOM      3  C   UNL     1      -3.602  -1.719  25.005  0.00  0.00    +0.120 C 
BRANCH   3   4
ATOM      4  C   UNL     1      -3.567  -2.489  24.711  0.00  0.00    -0.005 C 
ATOM      5  C   UNL     1      -3.225  -3.088  25.165  0.00  0.00    -0.003 C 
ENDBRANCH   3   4
ENDBRANCH   2   3
ENDBRANCH   8   6
ENDBRANCH   9   8
BRANCH  27  29
ATOM     29  C   UNL     1       0.226   0.743  23.718  0.00  0.00    +0.292 C 
BRANCH  29  30
ATOM     30  O   UNL     1       0.478   0.131  23.226  0.00  0.00    -0.466 OA
BRANCH  30  31
ATOM     31  C   UNL     1       1.243   0.137  22.918  0.00  0.00    +0.139 A 
ATOM     32  C   UNL     1       1.850   0.515  23.327  0.00  0.00    +0.037 A 
ATOM     33  C   UNL     1       2.616   0.520  23.019  0.00  0.00    +0.003 A 
ATOM     34  C   UNL     1       2.773   0.147  22.300  0.00  0.00    +0.000 A 
ATOM     35  C   UNL     1       2.165  -0.233  21.890  0.00  0.00    +0.003 A 
ATOM     36  C   UNL     1       1.400  -0.237  22.199  0.00  0.00    +0.037 A 
ENDBRANCH  30  31
ENDBRANCH  29  30
ENDBRANCH  27  29
TORSDOF 8
ENDMDL
MODEL 2
REMARK VINA RESULT:     -11.1      2.416      4.501
REMARK  Name = 
REMARK  8 active torsions:
REMARK  status: ('A' for Active; 'I' for Inactive)
REMARK    1  A    between atoms: N_2  and  C_3
REMARK    2  A    between atoms: C_3  and  C_4
REMARK    3  A    between atoms: C_6  and  C_8
REMARK    4  A    between atoms: C_8  and  C_9
REMARK    5  A    between atoms: C_14  and  C_16
REMARK    6  A    between atoms: C_27  and  C_29
REMARK    7  A    between atoms: C_29  and  O_30
REMARK    8  A    between atoms: O_30  and  C_31
REMARK                            x       y       z     vdW  Elec       q    Type
REMARK                         _______ _______ _______ _____ _____    ______ ____
ROOT
ATOM      9  C   UNL     1      -3.482  -0.227  24.465  0.00  0.00    +0.050 C 
ATOM     10  C   UNL     1      -2.757   0.093  24.696  0.00  0.00    +0.063 A 
ATOM     11  C   UNL     1      -2.114  -0.403  24.835  0.00  0.00    +0.023 A 
ATOM     12  C   UNL     1      -2.194  -1.218  24.743  0.00  0.00    +0.034 C 
ATOM     13  C   UNL     1      -2.918  -1.539  24.512  0.00  0.00    +0.010 C 
ATOM     14  C   UNL     1      -2.998  -2.355  24.420  0.00  0.00    +0.059 C 
ATOM     15  C   UNL     1      -2.206  -2.313  24.647  0.00  0.00    +0.005 C 
ATOM     18  C   UNL     1      -3.723  -2.674  24.189  0.00  0.00    +0.154 C 
ATOM     19  O   UNL     1      -3.803  -3.491  24.097  0.00  0.00    -0.223 OA
ATOM     20  C   UNL     1      -4.367  -2.179  24.050  0.00  0.00    +0.033 C 
ATOM     21  C   UNL     1      -4.287  -1.363  24.142  0.00  0.00    +0.003 C 
ATOM     22  C   UNL     1      -3.563  -1.042  24.373  0.00  0.00    +0.006 C 
ATOM     23  C   UNL     1      -4.206  -0.547  24.234  0.00  0.00    +0.000 C 
ATOM     24  S   UNL     1      -1.473   0.068  25.056  0.00  0.00    -0.054 S 
ATOM     25  C   UNL     1      -1.720   0.854  25.053  0.00  0.00    +0.185 A 
ATOM     26  N   UNL     1      -1.256   1.510  25.239  0.00  0.00    -0.151 NA
ATOM     27  C   UNL     1      -1.582   2.267  25.212  0.00  0.00    +0.292 C 
ATOM     28  O   UNL     1      -2.372   2.369  24.998  0.00  0.00    -0.269 OA
ATOM     37  N   UNL     1      -2.515   0.870  24.830  0.00  0.00    -0.227 NA
ENDROOT
BRANCH  14  16
ATOM     16  C   UNL     1      -2.803  -3.156  24.407  0.00  0.00    +0.184 C 
ATOM     17  O   UNL     1      -2.011  -3.387  24.389  0.00  0.00    -0.220 OA
ENDBRANCH  14  16
BRANCH   9   8
ATOM      8  C   UNL     1      -4.126   0.269  24.325  0.00  0.00    +0.091 C 
BRANCH   8   6
ATOM      1  C   UNL     1      -5.100   1.585  24.114  0.00  0.00    +0.115 C 
ATOM      2  N   UNL     1      -5.049   1.224  24.854  0.00  0.00    -0.274 N 
ATOM      6  C   UNL     1      -4.562   0.567  24.961  0.00  0.00    +0.226 C 
ATOM      7  O   UNL     1      -4.511   0.206  25.700  0.00  0.00    -0.275 OA
BRANCH   2   3
ATOM      3  C   UNL     1      -5.485   1.521  25.489  0.00  0.00    +0.120 C 
BRANCH   3   4
ATOM      4  C   UNL     1      -5.868   2.249  25.421  0.00  0.00    -0.005 C 
ATOM      5  C   UNL     1      -6.070   2.673  26.100  0.00  0.00    -0.003 C 
ENDBRANCH   3   4
ENDBRANCH   2   3
ENDBRANCH   8   6
ENDBRANCH   9   8
BRANCH  27  29
ATOM     29  C   UNL     1      -1.118   2.924  25.398  0.00  0.00    +0.292 C 
BRANCH  29  30
ATOM     30  O   UNL     1      -1.469   3.607  25.697  0.00  0.00    -0.466 OA
BRANCH  30  31
ATOM     31  C   UNL     1      -1.295   4.341  25.364  0.00  0.00    +0.139 A 
ATOM     32  C   UNL     1      -0.563   4.469  25.007  0.00  0.00    +0.037 A 
ATOM     33  C   UNL     1      -0.388   5.203  24.674  0.00  0.00    +0.003 A 
ATOM     34  C   UNL     1      -0.946   5.810  24.699  0.00  0.00    +0.000 A 
ATOM     35  C   UNL     1      -1.679   5.683  25.057  0.00  0.00    +0.003 A 
ATOM     36  C   UNL     1      -1.853   4.948  25.389  0.00  0.00    +0.037 A 
ENDBRANCH  30  31
ENDBRANCH  29  30
ENDBRANCH  27  29
TORSDOF 8
ENDMDL
MODEL 3
REMARK VINA RESULT:     -10.9      2.426      4.451
REMARK  Name = 
REMARK  8 active torsions:
REMARK  status: ('A' for Active; 'I' for Inactive)
REMARK    1  A    between atoms: N_2  and  C_3
REMARK    2  A    between atoms: C_3  and  C_4
REMARK    3  A    between atoms: C_6  and  C_8
REMARK    4  A    between atoms: C_8  and  C_9
REMARK    5  A    between atoms: C_14  and  C_16
REMARK    6  A    between atoms: C_27  and  C_29
REMARK    7  A    between atoms: C_29  and  O_30
REMARK    8  A    between atoms: O_30  and  C_31
REMARK                            x       y       z     vdW  Elec       q    Type
REMARK                         _______ _______ _______ _____ _____    ______ ____
ROOT
ATOM      9  C   UNL     1      -2.669   3.176  25.393  0.00  0.00    +0.050 C 
ATOM     10  C   UNL     1      -2.310   2.460  25.188  0.00  0.00    +0.063 A 
ATOM     11  C   UNL     1      -1.544   2.456  24.883  0.00  0.00    +0.023 A 
ATOM     12  C   UNL     1      -1.136   3.165  24.781  0.00  0.00    +0.034 C 
ATOM     13  C   UNL     1      -1.494   3.880  24.985  0.00  0.00    +0.010 C 
ATOM     14  C   UNL     1      -1.085   4.589  24.884  0.00  0.00    +0.059 C 
ATOM     15  C   UNL     1      -0.517   4.057  24.612  0.00  0.00    +0.005 C 
ATOM     18  C   UNL     1      -1.444   5.304  25.088  0.00  0.00    +0.154 C 
ATOM     19  O   UNL     1      -1.035   6.014  24.986  0.00  0.00    -0.223 OA
ATOM     20  C   UNL     1      -2.210   5.309  25.394  0.00  0.00    +0.033 C 
ATOM     21  C   UNL     1      -2.618   4.600  25.495  0.00  0.00    +0.003 C 
ATOM     22  C   UNL     1      -2.261   3.885  25.291  0.00  0.00    +0.006 C 
ATOM     23  C   UNL     1      -3.026   3.890  25.597  0.00  0.00    +0.000 C 
ATOM     24  S   UNL     1      -1.336   1.672  24.732  0.00  0.00    -0.054 S 
ATOM     25  C   UNL     1      -1.972   1.193  24.944  0.00  0.00    +0.185 A 
ATOM     26  N   UNL     1      -2.002   0.370  24.885  0.00  0.00    -0.151 NA
ATOM     27  C   UNL     1      -2.679  -0.037  25.120  0.00  0.00    +0.292 C 
ATOM     28  O   UNL     1      -3.328   0.379  25.414  0.00  0.00    -0.269 OA
ATOM     37  N   UNL     1      -2.575   1.680  25.227  0.00  0.00    -0.227 NA
ENDROOT
BRANCH  14  16
ATOM     16  C   UNL     1      -0.480   5.114  24.688  0.00  0.00    +0.184 C 
ATOM     17  O   UNL     1       0.060   4.917  24.095  0.00  0.00    -0.220 OA
ENDBRANCH  14  16
BRANCH   9   8
ATOM      8  C   UNL     1      -3.435   3.180  25.698  0.00  0.00    +0.091 C 
BRANCH   8   6
ATOM      1  C   UNL     1      -4.919   2.836  26.331  0.00  0.00    +0.115 C 
ATOM      2  N   UNL     1      -4.821   2.886  25.514  0.00  0.00    -0.274 N 
ATOM      6  C   UNL     1      -4.079   3.058  25.197  0.00  0.00    +0.226 C 
ATOM      7  O   UNL     1      -3.981   3.109  24.380  0.00  0.00    -0.275 OA
BRANCH   2   3
ATOM      3  C   UNL     1      -5.465   2.764  25.012  0.00  0.00    +0.120 C 
BRANCH   3   4
ATOM      4  C   UNL     1      -6.116   2.331  25.276  0.00  0.00    -0.005 C 
ATOM      5  C   UNL     1      -6.555   1.880  24.741  0.00  0.00    -0.003 C 
ENDBRANCH   3   4
ENDBRANCH   2   3
ENDBRANCH   8   6
ENDBRANCH   9   8
BRANCH  27  29
ATOM     29  C   UNL     1      -2.709  -0.859  25.061  0.00  0.00    +0.292 C 
BRANCH  29  30
ATOM     30  O   UNL     1      -3.424  -1.255  25.171  0.00  0.00    -0.466 OA
BRANCH  30  31
ATOM     31  C   UNL     1      -3.583  -1.946  24.748  0.00  0.00    +0.139 A 
ATOM     32  C   UNL     1      -4.096  -1.925  24.103  0.00  0.00    +0.037 A 
ATOM     33  C   UNL     1      -4.255  -2.616  23.680  0.00  0.00    +0.003 A 
ATOM     34  C   UNL     1      -3.901  -3.327  23.902  0.00  0.00    +0.000 A 
ATOM     35  C   UNL     1      -3.387  -3.347  24.549  0.00  0.00    +0.003 A 
ATOM     36  C   UNL     1      -3.229  -2.656  24.971  0.00  0.00    +0.037 A 
ENDBRANCH  30  31
ENDBRANCH  29  30
ENDBRANCH  27  29
TORSDOF 8
ENDMDL
MODEL 4
REMARK VINA RESULT:      -9.9      2.016      3.692
REMARK  Name = 
REMARK  8 active torsions:
REMARK  status: ('A' for Active; 'I' for Inactive)
REMARK    1  A    between atoms: N_2  and  C_3
REMARK    2  A    between atoms: C_3  and  C_4
REMARK    3  A    between atoms: C_6  and  C_8
REMARK    4  A    between atoms: C_8  and  C_9
REMARK    5  A    between atoms: C_14  and  C_16
REMARK    6  A    between atoms: C_27  and  C_29
REMARK    7  A    between atoms: C_29  and  O_30
REMARK    8  A    between atoms: O_30  and  C_31
REMARK                            x       y       z     vdW  Elec       q    Type
REMARK                         _______ _______ _______ _____ _____    ______ ____
ROOT
ATOM      9  C   UNL     1      -1.836   0.502  24.329  0.00  0.00    +0.050 C 
ATOM     10  C   UNL     1      -1.162   0.048  24.186  0.00  0.00    +0.063 A 
ATOM     11  C   UNL     1      -1.151  -0.750  24.396  0.00  0.00    +0.023 A 
ATOM     12  C   UNL     1      -1.813  -1.094  24.747  0.00  0.00    +0.034 C 
ATOM     13  C   UNL     1      -2.487  -0.640  24.890  0.00  0.00    +0.010 C 
ATOM     14  C   UNL     1      -3.149  -0.984  25.241  0.00  0.00    +0.059 C 
ATOM     15  C   UNL     1      -2.645  -1.636  25.218  0.00  0.00    +0.005 C 
ATOM     18  C   UNL     1      -3.823  -0.530  25.383  0.00  0.00    +0.154 C 
ATOM     19  O   UNL     1      -4.486  -0.874  25.735  0.00  0.00    -0.223 OA
ATOM     20  C   UNL     1      -3.834   0.268  25.175  0.00  0.00    +0.033 C 
ATOM     21  C   UNL     1      -3.172   0.612  24.823  0.00  0.00    +0.003 C 
ATOM     22  C   UNL     1      -2.498   0.158  24.680  0.00  0.00    +0.006 C 
ATOM     23  C   UNL     1      -2.510   0.956  24.472  0.00  0.00    +0.000 C 
ATOM     24  S   UNL     1      -0.413  -1.057  24.189  0.00  0.00    -0.054 S 
ATOM     25  C   UNL     1       0.031  -0.449  23.852  0.00  0.00    +0.185 A 
ATOM     26  N   UNL     1       0.803  -0.512  23.567  0.00  0.00    -0.151 NA
ATOM     27  C   UNL     1       1.178   0.146  23.243  0.00  0.00    +0.292 C 
ATOM     28  O   UNL     1       0.783   0.869  23.205  0.00  0.00    -0.269 OA
ATOM     37  N   UNL     1      -0.432   0.234  23.851  0.00  0.00    -0.227 NA
ENDROOT
BRANCH  14  16
ATOM     16  C   UNL     1      -3.636  -1.554  25.584  0.00  0.00    +0.184 C 
ATOM     17  O   UNL     1      -3.483  -2.356  25.460  0.00  0.00    -0.220 OA
ENDBRANCH  14  16
BRANCH   9   8
ATOM      8  C   UNL     1      -1.847   1.300  24.120  0.00  0.00    +0.091 C 
BRANCH   8   6
ATOM      1  C   UNL     1      -1.695   2.866  23.624  0.00  0.00    +0.115 C 
ATOM      2  N   UNL     1      -1.443   2.646  24.378  0.00  0.00    -0.274 N 
ATOM      6  C   UNL     1      -1.519   1.863  24.627  0.00  0.00    +0.226 C 
ATOM      7  O   UNL     1      -1.267   1.643  25.380  0.00  0.00    -0.275 OA
BRANCH   2   3
ATOM      3  C   UNL     1      -1.114   3.209  24.884  0.00  0.00    +0.120 C 
BRANCH   3   4
ATOM      4  C   UNL     1      -0.986   3.979  24.616  0.00  0.00    -0.005 C 
ATOM      5  C   UNL     1      -0.952   4.603  25.156  0.00  0.00    -0.003 C 
ENDBRANCH   3   4
ENDBRANCH   2   3
ENDBRANCH   8   6
ENDBRANCH   9   8
BRANCH  27  29
ATOM     29  C   UNL     1       1.950   0.083  22.958  0.00  0.00    +0.292 C 
BRANCH  29  30
ATOM     30  O   UNL     1       2.489   0.693  23.087  0.00  0.00    -0.466 OA
BRANCH  30  31
ATOM     31  C   UNL     1       3.300   0.545  23.042  0.00  0.00    +0.139 A 
ATOM     32  C   UNL     1       3.797   1.081  22.661  0.00  0.00    +0.037 A 
ATOM     33  C   UNL     1       4.607   0.933  22.616  0.00  0.00    +0.003 A 
ATOM     34  C   UNL     1       4.920   0.247  22.952  0.00  0.00    +0.000 A 
ATOM     35  C   UNL     1       4.423  -0.290  23.334  0.00  0.00    +0.003 A 
ATOM     36  C   UNL     1       3.613  -0.140  23.378  0.00  0.00    +0.037 A 
ENDBRANCH  30  31
ENDBRANCH  29  30
ENDBRANCH  27  29
TORSDOF 8
ENDMDL
MODEL 5
REMARK VINA RESULT:      -9.6      1.575      3.196
REMARK  Name = 
REMARK  8 active torsions:
REMARK  status: ('A' for Active; 'I' for Inactive)
REMARK    1  A    between atoms: N_2  and  C_3
REMARK    2  A    between atoms: C_3  and  C_4
REMARK    3  A    between atoms: C_6  and  C_8
REMARK    4  A    between atoms: C_8  and  C_9
REMARK    5  A    between atoms: C_14  and  C_16
REMARK    6  A    between atoms: C_27  and  C_29
REMARK    7  A    between atoms: C_29  and  O_30
REMARK    8  A    between atoms: O_30  and  C_31
REMARK                            x       y       z     vdW  Elec       q    Type
REMARK                         _______ _______ _______ _____ _____    ______ ____
ROOT
ATOM      9  C   UNL     1      -3.316   2.497  25.182  0.00  0.00    +0.050 C 
ATOM     10  C   UNL     1      -3.003   1.873  24.742  0.00  0.00    +0.063 A 
ATOM     11  C   UNL     1      -3.506   1.310  24.410  0.00  0.00    +0.023 A 
ATOM     12  C   UNL     1      -4.320   1.369  24.519  0.00  0.00    +0.034 C 
ATOM     13  C   UNL     1      -4.634   1.993  24.959  0.00  0.00    +0.010 C 
ATOM     14  C   UNL     1      -5.450   2.053  25.067  0.00  0.00    +0.059 C 
ATOM     15  C   UNL     1      -5.416   1.368  24.609  0.00  0.00    +0.005 C 
ATOM     18  C   UNL     1      -5.762   2.677  25.508  0.00  0.00    +0.154 C 
ATOM     19  O   UNL     1      -6.579   2.737  25.616  0.00  0.00    -0.223 OA
ATOM     20  C   UNL     1      -5.260   3.240  25.839  0.00  0.00    +0.033 C 
ATOM     21  C   UNL     1      -4.444   3.180  25.731  0.00  0.00    +0.003 C 
ATOM     22  C   UNL     1      -4.131   2.557  25.291  0.00  0.00    +0.006 C 
ATOM     23  C   UNL     1      -3.628   3.120  25.622  0.00  0.00    +0.000 C 
ATOM     24  S   UNL     1      -3.041   0.760  24.006  0.00  0.00    -0.054 S 
ATOM     25  C   UNL     1      -2.252   0.984  24.088  0.00  0.00    +0.185 A 
ATOM     26  N   UNL     1      -1.599   0.589  23.772  0.00  0.00    -0.151 NA
ATOM     27  C   UNL     1      -0.839   0.880  23.901  0.00  0.00    +0.292 C 
ATOM     28  O   UNL     1      -0.729   1.565  24.346  0.00  0.00    -0.269 OA
ATOM     37  N   UNL     1      -2.227   1.672  24.543  0.00  0.00    -0.227 NA
ENDROOT
BRANCH  14  16
ATOM     16  C   UNL     1      -6.253   1.875  25.017  0.00  0.00    +0.184 C 
ATOM     17  O   UNL     1      -6.501   1.197  24.615  0.00  0.00    -0.220 OA
ENDBRANCH  14  16
BRANCH   9   8
ATOM      8  C   UNL     1      -2.813   3.060  25.514  0.00  0.00    +0.091 C 
BRANCH   8   6
ATOM      1  C   UNL     1      -1.588   4.014  26.072  0.00  0.00    +0.115 C 
ATOM      2  N   UNL     1      -1.922   4.163  25.333  0.00  0.00    -0.274 N 
ATOM      6  C   UNL     1      -2.534   3.686  25.053  0.00  0.00    +0.226 C 
ATOM      7  O   UNL     1      -2.868   3.835  24.315  0.00  0.00    -0.275 OA
BRANCH   2   3
ATOM      3  C   UNL     1      -1.643   4.789  24.872  0.00  0.00    +0.120 C 
BRANCH   3   4
ATOM      4  C   UNL     1      -0.865   5.048  24.957  0.00  0.00    -0.005 C 
ATOM      5  C   UNL     1      -0.614   5.733  24.570  0.00  0.00    -0.003 C 
ENDBRANCH   3   4
ENDBRANCH   2   3
ENDBRANCH   8   6
ENDBRANCH   9   8
BRANCH  27  29
ATOM     29  C   UNL     1      -0.187   0.486  23.584  0.00  0.00    +0.292 C 
BRANCH  29  30
ATOM     30  O   UNL     1       0.576   0.749  23.752  0.00  0.00    -0.466 OA
BRANCH  30  31
ATOM     31  C   UNL     1       1.211   0.500  23.287  0.00  0.00    +0.139 A 
ATOM     32  C   UNL     1       1.114  -0.121  22.754  0.00  0.00    +0.037 A 
ATOM     33  C   UNL     1       1.749  -0.370  22.289  0.00  0.00    +0.003 A 
ATOM     34  C   UNL     1       2.481   0.004  22.357  0.00  0.00    +0.000 A 
ATOM     35  C   UNL     1       2.579   0.626  22.891  0.00  0.00    +0.003 A 
ATOM     36  C   UNL     1       1.943   0.874  23.355  0.00  0.00    +0.037 A 
ENDBRANCH  30  31
ENDBRANCH  29  30
ENDBRANCH  27  29
TORSDOF 8
ENDMDL
MODEL 6
REMARK VINA RESULT:      -9.3      2.017      4.742
REMARK  Name = 
REMARK  8 active torsions:
REMARK  status: ('A' for Active; 'I' for Inactive)
REMARK    1  A    between atoms: N_2  and  C_3
REMARK    2  A    between atoms: C_3  and  C_4
REMARK    3  A    between atoms: C_6  and  C_8
REMARK    4  A    between atoms: C_8  and  C_9
REMARK    5  A    between atoms: C_14  and  C_16
REMARK    6  A    between atoms: C_27  and  C_29
REMARK    7  A    between atoms: C_29  and  O_30
REMARK    8  A    between atoms: O_30  and  C_31
REMARK                            x       y       z     vdW  Elec       q    Type
REMARK                         _______ _______ _______ _____ _____    ______ ____
ROOT
ATOM      9  C   UNL     1      -2.090  -0.821  24.576  0.00  0.00    +0.050 C 
ATOM     10  C   UNL     1      -2.518  -0.119  24.660  0.00  0.00    +0.063 A 
ATOM     11  C   UNL     1      -3.342  -0.132  24.617  0.00  0.00    +0.023 A 
ATOM     12  C   UNL     1      -3.737  -0.843  24.491  0.00  0.00    +0.034 C 
ATOM     13  C   UNL     1      -3.311  -1.544  24.407  0.00  0.00    +0.010 C 
ATOM     14  C   UNL     1      -3.707  -2.257  24.280  0.00  0.00    +0.059 C 
ATOM     15  C   UNL     1      -4.349  -1.742  24.325  0.00  0.00    +0.005 C 
ATOM     18  C   UNL     1      -3.279  -2.957  24.196  0.00  0.00    +0.154 C 
ATOM     19  O   UNL     1      -3.675  -3.670  24.070  0.00  0.00    -0.223 OA
ATOM     20  C   UNL     1      -2.456  -2.946  24.239  0.00  0.00    +0.033 C 
ATOM     21  C   UNL     1      -2.059  -2.233  24.366  0.00  0.00    +0.003 C 
ATOM     22  C   UNL     1      -2.486  -1.532  24.450  0.00  0.00    +0.006 C 
ATOM     23  C   UNL     1      -1.663  -1.521  24.493  0.00  0.00    +0.000 C 
ATOM     24  S   UNL     1      -3.613   0.641  24.720  0.00  0.00    -0.054 S 
ATOM     25  C   UNL     1      -2.958   1.130  24.826  0.00  0.00    +0.185 A 
ATOM     26  N   UNL     1      -2.975   1.946  24.947  0.00  0.00    -0.151 NA
ATOM     27  C   UNL     1      -2.271   2.364  25.045  0.00  0.00    +0.292 C 
ATOM     28  O   UNL     1      -1.549   1.966  25.022  0.00  0.00    -0.269 OA
ATOM     37  N   UNL     1      -2.280   0.660  24.789  0.00  0.00    -0.227 NA
ENDROOT
BRANCH  14  16
ATOM     16  C   UNL     1      -4.326  -2.790  24.169  0.00  0.00    +0.184 C 
ATOM     17  O   UNL     1      -5.009  -2.552  23.772  0.00  0.00    -0.220 OA
ENDBRANCH  14  16
BRANCH   9   8
ATOM      8  C   UNL     1      -1.267  -0.808  24.619  0.00  0.00    +0.091 C 
BRANCH   8   6
ATOM      1  C   UNL     1       0.371  -0.648  24.742  0.00  0.00    +0.115 C 
ATOM      2  N   UNL     1      -0.004  -0.509  24.021  0.00  0.00    -0.274 N 
ATOM      6  C   UNL     1      -0.823  -0.589  23.959  0.00  0.00    +0.226 C 
ATOM      7  O   UNL     1      -1.197  -0.450  23.238  0.00  0.00    -0.275 OA
BRANCH   2   3
ATOM      3  C   UNL     1       0.440  -0.289  23.360  0.00  0.00    +0.120 C 
BRANCH   3   4
ATOM      4  C   UNL     1       1.253  -0.170  23.431  0.00  0.00    -0.005 C 
ATOM      5  C   UNL     1       1.699   0.037  22.768  0.00  0.00    -0.003 C 
ENDBRANCH   3   4
ENDBRANCH   2   3
ENDBRANCH   8   6
ENDBRANCH   9   8
BRANCH  27  29
ATOM     29  C   UNL     1      -2.289   3.180  25.167  0.00  0.00    +0.292 C 
BRANCH  29  30
ATOM     30  O   UNL     1      -1.621   3.569  25.454  0.00  0.00    -0.466 OA
BRANCH  30  31
ATOM     31  C   UNL     1      -1.479   4.354  25.245  0.00  0.00    +0.139 A 
ATOM     32  C   UNL     1      -2.048   4.931  25.396  0.00  0.00    +0.037 A 
ATOM     33  C   UNL     1      -1.905   5.717  25.187  0.00  0.00    +0.003 A 
ATOM     34  C   UNL     1      -1.193   5.925  24.827  0.00  0.00    +0.000 A 
ATOM     35  C   UNL     1      -0.622   5.347  24.676  0.00  0.00    +0.003 A 
ATOM     36  C   UNL     1      -0.766   4.562  24.885  0.00  0.00    +0.037 A 
ENDBRANCH  30  31
ENDBRANCH  29  30
ENDBRANCH  27  29
TORSDOF 8
ENDMDL
MODEL 7
REMARK VINA RESULT:      -9.0      1.766      4.507
REMARK  Name = 
REMARK  8 active torsions:
REMARK  status: ('A' for Active; 'I' for Inactive)
REMARK    1  A    between atoms: N_2  and  C_3
REMARK    2  A    between atoms: C_3  and  C_4
REMARK    3  A    between atoms: C_6  and  C_8
REMARK    4  A    between atoms: C_8  and  C_9
REMARK    5  A    between atoms: C_14  and  C_16
REMARK    6  A    between atoms: C_27  and  C_29
REMARK    7  A    between atoms: C_29  and  O_30
REMARK    8  A    between atoms: O_30  and  C_31
REMARK                            x       y       z     vdW  Elec       q    Type
REMARK                         _______ _______ _______ _____ _____    ______ ____
ROOT
ATOM      9  C   UNL     1      -1.357   2.596  24.916  0.00  0.00    +0.050 C 
ATOM     10  C   UNL     1      -2.127   2.299  24.931  0.00  0.00    +0.063 A 
ATOM     11  C   UNL     1      -2.767   2.816  24.987  0.00  0.00    +0.023 A 
ATOM     12  C   UNL     1      -2.638   3.629  25.028  0.00  0.00    +0.034 C 
ATOM     13  C   UNL     1      -1.869   3.927  25.013  0.00  0.00    +0.010 C 
ATOM     14  C   UNL     1      -1.740   4.740  25.054  0.00  0.00    +0.059 C 
ATOM     15  C   UNL     1      -2.564   4.724  25.087  0.00  0.00    +0.005 C 
ATOM     18  C   UNL     1      -0.970   5.037  25.038  0.00  0.00    +0.154 C 
ATOM     19  O   UNL     1      -0.841   5.852  25.079  0.00  0.00    -0.223 OA
ATOM     20  C   UNL     1      -0.330   4.521  24.982  0.00  0.00    +0.033 C 
ATOM     21  C   UNL     1      -0.459   3.707  24.941  0.00  0.00    +0.003 C 
ATOM     22  C   UNL     1      -1.228   3.409  24.957  0.00  0.00    +0.006 C 
ATOM     23  C   UNL     1      -0.588   2.893  24.901  0.00  0.00    +0.000 C 
ATOM     24  S   UNL     1      -3.458   2.365  24.991  0.00  0.00    -0.054 S 
ATOM     25  C   UNL     1      -3.245   1.571  24.937  0.00  0.00    +0.185 A 
ATOM     26  N   UNL     1      -3.764   0.929  24.922  0.00  0.00    -0.151 NA
ATOM     27  C   UNL     1      -3.469   0.161  24.866  0.00  0.00    +0.292 C 
ATOM     28  O   UNL     1      -2.655   0.034  24.825  0.00  0.00    -0.269 OA
ATOM     37  N   UNL     1      -2.422   1.529  24.900  0.00  0.00    -0.227 NA
ENDROOT
BRANCH  14  16
ATOM     16  C   UNL     1      -1.897   5.548  25.106  0.00  0.00    +0.184 C 
ATOM     17  O   UNL     1      -2.582   5.811  25.484  0.00  0.00    -0.220 OA
ENDBRANCH  14  16
BRANCH   9   8
ATOM      8  C   UNL     1      -0.717   2.079  24.860  0.00  0.00    +0.091 C 
BRANCH   8   6
ATOM      1  C   UNL     1       0.330   0.806  24.788  0.00  0.00    +0.115 C 
ATOM      2  N   UNL     1       0.010   1.116  24.094  0.00  0.00    -0.274 N 
ATOM      6  C   UNL     1      -0.513   1.753  24.129  0.00  0.00    +0.226 C 
ATOM      7  O   UNL     1      -0.833   2.063  23.436  0.00  0.00    -0.275 OA
BRANCH   2   3
ATOM      3  C   UNL     1       0.213   0.790  23.363  0.00  0.00    +0.120 C 
BRANCH   3   4
ATOM      4  C   UNL     1       0.640   0.085  23.331  0.00  0.00    -0.005 C 
ATOM      5  C   UNL     1       1.001  -0.147  22.626  0.00  0.00    -0.003 C 
ENDBRANCH   3   4
ENDBRANCH   2   3
ENDBRANCH   8   6
ENDBRANCH   9   8
BRANCH  27  29
ATOM     29  C   UNL     1      -3.987  -0.481  24.851  0.00  0.00    +0.292 C 
BRANCH  29  30
ATOM     30  O   UNL     1      -3.761  -1.202  25.180  0.00  0.00    -0.466 OA
BRANCH  30  31
ATOM     31  C   UNL     1      -3.840  -1.898  24.744  0.00  0.00    +0.139 A 
ATOM     32  C   UNL     1      -4.346  -1.923  24.094  0.00  0.00    +0.037 A 
ATOM     33  C   UNL     1      -4.425  -2.620  23.658  0.00  0.00    +0.003 A 
ATOM     34  C   UNL     1      -3.997  -3.291  23.874  0.00  0.00    +0.000 A 
ATOM     35  C   UNL     1      -3.490  -3.267  24.525  0.00  0.00    +0.003 A 
ATOM     36  C   UNL     1      -3.412  -2.570  24.960  0.00  0.00    +0.037 A 
ENDBRANCH  30  31
ENDBRANCH  29  30
ENDBRANCH  27  29
TORSDOF 8
ENDMDL
