MODEL 1
REMARK VINA RESULT:     -11.5      0.000      0.000
REMARK  Name = 
REMARK  2 active torsions:
REMARK  status: ('A' for Active; 'I' for Inactive)
REMARK    1  A    between atoms: C_4  and  C_5
REMARK    2  A    between atoms: C_5  and  N_6
REMARK                            x       y       z     vdW  Elec       q    Type
REMARK                         _______ _______ _______ _____ _____    ______ ____
ROOT
ATOM      5  C   UNL     1      -3.988   0.359  24.021  0.00  0.00    +0.101 C 
ENDROOT
BRANCH   5   4
ATOM      1  C   UNL     1      -2.061  -0.898  25.793  0.00  0.00    +0.130 C 
ATOM      2  N   UNL     1      -2.668  -0.788  25.246  0.00  0.00    -0.324 N 
ATOM      3  C   UNL     1      -2.946  -0.062  24.969  0.00  0.00    +0.073 A 
ATOM      4  C   UNL     1      -3.554  -0.210  24.432  0.00  0.00    +0.012 A 
ATOM     16  C   UNL     1      -3.653  -1.027  24.378  0.00  0.00    +0.015 A 
ATOM     17  C   UNL     1      -3.105  -1.384  24.881  0.00  0.00    +0.060 A 
ATOM     18  C   UNL     1      -3.076  -2.207  24.941  0.00  0.00    +0.017 A 
ATOM     19  C   UNL     1      -3.594  -2.672  24.498  0.00  0.00    +0.001 A 
ATOM     20  C   UNL     1      -4.141  -2.314  23.995  0.00  0.00    +0.000 A 
ATOM     21  C   UNL     1      -4.171  -1.492  23.934  0.00  0.00    +0.001 A 
ENDBRANCH   5   4
BRANCH   5   6
ATOM      6  N   UNL     1      -4.165   1.080  24.381  0.00  0.00    -0.266 NA
ATOM      7  C   UNL     1      -3.653   1.722  24.292  0.00  0.00    +0.094 C 
ATOM      8  C   UNL     1      -3.829   2.443  24.651  0.00  0.00    +0.112 C 
ATOM      9  N   UNL     1      -4.518   2.523  25.099  0.00  0.00    -0.260 N 
ATOM     10  C   UNL     1      -5.029   1.883  25.187  0.00  0.00    +0.115 C 
ATOM     11  C   UNL     1      -5.662   2.125  25.657  0.00  0.00    +0.138 C 
ATOM     12  N   UNL     1      -5.542   2.916  25.860  0.00  0.00    -0.187 NA
ATOM     13  C   UNL     1      -4.835   3.162  25.515  0.00  0.00    +0.323 C 
ATOM     14  O   UNL     1      -4.502   3.915  25.574  0.00  0.00    -0.251 OA
ATOM     15  C   UNL     1      -4.853   1.161  24.828  0.00  0.00    +0.094 C 
ENDBRANCH   5   6
TORSDOF 2
ENDMDL
MODEL 2
REMARK VINA RESULT:     -10.3      2.307      3.375
REMARK  Name = 
REMARK  2 active torsions:
REMARK  status: ('A' for Active; 'I' for Inactive)
REMARK    1  A    between atoms: C_4  and  C_5
REMARK    2  A    between atoms: C_5  and  N_6
REMARK                            x       y       z     vdW  Elec       q    Type
REMARK                         _______ _______ _______ _____ _____    ______ ____
ROOT
ATOM      5  C   UNL     1      -1.805  -0.636  25.338  0.00  0.00    +0.101 C 
ENDROOT
BRANCH   5   4
ATOM      1  C   UNL     1      -4.377   0.252  24.324  0.00  0.00    +0.130 C 
ATOM      2  N   UNL     1      -3.743  -0.229  24.541  0.00  0.00    -0.324 N 
ATOM      3  C   UNL     1      -3.036   0.026  24.882  0.00  0.00    +0.073 A 
ATOM      4  C   UNL     1      -2.561  -0.637  25.007  0.00  0.00    +0.012 A 
ATOM     16  C   UNL     1      -2.974  -1.300  24.744  0.00  0.00    +0.015 A 
ATOM     17  C   UNL     1      -3.704  -1.048  24.456  0.00  0.00    +0.060 A 
ATOM     18  C   UNL     1      -4.240  -1.598  24.153  0.00  0.00    +0.017 A 
ATOM     19  C   UNL     1      -4.045  -2.399  24.138  0.00  0.00    +0.001 A 
ATOM     20  C   UNL     1      -3.315  -2.651  24.426  0.00  0.00    +0.000 A 
ATOM     21  C   UNL     1      -2.778  -2.102  24.729  0.00  0.00    +0.001 A 
ENDBRANCH   5   4
BRANCH   5   6
ATOM      6  N   UNL     1      -1.280  -0.024  25.163  0.00  0.00    -0.266 NA
ATOM      7  C   UNL     1      -0.827  -0.053  24.474  0.00  0.00    +0.094 C 
ATOM      8  C   UNL     1      -0.302   0.559  24.298  0.00  0.00    +0.112 C 
ATOM      9  N   UNL     1      -0.229   1.200  24.813  0.00  0.00    -0.260 N 
ATOM     10  C   UNL     1      -0.681   1.229  25.502  0.00  0.00    +0.115 C 
ATOM     11  C   UNL     1      -0.492   1.925  25.902  0.00  0.00    +0.138 C 
ATOM     12  N   UNL     1       0.077   2.327  25.459  0.00  0.00    -0.187 NA
ATOM     13  C   UNL     1       0.239   1.878  24.787  0.00  0.00    +0.323 C 
ATOM     14  O   UNL     1       0.776   2.074  24.191  0.00  0.00    -0.251 OA
ATOM     15  C   UNL     1      -1.206   0.617  25.678  0.00  0.00    +0.094 C 
ENDBRANCH   5   6
TORSDOF 2
ENDMDL
MODEL 3
REMARK VINA RESULT:     -10.2      1.721      4.317
REMARK  Name = 
REMARK  2 active torsions:
REMARK  status: ('A' for Active; 'I' for Inactive)
REMARK    1  A    between atoms: C_4  and  C_5
REMARK    2  A    between atoms: C_5  and  N_6
REMARK                            x       y       z     vdW  Elec       q    Type
REMARK                         _______ _______ _______ _____ _____    ______ ____
ROOT
ATOM      5  C   UNL     1      -3.631   0.902  24.208  0.00  0.00    +0.101 C 
ENDROOT
BRANCH   5   4
ATOM      1  C   UNL     1      -5.983   1.873  25.608  0.00  0.00    +0.130 C 
ATOM      2  N   UNL     1      -5.256   1.848  25.220  0.00  0.00    -0.324 N 
ATOM      3  C   UNL     1      -4.890   1.173  24.917  0.00  0.00    +0.073 A 
ATOM      4  C   UNL     1      -4.175   1.402  24.576  0.00  0.00    +0.012 A 
ATOM     16  C   UNL     1      -4.098   2.217  24.669  0.00  0.00    +0.015 A 
ATOM     17  C   UNL     1      -4.766   2.493  25.067  0.00  0.00    +0.060 A 
ATOM     18  C   UNL     1      -4.841   3.297  25.237  0.00  0.00    +0.017 A 
ATOM     19  C   UNL     1      -4.249   3.825  25.011  0.00  0.00    +0.001 A 
ATOM     20  C   UNL     1      -3.581   3.549  24.613  0.00  0.00    +0.000 A 
ATOM     21  C   UNL     1      -3.505   2.745  24.442  0.00  0.00    +0.001 A 
ENDBRANCH   5   4
BRANCH   5   6
ATOM      6  N   UNL     1      -3.604   0.102  24.409  0.00  0.00    -0.266 NA
ATOM      7  C   UNL     1      -3.223  -0.136  25.102  0.00  0.00    +0.094 C 
ATOM      8  C   UNL     1      -3.196  -0.935  25.304  0.00  0.00    +0.112 C 
ATOM      9  N   UNL     1      -3.551  -1.497  24.813  0.00  0.00    -0.260 N 
ATOM     10  C   UNL     1      -3.931  -1.259  24.122  0.00  0.00    +0.115 C 
ATOM     11  C   UNL     1      -4.229  -1.932  23.749  0.00  0.00    +0.138 C 
ATOM     12  N   UNL     1      -4.032  -2.587  24.212  0.00  0.00    -0.187 NA
ATOM     13  C   UNL     1      -3.613  -2.317  24.869  0.00  0.00    +0.323 C 
ATOM     14  O   UNL     1      -3.308  -2.787  25.476  0.00  0.00    -0.251 OA
ATOM     15  C   UNL     1      -3.958  -0.459  23.919  0.00  0.00    +0.094 C 
ENDBRANCH   5   6
TORSDOF 2
ENDMDL
MODEL 4
REMARK VINA RESULT:     -10.1      2.249      4.192
REMARK  Name = 
REMARK  2 active torsions:
REMARK  status: ('A' for Active; 'I' for Inactive)
REMARK    1  A    between atoms: C_4  and  C_5
REMARK    2  A    between atoms: C_5  and  N_6
REMARK                            x       y       z     vdW  Elec       q    Type
REMARK                         _______ _______ _______ _____ _____    ______ ____
ROOT
ATOM      5  C   UNL     1      -3.464   1.599  23.942  0.00  0.00    +0.101 C 
ENDROOT
BRANCH   5   4
ATOM      1  C   UNL     1      -3.467   3.880  25.739  0.00  0.00    +0.130 C 
ATOM      2  N   UNL     1      -3.710   3.218  25.312  0.00  0.00    -0.324 N 
ATOM      3  C   UNL     1      -3.246   2.781  24.787  0.00  0.00    +0.073 A 
ATOM      4  C   UNL     1      -3.709   2.169  24.486  0.00  0.00    +0.012 A 
ATOM     16  C   UNL     1      -4.459   2.226  24.824  0.00  0.00    +0.015 A 
ATOM     17  C   UNL     1      -4.460   2.875  25.334  0.00  0.00    +0.060 A 
ATOM     18  C   UNL     1      -5.144   3.068  25.754  0.00  0.00    +0.017 A 
ATOM     19  C   UNL     1      -5.826   2.614  25.663  0.00  0.00    +0.001 A 
ATOM     20  C   UNL     1      -5.825   1.966  25.152  0.00  0.00    +0.000 A 
ATOM     21  C   UNL     1      -5.142   1.772  24.733  0.00  0.00    +0.001 A 
ENDBRANCH   5   4
BRANCH   5   6
ATOM      6  N   UNL     1      -2.683   1.333  23.946  0.00  0.00    -0.266 NA
ATOM      7  C   UNL     1      -2.117   1.708  23.477  0.00  0.00    +0.094 C 
ATOM      8  C   UNL     1      -1.336   1.443  23.481  0.00  0.00    +0.112 C 
ATOM      9  N   UNL     1      -1.121   0.802  23.955  0.00  0.00    -0.260 N 
ATOM     10  C   UNL     1      -1.687   0.427  24.424  0.00  0.00    +0.115 C 
ATOM     11  C   UNL     1      -1.315  -0.186  24.831  0.00  0.00    +0.138 C 
ATOM     12  N   UNL     1      -0.519  -0.190  24.614  0.00  0.00    -0.187 NA
ATOM     13  C   UNL     1      -0.399   0.420  24.073  0.00  0.00    +0.323 C 
ATOM     14  O   UNL     1       0.317   0.615  23.712  0.00  0.00    -0.251 OA
ATOM     15  C   UNL     1      -2.468   0.693  24.420  0.00  0.00    +0.094 C 
ENDBRANCH   5   6
TORSDOF 2
ENDMDL
