MODEL 1
REMARK VINA RESULT:     -11.8      0.000      0.000
REMARK  Name = 
REMARK  2 active torsions:
REMARK  status: ('A' for Active; 'I' for Inactive)
REMARK    1  A    between atoms: C_5  and  N_8
REMARK    2  A    between atoms: C_11  and  C_13
REMARK                            x       y       z     vdW  Elec       q    Type
REMARK                         _______ _______ _______ _____ _____    ______ ____
ROOT
ATOM      8  N   UNL     1      -3.909   0.289  24.736  0.00  0.00    -0.273 NA
ATOM      9  C   UNL     1      -4.606   0.725  24.663  0.00  0.00    +0.073 C 
ATOM     10  C   UNL     1      -4.418   1.524  24.749  0.00  0.00    +0.028 C 
ATOM     11  C   UNL     1      -3.604   1.582  24.876  0.00  0.00    +0.094 C 
ATOM     12  C   UNL     1      -3.290   0.820  24.867  0.00  0.00    +0.081 C 
ENDROOT
BRANCH  11  13
ATOM     13  C   UNL     1      -3.180   2.280  24.990  0.00  0.00    +0.207 A 
ATOM     14  N   UNL     1      -2.474   2.486  24.616  0.00  0.00    -0.212 NA
ATOM     15  C   UNL     1      -2.246   3.228  24.894  0.00  0.00    +0.118 A 
ATOM     16  C   UNL     1      -2.811   3.482  25.438  0.00  0.00    +0.164 A 
ATOM     17  O   UNL     1      -3.388   2.896  25.498  0.00  0.00    -0.438 OA
ATOM     18  C   UNL     1      -2.726   4.214  25.810  0.00  0.00    +0.039 A 
ATOM     19  C   UNL     1      -2.077   4.692  25.636  0.00  0.00    -0.001 A 
ATOM     20  C   UNL     1      -1.512   4.438  25.092  0.00  0.00    -0.020 A 
ATOM     21  C   UNL     1      -0.862   4.915  24.918  0.00  0.00    +0.031 C 
ATOM     22  C   UNL     1      -1.596   3.706  24.720  0.00  0.00    +0.018 A 
ENDBRANCH  11  13
BRANCH   8   5
ATOM      1  C   UNL     1      -3.640  -2.994  24.536  0.00  0.00    +0.090 C 
ATOM      2  N   UNL     1      -3.707  -2.173  24.587  0.00  0.00    -0.271 NA
ATOM      3  C   UNL     1      -4.003  -1.743  23.948  0.00  0.00    +0.074 C 
ATOM      4  C   UNL     1      -4.070  -0.923  23.997  0.00  0.00    +0.033 C 
ATOM      5  C   UNL     1      -3.841  -0.531  24.686  0.00  0.00    +0.060 C 
ATOM      6  C   UNL     1      -3.546  -0.961  25.326  0.00  0.00    +0.033 C 
ATOM      7  C   UNL     1      -3.479  -1.782  25.276  0.00  0.00    +0.074 C 
ENDBRANCH   8   5
TORSDOF 2
ENDMDL
MODEL 2
REMARK VINA RESULT:     -11.8      1.013      5.101
REMARK  Name = 
REMARK  2 active torsions:
REMARK  status: ('A' for Active; 'I' for Inactive)
REMARK    1  A    between atoms: C_5  and  N_8
REMARK    2  A    between atoms: C_11  and  C_13
REMARK                            x       y       z     vdW  Elec       q    Type
REMARK                         _______ _______ _______ _____ _____    ______ ____
ROOT
ATOM      8  N   UNL     1      -3.455   2.388  24.918  0.00  0.00    -0.273 NA
ATOM      9  C   UNL     1      -4.278   2.382  24.871  0.00  0.00    +0.073 C 
ATOM     10  C   UNL     1      -4.522   1.599  24.776  0.00  0.00    +0.028 C 
ATOM     11  C   UNL     1      -3.849   1.122  24.764  0.00  0.00    +0.094 C 
ATOM     12  C   UNL     1      -3.190   1.609  24.852  0.00  0.00    +0.081 C 
ENDROOT
BRANCH  11  13
ATOM     13  C   UNL     1      -3.838   0.301  24.680  0.00  0.00    +0.207 A 
ATOM     14  N   UNL     1      -3.492  -0.236  25.202  0.00  0.00    -0.212 NA
ATOM     15  C   UNL     1      -3.611  -0.995  24.903  0.00  0.00    +0.118 A 
ATOM     16  C   UNL     1      -4.030  -0.927  24.196  0.00  0.00    +0.164 A 
ATOM     17  O   UNL     1      -4.171  -0.127  24.057  0.00  0.00    -0.438 OA
ATOM     18  C   UNL     1      -4.230  -1.605  23.769  0.00  0.00    +0.039 A 
ATOM     19  C   UNL     1      -4.011  -2.349  24.049  0.00  0.00    -0.001 A 
ATOM     20  C   UNL     1      -3.592  -2.416  24.757  0.00  0.00    -0.020 A 
ATOM     21  C   UNL     1      -3.372  -3.160  25.038  0.00  0.00    +0.031 C 
ATOM     22  C   UNL     1      -3.392  -1.739  25.184  0.00  0.00    +0.018 A 
ENDBRANCH  11  13
BRANCH   8   5
ATOM      1  C   UNL     1      -1.552   5.058  25.301  0.00  0.00    +0.090 C 
ATOM      2  N   UNL     1      -2.028   4.390  25.206  0.00  0.00    -0.271 NA
ATOM      3  C   UNL     1      -1.868   3.853  24.601  0.00  0.00    +0.074 C 
ATOM      4  C   UNL     1      -2.344   3.186  24.505  0.00  0.00    +0.033 C 
ATOM      5  C   UNL     1      -2.979   3.055  25.014  0.00  0.00    +0.060 C 
ATOM      6  C   UNL     1      -3.139   3.593  25.620  0.00  0.00    +0.033 C 
ATOM      7  C   UNL     1      -2.663   4.261  25.715  0.00  0.00    +0.074 C 
ENDBRANCH   8   5
TORSDOF 2
ENDMDL
MODEL 3
REMARK VINA RESULT:     -10.1      1.781      5.076
REMARK  Name = 
REMARK  2 active torsions:
REMARK  status: ('A' for Active; 'I' for Inactive)
REMARK    1  A    between atoms: C_5  and  N_8
REMARK    2  A    between atoms: C_11  and  C_13
REMARK                            x       y       z     vdW  Elec       q    Type
REMARK                         _______ _______ _______ _____ _____    ______ ____
ROOT
ATOM      8  N   UNL     1      -4.071   1.984  24.462  0.00  0.00    -0.273 NA
ATOM      9  C   UNL     1      -3.556   2.020  23.818  0.00  0.00    +0.073 C 
ATOM     10  C   UNL     1      -3.265   1.259  23.682  0.00  0.00    +0.028 C 
ATOM     11  C   UNL     1      -3.601   0.754  24.242  0.00  0.00    +0.094 C 
ATOM     12  C   UNL     1      -4.098   1.201  24.724  0.00  0.00    +0.081 C 
ENDROOT
BRANCH  11  13
ATOM     13  C   UNL     1      -3.462  -0.057  24.308  0.00  0.00    +0.207 A 
ATOM     14  N   UNL     1      -3.994  -0.657  24.115  0.00  0.00    -0.212 NA
ATOM     15  C   UNL     1      -3.628  -1.380  24.266  0.00  0.00    +0.118 A 
ATOM     16  C   UNL     1      -2.869  -1.227  24.552  0.00  0.00    +0.164 A 
ATOM     17  O   UNL     1      -2.767  -0.410  24.578  0.00  0.00    -0.438 OA
ATOM     18  C   UNL     1      -2.371  -1.854  24.752  0.00  0.00    +0.039 A 
ATOM     19  C   UNL     1      -2.630  -2.631  24.666  0.00  0.00    -0.001 A 
ATOM     20  C   UNL     1      -3.388  -2.784  24.380  0.00  0.00    -0.020 A 
ATOM     21  C   UNL     1      -3.648  -3.562  24.293  0.00  0.00    +0.031 C 
ATOM     22  C   UNL     1      -3.888  -2.159  24.180  0.00  0.00    +0.018 A 
ENDBRANCH  11  13
BRANCH   8   5
ATOM      1  C   UNL     1      -5.731   4.522  25.764  0.00  0.00    +0.090 C 
ATOM      2  N   UNL     1      -5.315   3.887  25.438  0.00  0.00    -0.271 NA
ATOM      3  C   UNL     1      -5.660   3.139  25.412  0.00  0.00    +0.074 C 
ATOM      4  C   UNL     1      -5.246   2.504  25.087  0.00  0.00    +0.033 C 
ATOM      5  C   UNL     1      -4.485   2.618  24.787  0.00  0.00    +0.060 C 
ATOM      6  C   UNL     1      -4.140   3.368  24.814  0.00  0.00    +0.033 C 
ATOM      7  C   UNL     1      -4.556   4.002  25.139  0.00  0.00    +0.074 C 
ENDBRANCH   8   5
TORSDOF 2
ENDMDL
MODEL 4
REMARK VINA RESULT:      -9.6      2.083      2.825
REMARK  Name = 
REMARK  2 active torsions:
REMARK  status: ('A' for Active; 'I' for Inactive)
REMARK    1  A    between atoms: C_5  and  N_8
REMARK    2  A    between atoms: C_11  and  C_13
REMARK                            x       y       z     vdW  Elec       q    Type
REMARK                         _______ _______ _______ _____ _____    ______ ____
ROOT
ATOM      8  N   UNL     1      -2.996  -0.745  24.684  0.00  0.00    -0.273 NA
ATOM      9  C   UNL     1      -3.621  -0.984  24.202  0.00  0.00    +0.073 C 
ATOM     10  C   UNL     1      -4.208  -0.405  24.240  0.00  0.00    +0.028 C 
ATOM     11  C   UNL     1      -3.945   0.192  24.745  0.00  0.00    +0.094 C 
ATOM     12  C   UNL     1      -3.196  -0.018  25.019  0.00  0.00    +0.081 C 
ENDROOT
BRANCH  11  13
ATOM     13  C   UNL     1      -4.359   0.878  24.942  0.00  0.00    +0.207 A 
ATOM     14  N   UNL     1      -4.107   1.652  24.807  0.00  0.00    -0.212 NA
ATOM     15  C   UNL     1      -4.689   2.163  25.089  0.00  0.00    +0.118 A 
ATOM     16  C   UNL     1      -5.302   1.705  25.398  0.00  0.00    +0.164 A 
ATOM     17  O   UNL     1      -5.098   0.911  25.307  0.00  0.00    -0.438 OA
ATOM     18  C   UNL     1      -5.967   2.071  25.723  0.00  0.00    +0.039 A 
ATOM     19  C   UNL     1      -6.019   2.893  25.739  0.00  0.00    -0.001 A 
ATOM     20  C   UNL     1      -5.406   3.351  25.430  0.00  0.00    -0.020 A 
ATOM     21  C   UNL     1      -5.457   4.174  25.445  0.00  0.00    +0.031 C 
ATOM     22  C   UNL     1      -4.741   2.987  25.105  0.00  0.00    +0.018 A 
ENDBRANCH  11  13
BRANCH   8   5
ATOM      1  C   UNL     1      -0.185  -2.401  25.182  0.00  0.00    +0.090 C 
ATOM      2  N   UNL     1      -0.889  -1.987  25.058  0.00  0.00    -0.271 NA
ATOM      3  C   UNL     1      -0.923  -1.178  25.212  0.00  0.00    +0.074 C 
ATOM      4  C   UNL     1      -1.626  -0.764  25.088  0.00  0.00    +0.033 C 
ATOM      5  C   UNL     1      -2.294  -1.159  24.808  0.00  0.00    +0.060 C 
ATOM      6  C   UNL     1      -2.259  -1.969  24.653  0.00  0.00    +0.033 C 
ATOM      7  C   UNL     1      -1.556  -2.383  24.778  0.00  0.00    +0.074 C 
ENDBRANCH   8   5
TORSDOF 2
ENDMDL
MODEL 5
REMARK VINA RESULT:      -9.5      2.623      3.888
REMARK  Name = 
REMARK  2 active torsions:
REMARK  status: ('A' for Active; 'I' for Inactive)
REMARK    1  A    between atoms: C_5  and  N_8
REMARK    2  A    between atoms: C_11  and  C_13
REMARK                            x       y       z     vdW  Elec       q    Type
REMARK                         _______ _______ _______ _____ _____    ______ ____
ROOT
ATOM      8  N   UNL     1      -0.952   0.381  24.464  0.00  0.00    -0.273 NA
ATOM      9  C   UNL     1      -1.094   0.036  25.200  0.00  0.00    +0.073 C 
ATOM     10  C   UNL     1      -1.847   0.265  25.448  0.00  0.00    +0.028 C 
ATOM     11  C   UNL     1      -2.171   0.751  24.865  0.00  0.00    +0.094 C 
ATOM     12  C   UNL     1      -1.618   0.823  24.257  0.00  0.00    +0.081 C 
ENDROOT
BRANCH  11  13
ATOM     13  C   UNL     1      -2.917   1.103  24.887  0.00  0.00    +0.207 A 
ATOM     14  N   UNL     1      -3.639   0.707  24.916  0.00  0.00    -0.212 NA
ATOM     15  C   UNL     1      -4.239   1.273  24.931  0.00  0.00    +0.118 A 
ATOM     16  C   UNL     1      -3.887   2.019  24.911  0.00  0.00    +0.164 A 
ATOM     17  O   UNL     1      -3.070   1.914  24.884  0.00  0.00    -0.438 OA
ATOM     18  C   UNL     1      -4.358   2.696  24.920  0.00  0.00    +0.039 A 
ATOM     19  C   UNL     1      -5.179   2.629  24.949  0.00  0.00    -0.001 A 
ATOM     20  C   UNL     1      -5.531   1.883  24.969  0.00  0.00    -0.020 A 
ATOM     21  C   UNL     1      -6.352   1.814  24.998  0.00  0.00    +0.031 C 
ATOM     22  C   UNL     1      -5.062   1.205  24.960  0.00  0.00    +0.018 A 
ENDBRANCH  11  13
BRANCH   8   5
ATOM      1  C   UNL     1       1.792   0.052  22.661  0.00  0.00    +0.090 C 
ATOM      2  N   UNL     1       1.106   0.134  23.112  0.00  0.00    -0.271 NA
ATOM      3  C   UNL     1       0.616  -0.517  23.241  0.00  0.00    +0.074 C 
ATOM      4  C   UNL     1      -0.070  -0.435  23.691  0.00  0.00    +0.033 C 
ATOM      5  C   UNL     1      -0.266   0.299  24.013  0.00  0.00    +0.060 C 
ATOM      6  C   UNL     1       0.224   0.951  23.885  0.00  0.00    +0.033 C 
ATOM      7  C   UNL     1       0.910   0.868  23.434  0.00  0.00    +0.074 C 
ENDBRANCH   8   5
TORSDOF 2
ENDMDL
MODEL 6
REMARK VINA RESULT:      -9.3      2.144      4.630
REMARK  Name = 
REMARK  2 active torsions:
REMARK  status: ('A' for Active; 'I' for Inactive)
REMARK    1  A    between atoms: C_5  and  N_8
REMARK    2  A    between atoms: C_11  and  C_13
REMARK                            x       y       z     vdW  Elec       q    Type
REMARK                         _______ _______ _______ _____ _____    ______ ____
ROOT
ATOM      8  N   UNL     1      -4.569   1.219  24.982  0.00  0.00    -0.273 NA
ATOM      9  C   UNL     1      -5.063   0.604  24.744  0.00  0.00    +0.073 C 
ATOM     10  C   UNL     1      -4.605  -0.079  24.672  0.00  0.00    +0.028 C 
ATOM     11  C   UNL     1      -3.826   0.116  24.866  0.00  0.00    +0.094 C 
ATOM     12  C   UNL     1      -3.804   0.918  25.058  0.00  0.00    +0.081 C 
ENDROOT
BRANCH  11  13
ATOM     13  C   UNL     1      -3.183  -0.401  24.868  0.00  0.00    +0.207 A 
ATOM     14  N   UNL     1      -2.447  -0.258  25.212  0.00  0.00    -0.212 NA
ATOM     15  C   UNL     1      -1.973  -0.921  25.083  0.00  0.00    +0.118 A 
ATOM     16  C   UNL     1      -2.416  -1.473  24.660  0.00  0.00    +0.164 A 
ATOM     17  O   UNL     1      -3.164  -1.153  24.527  0.00  0.00    -0.438 OA
ATOM     18  C   UNL     1      -2.081  -2.197  24.450  0.00  0.00    +0.039 A 
ATOM     19  C   UNL     1      -1.303  -2.369  24.663  0.00  0.00    -0.001 A 
ATOM     20  C   UNL     1      -0.860  -1.816  25.086  0.00  0.00    -0.020 A 
ATOM     21  C   UNL     1      -0.082  -1.987  25.300  0.00  0.00    +0.031 C 
ATOM     22  C   UNL     1      -1.194  -1.092  25.296  0.00  0.00    +0.018 A 
ENDBRANCH  11  13
BRANCH   8   5
ATOM      1  C   UNL     1      -5.484   4.341  25.536  0.00  0.00    +0.090 C 
ATOM      2  N   UNL     1      -5.256   3.560  25.398  0.00  0.00    -0.271 NA
ATOM      3  C   UNL     1      -4.587   3.401  24.942  0.00  0.00    +0.074 C 
ATOM      4  C   UNL     1      -4.358   2.621  24.803  0.00  0.00    +0.033 C 
ATOM      5  C   UNL     1      -4.798   1.999  25.121  0.00  0.00    +0.060 C 
ATOM      6  C   UNL     1      -5.467   2.159  25.577  0.00  0.00    +0.033 C 
ATOM      7  C   UNL     1      -5.696   2.940  25.716  0.00  0.00    +0.074 C 
ENDBRANCH   8   5
TORSDOF 2
ENDMDL
