MODEL 1
REMARK VINA RESULT:      -9.2      0.000      0.000
REMARK  Name = 
REMARK  10 active torsions:
REMARK  status: ('A' for Active; 'I' for Inactive)
REMARK    1  A    between atoms: O_2  and  C_3
REMARK    2  A    between atoms: C_3  and  C_4
REMARK    3  A    between atoms: N_6  and  C_7
REMARK    4  A    between atoms: C_7  and  C_8
REMARK    5  A    between atoms: C_12  and  C_13
REMARK    6  A    between atoms: C_13  and  C_14
REMARK    7  A    between atoms: N_16  and  C_17
REMARK    8  A    between atoms: C_17  and  C_18
REMARK    9  A    between atoms: C_21  and  O_22
REMARK   10  A    between atoms: C_27  and  C_28
REMARK                            x       y       z     vdW  Elec       q    Type
REMARK                         _______ _______ _______ _____ _____    ______ ____
ROOT
ATOM      8  C   UNL     1      -0.780   1.839  24.165  0.00  0.00    +0.043 C 
ATOM      9  C   UNL     1      -1.169   1.822  23.439  0.00  0.00    -0.033 C 
ATOM     10  C   UNL     1      -1.989   1.917  23.408  0.00  0.00    -0.048 C 
ATOM     11  C   UNL     1      -2.379   1.899  22.681  0.00  0.00    +0.026 C 
ATOM     12  C   UNL     1      -2.418   2.029  24.104  0.00  0.00    +0.027 C 
ATOM     26  C   UNL     1      -2.027   2.047  24.831  0.00  0.00    +0.005 C 
ATOM     27  C   UNL     1      -1.208   1.952  24.861  0.00  0.00    +0.006 C 
ENDROOT
BRANCH  27  28
ATOM     28  C   UNL     1      -0.817   1.969  25.588  0.00  0.00    +0.000 C 
ATOM     29  C   UNL     1      -0.691   1.270  26.006  0.00  0.00    +0.000 C 
ATOM     30  C   UNL     1      -0.552   2.687  25.896  0.00  0.00    +0.000 C 
ENDBRANCH  27  28
BRANCH   8   7
ATOM      7  C   UNL     1       0.040   1.744  24.196  0.00  0.00    +0.119 C 
BRANCH   7   6
ATOM      4  C   UNL     1       1.211   1.193  23.589  0.00  0.00    +0.272 C 
ATOM      5  O   UNL     1       1.654   1.829  23.868  0.00  0.00    -0.271 OA
ATOM      6  N   UNL     1       0.402   1.151  23.753  0.00  0.00    -0.203 NA
BRANCH   4   3
ATOM      3  C   UNL     1       1.573   0.600  23.146  0.00  0.00    +0.229 C 
BRANCH   3   2
ATOM      1  C   UNL     1       2.715   0.103  22.445  0.00  0.00    +0.175 C 
ATOM      2  O   UNL     1       2.365   0.676  22.924  0.00  0.00    -0.342 OA
ENDBRANCH   3   2
ENDBRANCH   4   3
ENDBRANCH   7   6
ENDBRANCH   8   7
BRANCH  12  13
ATOM     13  C   UNL     1      -3.236   2.124  24.073  0.00  0.00    +0.091 C 
BRANCH  13  14
ATOM     14  C   UNL     1      -3.727   1.618  24.502  0.00  0.00    +0.242 C 
ATOM     15  O   UNL     1      -4.170   1.911  25.133  0.00  0.00    -0.273 OA
ATOM     16  N   UNL     1      -3.775   0.820  24.300  0.00  0.00    -0.201 NA
BRANCH  16  17
ATOM     17  C   UNL     1      -4.266   0.315  24.729  0.00  0.00    +0.141 C 
BRANCH  17  18
ATOM     18  C   UNL     1      -4.135  -0.499  24.715  0.00  0.00    -0.000 A 
ATOM     19  C   UNL     1      -4.339  -0.940  24.047  0.00  0.00    +0.001 A 
ATOM     20  C   UNL     1      -4.207  -1.754  24.034  0.00  0.00    +0.037 A 
ATOM     21  C   UNL     1      -3.871  -2.128  24.687  0.00  0.00    +0.139 A 
ATOM     24  C   UNL     1      -3.667  -1.689  25.355  0.00  0.00    +0.037 A 
ATOM     25  C   UNL     1      -3.799  -0.874  25.368  0.00  0.00    +0.001 A 
BRANCH  21  22
ATOM     22  O   UNL     1      -3.740  -2.942  24.675  0.00  0.00    -0.471 OA
ATOM     23  C   UNL     1      -3.009  -3.237  24.429  0.00  0.00    +0.252 C 
ENDBRANCH  21  22
ENDBRANCH  17  18
ENDBRANCH  16  17
ENDBRANCH  13  14
ENDBRANCH  12  13
TORSDOF 10
ENDMDL
MODEL 2
REMARK VINA RESULT:      -9.1      1.569      2.968
REMARK  Name = 
REMARK  10 active torsions:
REMARK  status: ('A' for Active; 'I' for Inactive)
REMARK    1  A    between atoms: O_2  and  C_3
REMARK    2  A    between atoms: C_3  and  C_4
REMARK    3  A    between atoms: N_6  and  C_7
REMARK    4  A    between atoms: C_7  and  C_8
REMARK    5  A    between atoms: C_12  and  C_13
REMARK    6  A    between atoms: C_13  and  C_14
REMARK    7  A    between atoms: N_16  and  C_17
REMARK    8  A    between atoms: C_17  and  C_18
REMARK    9  A    between atoms: C_21  and  O_22
REMARK   10  A    between atoms: C_27  and  C_28
REMARK                            x       y       z     vdW  Elec       q    Type
REMARK                         _______ _______ _______ _____ _____    ______ ____
ROOT
ATOM      8  C   UNL     1      -0.520   0.363  24.285  0.00  0.00    +0.043 C 
ATOM      9  C   UNL     1      -0.625  -0.455  24.308  0.00  0.00    -0.033 C 
ATOM     10  C   UNL     1      -1.331  -0.772  24.596  0.00  0.00    -0.048 C 
ATOM     11  C   UNL     1      -1.436  -1.590  24.618  0.00  0.00    +0.026 C 
ATOM     12  C   UNL     1      -1.930  -0.271  24.861  0.00  0.00    +0.027 C 
ATOM     26  C   UNL     1      -1.824   0.547  24.837  0.00  0.00    +0.005 C 
ATOM     27  C   UNL     1      -1.119   0.864  24.550  0.00  0.00    +0.006 C 
ENDROOT
BRANCH  27  28
ATOM     28  C   UNL     1      -1.013   1.682  24.527  0.00  0.00    +0.000 C 
ATOM     29  C   UNL     1      -1.207   2.104  23.846  0.00  0.00    +0.000 C 
ATOM     30  C   UNL     1      -0.712   2.077  25.186  0.00  0.00    +0.000 C 
ENDBRANCH  27  28
BRANCH   8   7
ATOM      7  C   UNL     1       0.186   0.680  23.997  0.00  0.00    +0.119 C 
BRANCH   7   6
ATOM      4  C   UNL     1       1.407   0.504  23.275  0.00  0.00    +0.272 C 
ATOM      5  O   UNL     1       1.704   1.196  23.610  0.00  0.00    -0.271 OA
ATOM      6  N   UNL     1       0.647   0.245  23.468  0.00  0.00    -0.203 NA
BRANCH   4   3
ATOM      3  C   UNL     1       1.868   0.070  22.746  0.00  0.00    +0.229 C 
BRANCH   3   2
ATOM      1  C   UNL     1       3.088   0.045  22.004  0.00  0.00    +0.175 C 
ATOM      2  O   UNL     1       2.681   0.202  22.704  0.00  0.00    -0.342 OA
ENDBRANCH   3   2
ENDBRANCH   4   3
ENDBRANCH   7   6
ENDBRANCH   8   7
BRANCH  12  13
ATOM     13  C   UNL     1      -2.635  -0.588  25.148  0.00  0.00    +0.091 C 
BRANCH  13  14
ATOM     14  C   UNL     1      -3.354  -0.378  24.802  0.00  0.00    +0.242 C 
ATOM     15  O   UNL     1      -3.600  -0.750  24.107  0.00  0.00    -0.273 OA
ATOM     16  N   UNL     1      -3.826   0.201  25.149  0.00  0.00    -0.201 NA
BRANCH  16  17
ATOM     17  C   UNL     1      -4.545   0.410  24.802  0.00  0.00    +0.141 C 
BRANCH  17  18
ATOM     18  C   UNL     1      -4.895   1.135  24.982  0.00  0.00    -0.000 A 
ATOM     19  C   UNL     1      -4.740   1.797  24.514  0.00  0.00    +0.001 A 
ATOM     20  C   UNL     1      -5.090   2.521  24.694  0.00  0.00    +0.037 A 
ATOM     21  C   UNL     1      -5.596   2.585  25.342  0.00  0.00    +0.139 A 
ATOM     24  C   UNL     1      -5.752   1.924  25.811  0.00  0.00    +0.037 A 
ATOM     25  C   UNL     1      -5.401   1.199  25.630  0.00  0.00    +0.001 A 
BRANCH  21  22
ATOM     22  O   UNL     1      -5.947   3.309  25.523  0.00  0.00    -0.471 OA
ATOM     23  C   UNL     1      -5.484   3.991  25.571  0.00  0.00    +0.252 C 
ENDBRANCH  21  22
ENDBRANCH  17  18
ENDBRANCH  16  17
ENDBRANCH  13  14
ENDBRANCH  12  13
TORSDOF 10
ENDMDL
MODEL 3
REMARK VINA RESULT:      -9.0      2.094      3.117
REMARK  Name = 
REMARK  10 active torsions:
REMARK  status: ('A' for Active; 'I' for Inactive)
REMARK    1  A    between atoms: O_2  and  C_3
REMARK    2  A    between atoms: C_3  and  C_4
REMARK    3  A    between atoms: N_6  and  C_7
REMARK    4  A    between atoms: C_7  and  C_8
REMARK    5  A    between atoms: C_12  and  C_13
REMARK    6  A    between atoms: C_13  and  C_14
REMARK    7  A    between atoms: N_16  and  C_17
REMARK    8  A    between atoms: C_17  and  C_18
REMARK    9  A    between atoms: C_21  and  O_22
REMARK   10  A    between atoms: C_27  and  C_28
REMARK                            x       y       z     vdW  Elec       q    Type
REMARK                         _______ _______ _______ _____ _____    ______ ____
ROOT
ATOM      8  C   UNL     1      -0.417   1.243  24.555  0.00  0.00    +0.043 C 
ATOM      9  C   UNL     1      -0.020   1.965  24.525  0.00  0.00    -0.033 C 
ATOM     10  C   UNL     1      -0.328   2.622  24.919  0.00  0.00    -0.048 C 
ATOM     11  C   UNL     1       0.069   3.344  24.888  0.00  0.00    +0.026 C 
ATOM     12  C   UNL     1      -1.033   2.556  25.342  0.00  0.00    +0.027 C 
ATOM     26  C   UNL     1      -1.430   1.833  25.372  0.00  0.00    +0.005 C 
ATOM     27  C   UNL     1      -1.122   1.177  24.979  0.00  0.00    +0.006 C 
ENDROOT
BRANCH  27  28
ATOM     28  C   UNL     1      -1.519   0.454  25.008  0.00  0.00    +0.000 C 
ATOM     29  C   UNL     1      -1.368  -0.075  25.622  0.00  0.00    +0.000 C 
ATOM     30  C   UNL     1      -2.066   0.260  24.422  0.00  0.00    +0.000 C 
ENDBRANCH  27  28
BRANCH   8   7
ATOM      7  C   UNL     1      -0.109   0.586  24.161  0.00  0.00    +0.119 C 
BRANCH   7   6
ATOM      4  C   UNL     1       0.837   0.031  23.245  0.00  0.00    +0.272 C 
ATOM      5  O   UNL     1       0.643  -0.727  23.503  0.00  0.00    -0.271 OA
ATOM      6  N   UNL     1       0.461   0.689  23.574  0.00  0.00    -0.203 NA
BRANCH   4   3
ATOM      3  C   UNL     1       1.407   0.133  22.658  0.00  0.00    +0.229 C 
BRANCH   3   2
ATOM      1  C   UNL     1       2.797   0.115  22.326  0.00  0.00    +0.175 C 
ATOM      2  O   UNL     1       2.161  -0.190  22.754  0.00  0.00    -0.342 OA
ENDBRANCH   3   2
ENDBRANCH   4   3
ENDBRANCH   7   6
ENDBRANCH   8   7
BRANCH  12  13
ATOM     13  C   UNL     1      -1.341   3.212  25.736  0.00  0.00    +0.091 C 
BRANCH  13  14
ATOM     14  C   UNL     1      -2.000   3.604  25.432  0.00  0.00    +0.242 C 
ATOM     15  O   UNL     1      -1.900   4.236  24.911  0.00  0.00    -0.273 OA
ATOM     16  N   UNL     1      -2.759   3.366  25.649  0.00  0.00    -0.201 NA
BRANCH  16  17
ATOM     17  C   UNL     1      -3.417   3.758  25.346  0.00  0.00    +0.141 C 
BRANCH  17  18
ATOM     18  C   UNL     1      -4.147   3.374  25.311  0.00  0.00    -0.000 A 
ATOM     19  C   UNL     1      -4.394   3.019  24.608  0.00  0.00    +0.001 A 
ATOM     20  C   UNL     1      -5.123   2.635  24.574  0.00  0.00    +0.037 A 
ATOM     21  C   UNL     1      -5.606   2.608  25.242  0.00  0.00    +0.139 A 
ATOM     24  C   UNL     1      -5.361   2.963  25.944  0.00  0.00    +0.037 A 
ATOM     25  C   UNL     1      -4.630   3.346  25.979  0.00  0.00    +0.001 A 
BRANCH  21  22
ATOM     22  O   UNL     1      -6.336   2.224  25.208  0.00  0.00    -0.471 OA
ATOM     23  C   UNL     1      -6.377   1.436  24.967  0.00  0.00    +0.252 C 
ENDBRANCH  21  22
ENDBRANCH  17  18
ENDBRANCH  16  17
ENDBRANCH  13  14
ENDBRANCH  12  13
TORSDOF 10
ENDMDL
MODEL 4
REMARK VINA RESULT:      -8.9      2.040      4.437
REMARK  Name = 
REMARK  10 active torsions:
REMARK  status: ('A' for Active; 'I' for Inactive)
REMARK    1  A    between atoms: O_2  and  C_3
REMARK    2  A    between atoms: C_3  and  C_4
REMARK    3  A    between atoms: N_6  and  C_7
REMARK    4  A    between atoms: C_7  and  C_8
REMARK    5  A    between atoms: C_12  and  C_13
REMARK    6  A    between atoms: C_13  and  C_14
REMARK    7  A    between atoms: N_16  and  C_17
REMARK    8  A    between atoms: C_17  and  C_18
REMARK    9  A    between atoms: C_21  and  O_22
REMARK   10  A    between atoms: C_27  and  C_28
REMARK                            x       y       z     vdW  Elec       q    Type
REMARK                         _______ _______ _______ _____ _____    ______ ____
ROOT
ATOM      8  C   UNL     1      -3.174   3.312  24.702  0.00  0.00    +0.043 C 
ATOM      9  C   UNL     1      -3.280   2.843  24.032  0.00  0.00    -0.033 C 
ATOM     10  C   UNL     1      -2.623   2.538  23.635  0.00  0.00    -0.048 C 
ATOM     11  C   UNL     1      -2.728   2.069  22.965  0.00  0.00    +0.026 C 
ATOM     12  C   UNL     1      -1.862   2.703  23.909  0.00  0.00    +0.027 C 
ATOM     26  C   UNL     1      -1.758   3.173  24.579  0.00  0.00    +0.005 C 
ATOM     27  C   UNL     1      -2.414   3.477  24.976  0.00  0.00    +0.006 C 
ENDROOT
BRANCH  27  28
ATOM     28  C   UNL     1      -2.310   3.947  25.646  0.00  0.00    +0.000 C 
ATOM     29  C   UNL     1      -2.293   3.601  26.394  0.00  0.00    +0.000 C 
ATOM     30  C   UNL     1      -2.222   4.763  25.568  0.00  0.00    +0.000 C 
ENDBRANCH  27  28
BRANCH   8   7
ATOM      7  C   UNL     1      -3.831   3.617  25.099  0.00  0.00    +0.119 C 
BRANCH   7   6
ATOM      4  C   UNL     1      -5.204   3.468  25.465  0.00  0.00    +0.272 C 
ATOM      5  O   UNL     1      -5.278   4.287  25.522  0.00  0.00    -0.271 OA
ATOM      6  N   UNL     1      -4.480   3.132  25.254  0.00  0.00    -0.203 NA
BRANCH   4   3
ATOM      3  C   UNL     1      -5.854   2.984  25.619  0.00  0.00    +0.229 C 
BRANCH   3   2
ATOM      1  C   UNL     1      -6.450   1.994  26.460  0.00  0.00    +0.175 C 
ATOM      2  O   UNL     1      -5.941   2.635  26.363  0.00  0.00    -0.342 OA
ENDBRANCH   3   2
ENDBRANCH   4   3
ENDBRANCH   7   6
ENDBRANCH   8   7
BRANCH  12  13
ATOM     13  C   UNL     1      -1.207   2.399  23.512  0.00  0.00    +0.091 C 
BRANCH  13  14
ATOM     14  C   UNL     1      -0.679   1.902  23.906  0.00  0.00    +0.242 C 
ATOM     15  O   UNL     1       0.026   2.206  24.208  0.00  0.00    -0.273 OA
ATOM     16  N   UNL     1      -0.856   1.102  23.999  0.00  0.00    -0.201 NA
BRANCH  16  17
ATOM     17  C   UNL     1      -0.328   0.606  24.393  0.00  0.00    +0.141 C 
BRANCH  17  18
ATOM     18  C   UNL     1      -0.551  -0.165  24.585  0.00  0.00    -0.000 A 
ATOM     19  C   UNL     1      -0.894  -0.327  25.318  0.00  0.00    +0.001 A 
ATOM     20  C   UNL     1      -1.117  -1.098  25.509  0.00  0.00    +0.037 A 
ATOM     21  C   UNL     1      -0.995  -1.708  24.967  0.00  0.00    +0.139 A 
ATOM     24  C   UNL     1      -0.652  -1.548  24.234  0.00  0.00    +0.037 A 
ATOM     25  C   UNL     1      -0.430  -0.776  24.043  0.00  0.00    +0.001 A 
BRANCH  21  22
ATOM     22  O   UNL     1      -1.217  -2.479  25.157  0.00  0.00    -0.471 OA
ATOM     23  C   UNL     1      -1.869  -2.824  24.785  0.00  0.00    +0.252 C 
ENDBRANCH  21  22
ENDBRANCH  17  18
ENDBRANCH  16  17
ENDBRANCH  13  14
ENDBRANCH  12  13
TORSDOF 10
ENDMDL
MODEL 5
REMARK VINA RESULT:      -8.7      2.418      5.266
REMARK  Name = 
REMARK  10 active torsions:
REMARK  status: ('A' for Active; 'I' for Inactive)
REMARK    1  A    between atoms: O_2  and  C_3
REMARK    2  A    between atoms: C_3  and  C_4
REMARK    3  A    between atoms: N_6  and  C_7
REMARK    4  A    between atoms: C_7  and  C_8
REMARK    5  A    between atoms: C_12  and  C_13
REMARK    6  A    between atoms: C_13  and  C_14
REMARK    7  A    between atoms: N_16  and  C_17
REMARK    8  A    between atoms: C_17  and  C_18
REMARK    9  A    between atoms: C_21  and  O_22
REMARK   10  A    between atoms: C_27  and  C_28
REMARK                            x       y       z     vdW  Elec       q    Type
REMARK                         _______ _______ _______ _____ _____    ______ ____
ROOT
ATOM      8  C   UNL     1      -4.199   0.656  24.250  0.00  0.00    +0.043 C 
ATOM      9  C   UNL     1      -4.864   0.728  24.732  0.00  0.00    -0.033 C 
ATOM     10  C   UNL     1      -5.078   1.467  25.032  0.00  0.00    -0.048 C 
ATOM     11  C   UNL     1      -5.744   1.539  25.513  0.00  0.00    +0.026 C 
ATOM     12  C   UNL     1      -4.626   2.132  24.850  0.00  0.00    +0.027 C 
ATOM     26  C   UNL     1      -3.960   2.059  24.368  0.00  0.00    +0.005 C 
ATOM     27  C   UNL     1      -3.746   1.321  24.069  0.00  0.00    +0.006 C 
ENDROOT
BRANCH  27  28
ATOM     28  C   UNL     1      -3.080   1.248  23.587  0.00  0.00    +0.000 C 
ATOM     29  C   UNL     1      -3.134   1.413  22.781  0.00  0.00    +0.000 C 
ATOM     30  C   UNL     1      -2.361   1.009  23.912  0.00  0.00    +0.000 C 
ENDBRANCH  27  28
BRANCH   8   7
ATOM      7  C   UNL     1      -3.985  -0.083  23.950  0.00  0.00    +0.119 C 
BRANCH   7   6
ATOM      4  C   UNL     1      -4.037  -1.502  24.112  0.00  0.00    +0.272 C 
ATOM      5  O   UNL     1      -4.067  -1.594  23.294  0.00  0.00    -0.271 OA
ATOM      6  N   UNL     1      -3.996  -0.746  24.441  0.00  0.00    -0.203 NA
BRANCH   4   3
ATOM      3  C   UNL     1      -4.048  -2.165  24.603  0.00  0.00    +0.229 C 
BRANCH   3   2
ATOM      1  C   UNL     1      -3.323  -3.341  24.967  0.00  0.00    +0.175 C 
ATOM      2  O   UNL     1      -3.634  -2.846  24.386  0.00  0.00    -0.342 OA
ENDBRANCH   3   2
ENDBRANCH   4   3
ENDBRANCH   7   6
ENDBRANCH   8   7
BRANCH  12  13
ATOM     13  C   UNL     1      -4.839   2.870  25.150  0.00  0.00    +0.091 C 
BRANCH  13  14
ATOM     14  C   UNL     1      -4.332   3.270  25.663  0.00  0.00    +0.242 C 
ATOM     15  O   UNL     1      -4.427   3.192  26.479  0.00  0.00    -0.273 OA
ATOM     16  N   UNL     1      -3.732   3.747  25.362  0.00  0.00    -0.201 NA
BRANCH  16  17
ATOM     17  C   UNL     1      -3.225   4.147  25.875  0.00  0.00    +0.141 C 
BRANCH  17  18
ATOM     18  C   UNL     1      -2.490   4.410  25.609  0.00  0.00    -0.000 A 
ATOM     19  C   UNL     1      -2.424   5.140  25.229  0.00  0.00    +0.001 A 
ATOM     20  C   UNL     1      -1.689   5.402  24.963  0.00  0.00    +0.037 A 
ATOM     21  C   UNL     1      -1.019   4.934  25.076  0.00  0.00    +0.139 A 
ATOM     24  C   UNL     1      -1.083   4.205  25.455  0.00  0.00    +0.037 A 
ATOM     25  C   UNL     1      -1.819   3.942  25.722  0.00  0.00    +0.001 A 
BRANCH  21  22
ATOM     22  O   UNL     1      -0.283   5.196  24.811  0.00  0.00    -0.471 OA
ATOM     23  C   UNL     1       0.011   4.932  24.086  0.00  0.00    +0.252 C 
ENDBRANCH  21  22
ENDBRANCH  17  18
ENDBRANCH  16  17
ENDBRANCH  13  14
ENDBRANCH  12  13
TORSDOF 10
ENDMDL
MODEL 6
REMARK VINA RESULT:      -8.6      1.998      2.636
REMARK  Name = 
REMARK  10 active torsions:
REMARK  status: ('A' for Active; 'I' for Inactive)
REMARK    1  A    between atoms: O_2  and  C_3
REMARK    2  A    between atoms: C_3  and  C_4
REMARK    3  A    between atoms: N_6  and  C_7
REMARK    4  A    between atoms: C_7  and  C_8
REMARK    5  A    between atoms: C_12  and  C_13
REMARK    6  A    between atoms: C_13  and  C_14
REMARK    7  A    between atoms: N_16  and  C_17
REMARK    8  A    between atoms: C_17  and  C_18
REMARK    9  A    between atoms: C_21  and  O_22
REMARK   10  A    between atoms: C_27  and  C_28
REMARK                            x       y       z     vdW  Elec       q    Type
REMARK                         _______ _______ _______ _____ _____    ______ ____
ROOT
ATOM      8  C   UNL     1      -3.022   3.704  24.866  0.00  0.00    +0.043 C 
ATOM      9  C   UNL     1      -3.113   3.387  24.110  0.00  0.00    -0.033 C 
ATOM     10  C   UNL     1      -3.759   2.901  23.943  0.00  0.00    -0.048 C 
ATOM     11  C   UNL     1      -3.851   2.584  23.187  0.00  0.00    +0.026 C 
ATOM     12  C   UNL     1      -4.313   2.733  24.531  0.00  0.00    +0.027 C 
ATOM     26  C   UNL     1      -4.220   3.050  25.287  0.00  0.00    +0.005 C 
ATOM     27  C   UNL     1      -3.575   3.536  25.455  0.00  0.00    +0.006 C 
ENDROOT
BRANCH  27  28
ATOM     28  C   UNL     1      -3.483   3.853  26.211  0.00  0.00    +0.000 C 
ATOM     29  C   UNL     1      -3.021   3.461  26.770  0.00  0.00    +0.000 C 
ATOM     30  C   UNL     1      -3.852   4.564  26.407  0.00  0.00    +0.000 C 
ENDBRANCH  27  28
BRANCH   8   7
ATOM      7  C   UNL     1      -2.376   4.190  25.034  0.00  0.00    +0.119 C 
BRANCH   7   6
ATOM      4  C   UNL     1      -0.999   4.505  24.817  0.00  0.00    +0.272 C 
ATOM      5  O   UNL     1      -1.141   5.283  25.048  0.00  0.00    -0.271 OA
ATOM      6  N   UNL     1      -1.617   3.957  24.810  0.00  0.00    -0.203 NA
BRANCH   4   3
ATOM      3  C   UNL     1      -0.240   4.273  24.593  0.00  0.00    +0.229 C 
BRANCH   3   2
ATOM      1  C   UNL     1       0.476   3.054  24.379  0.00  0.00    +0.175 C 
ATOM      2  O   UNL     1       0.079   3.570  24.887  0.00  0.00    -0.342 OA
ENDBRANCH   3   2
ENDBRANCH   4   3
ENDBRANCH   7   6
ENDBRANCH   8   7
BRANCH  12  13
ATOM     13  C   UNL     1      -4.958   2.247  24.363  0.00  0.00    +0.091 C 
BRANCH  13  14
ATOM     14  C   UNL     1      -5.090   1.566  24.810  0.00  0.00    +0.242 C 
ATOM     15  O   UNL     1      -5.642   1.576  25.423  0.00  0.00    -0.273 OA
ATOM     16  N   UNL     1      -4.671   0.876  24.644  0.00  0.00    -0.201 NA
BRANCH  16  17
ATOM     17  C   UNL     1      -4.803   0.196  25.090  0.00  0.00    +0.141 C 
BRANCH  17  18
ATOM     18  C   UNL     1      -4.326  -0.469  24.982  0.00  0.00    -0.000 A 
ATOM     19  C   UNL     1      -4.391  -0.917  24.292  0.00  0.00    +0.001 A 
ATOM     20  C   UNL     1      -3.914  -1.581  24.184  0.00  0.00    +0.037 A 
ATOM     21  C   UNL     1      -3.371  -1.797  24.767  0.00  0.00    +0.139 A 
ATOM     24  C   UNL     1      -3.305  -1.350  25.457  0.00  0.00    +0.037 A 
ATOM     25  C   UNL     1      -3.783  -0.685  25.564  0.00  0.00    +0.001 A 
BRANCH  21  22
ATOM     22  O   UNL     1      -2.894  -2.461  24.660  0.00  0.00    -0.471 OA
ATOM     23  C   UNL     1      -2.097  -2.369  24.465  0.00  0.00    +0.252 C 
ENDBRANCH  21  22
ENDBRANCH  17  18
ENDBRANCH  16  17
ENDBRANCH  13  14
ENDBRANCH  12  13
TORSDOF 10
ENDMDL
MODEL 7
REMARK VINA RESULT:      -8.6      1.594      4.126
REMARK  Name = 
REMARK  10 active torsions:
REMARK  status: ('A' for Active; 'I' for Inactive)
REMARK    1  A    between atoms: O_2  and  C_3
REMARK    2  A    between atoms: C_3  and  C_4
REMARK    3  A    between atoms: N_6  and  C_7
REMARK    4  A    between atoms: C_7  and  C_8
REMARK    5  A    between atoms: C_12  and  C_13
REMARK    6  A    between atoms: C_13  and  C_14
REMARK    7  A    between atoms: N_16  and  C_17
REMARK    8  A    between atoms: C_17  and  C_18
REMARK    9  A    between atoms: C_21  and  O_22
REMARK   10  A    between atoms: C_27  and  C_28
REMARK                            x       y       z     vdW  Elec       q    Type
REMARK                         _______ _______ _______ _____ _____    ______ ____
ROOT
ATOM      8  C   UNL     1      -2.284   2.489  24.339  0.00  0.00    +0.043 C 
ATOM      9  C   UNL     1      -1.829   2.580  25.021  0.00  0.00    -0.033 C 
ATOM     10  C   UNL     1      -1.151   2.120  25.128  0.00  0.00    -0.048 C 
ATOM     11  C   UNL     1      -0.695   2.211  25.810  0.00  0.00    +0.026 C 
ATOM     12  C   UNL     1      -0.929   1.572  24.553  0.00  0.00    +0.027 C 
ATOM     26  C   UNL     1      -1.385   1.483  23.871  0.00  0.00    +0.005 C 
ATOM     27  C   UNL     1      -2.062   1.941  23.764  0.00  0.00    +0.006 C 
ENDROOT
BRANCH  27  28
ATOM     28  C   UNL     1      -2.518   1.852  23.082  0.00  0.00    +0.000 C 
ATOM     29  C   UNL     1      -2.343   2.291  22.407  0.00  0.00    +0.000 C 
ATOM     30  C   UNL     1      -3.151   1.322  23.076  0.00  0.00    +0.000 C 
ENDBRANCH  27  28
BRANCH   8   7
ATOM      7  C   UNL     1      -2.962   2.948  24.232  0.00  0.00    +0.119 C 
BRANCH   7   6
ATOM      4  C   UNL     1      -4.054   3.657  24.820  0.00  0.00    +0.272 C 
ATOM      5  O   UNL     1      -4.095   4.145  24.157  0.00  0.00    -0.271 OA
ATOM      6  N   UNL     1      -3.487   3.058  24.859  0.00  0.00    -0.203 NA
BRANCH   4   3
ATOM      3  C   UNL     1      -4.580   3.767  25.447  0.00  0.00    +0.229 C 
BRANCH   3   2
ATOM      1  C   UNL     1      -5.873   3.302  25.839  0.00  0.00    +0.175 C 
ATOM      2  O   UNL     1      -5.394   3.721  25.315  0.00  0.00    -0.342 OA
ENDBRANCH   3   2
ENDBRANCH   4   3
ENDBRANCH   7   6
ENDBRANCH   8   7
BRANCH  12  13
ATOM     13  C   UNL     1      -0.252   1.114  24.660  0.00  0.00    +0.091 C 
BRANCH  13  14
ATOM     14  C   UNL     1      -0.248   0.322  24.429  0.00  0.00    +0.242 C 
ATOM     15  O   UNL     1       0.160   0.092  23.749  0.00  0.00    -0.273 OA
ATOM     16  N   UNL     1      -0.652  -0.241  24.876  0.00  0.00    -0.201 NA
BRANCH  16  17
ATOM     17  C   UNL     1      -0.648  -1.032  24.645  0.00  0.00    +0.141 C 
BRANCH  17  18
ATOM     18  C   UNL     1      -1.329  -1.491  24.731  0.00  0.00    -0.000 A 
ATOM     19  C   UNL     1      -1.822  -1.381  25.383  0.00  0.00    +0.001 A 
ATOM     20  C   UNL     1      -2.502  -1.840  25.469  0.00  0.00    +0.037 A 
ATOM     21  C   UNL     1      -2.688  -2.410  24.903  0.00  0.00    +0.139 A 
ATOM     24  C   UNL     1      -2.195  -2.522  24.251  0.00  0.00    +0.037 A 
ATOM     25  C   UNL     1      -1.515  -2.062  24.165  0.00  0.00    +0.001 A 
BRANCH  21  22
ATOM     22  O   UNL     1      -3.368  -2.870  24.989  0.00  0.00    -0.471 OA
ATOM     23  C   UNL     1      -3.929  -2.892  24.384  0.00  0.00    +0.252 C 
ENDBRANCH  21  22
ENDBRANCH  17  18
ENDBRANCH  16  17
ENDBRANCH  13  14
ENDBRANCH  12  13
TORSDOF 10
ENDMDL
MODEL 8
REMARK VINA RESULT:      -8.5      2.058      4.160
REMARK  Name = 
REMARK  10 active torsions:
REMARK  status: ('A' for Active; 'I' for Inactive)
REMARK    1  A    between atoms: O_2  and  C_3
REMARK    2  A    between atoms: C_3  and  C_4
REMARK    3  A    between atoms: N_6  and  C_7
REMARK    4  A    between atoms: C_7  and  C_8
REMARK    5  A    between atoms: C_12  and  C_13
REMARK    6  A    between atoms: C_13  and  C_14
REMARK    7  A    between atoms: N_16  and  C_17
REMARK    8  A    between atoms: C_17  and  C_18
REMARK    9  A    between atoms: C_21  and  O_22
REMARK   10  A    between atoms: C_27  and  C_28
REMARK                            x       y       z     vdW  Elec       q    Type
REMARK                         _______ _______ _______ _____ _____    ______ ____
ROOT
ATOM      8  C   UNL     1      -2.806  -0.582  24.553  0.00  0.00    +0.043 C 
ATOM      9  C   UNL     1      -2.877  -0.063  23.916  0.00  0.00    -0.033 C 
ATOM     10  C   UNL     1      -3.521   0.452  23.874  0.00  0.00    -0.048 C 
ATOM     11  C   UNL     1      -3.592   0.971  23.236  0.00  0.00    +0.026 C 
ATOM     12  C   UNL     1      -4.092   0.448  24.469  0.00  0.00    +0.027 C 
ATOM     26  C   UNL     1      -4.020  -0.071  25.106  0.00  0.00    +0.005 C 
ATOM     27  C   UNL     1      -3.378  -0.586  25.148  0.00  0.00    +0.006 C 
ENDROOT
BRANCH  27  28
ATOM     28  C   UNL     1      -3.306  -1.106  25.785  0.00  0.00    +0.000 C 
ATOM     29  C   UNL     1      -2.921  -0.865  26.473  0.00  0.00    +0.000 C 
ATOM     30  C   UNL     1      -3.619  -1.867  25.733  0.00  0.00    +0.000 C 
ENDBRANCH  27  28
BRANCH   8   7
ATOM      7  C   UNL     1      -2.163  -1.098  24.595  0.00  0.00    +0.119 C 
BRANCH   7   6
ATOM      4  C   UNL     1      -0.797  -1.330  24.245  0.00  0.00    +0.272 C 
ATOM      5  O   UNL     1      -0.960  -2.131  24.140  0.00  0.00    -0.271 OA
ATOM      6  N   UNL     1      -1.398  -0.813  24.473  0.00  0.00    -0.203 NA
BRANCH   4   3
ATOM      3  C   UNL     1      -0.032  -1.045  24.123  0.00  0.00    +0.229 C 
BRANCH   3   2
ATOM      1  C   UNL     1       0.892  -0.310  23.319  0.00  0.00    +0.175 C 
ATOM      2  O   UNL     1       0.165  -0.690  23.404  0.00  0.00    -0.342 OA
ENDBRANCH   3   2
ENDBRANCH   4   3
ENDBRANCH   7   6
ENDBRANCH   8   7
BRANCH  12  13
ATOM     13  C   UNL     1      -4.735   0.963  24.426  0.00  0.00    +0.091 C 
BRANCH  13  14
ATOM     14  C   UNL     1      -4.798   1.590  24.959  0.00  0.00    +0.242 C 
ATOM     15  O   UNL     1      -5.324   1.540  25.593  0.00  0.00    -0.273 OA
ATOM     16  N   UNL     1      -4.336   2.265  24.859  0.00  0.00    -0.201 NA
BRANCH  16  17
ATOM     17  C   UNL     1      -4.400   2.891  25.392  0.00  0.00    +0.141 C 
BRANCH  17  18
ATOM     18  C   UNL     1      -3.796   3.451  25.445  0.00  0.00    -0.000 A 
ATOM     19  C   UNL     1      -3.628   3.941  24.803  0.00  0.00    +0.001 A 
ATOM     20  C   UNL     1      -3.025   4.500  24.856  0.00  0.00    +0.037 A 
ATOM     21  C   UNL     1      -2.590   4.571  25.553  0.00  0.00    +0.139 A 
ATOM     24  C   UNL     1      -2.757   4.083  26.196  0.00  0.00    +0.037 A 
ATOM     25  C   UNL     1      -3.361   3.522  26.142  0.00  0.00    +0.001 A 
BRANCH  21  22
ATOM     22  O   UNL     1      -1.986   5.131  25.608  0.00  0.00    -0.471 OA
ATOM     23  C   UNL     1      -1.316   5.062  25.131  0.00  0.00    +0.252 C 
ENDBRANCH  21  22
ENDBRANCH  17  18
ENDBRANCH  16  17
ENDBRANCH  13  14
ENDBRANCH  12  13
TORSDOF 10
ENDMDL
MODEL 9
REMARK VINA RESULT:      -8.4      2.076      5.722
REMARK  Name = 
REMARK  10 active torsions:
REMARK  status: ('A' for Active; 'I' for Inactive)
REMARK    1  A    between atoms: O_2  and  C_3
REMARK    2  A    between atoms: C_3  and  C_4
REMARK    3  A    between atoms: N_6  and  C_7
REMARK    4  A    between atoms: C_7  and  C_8
REMARK    5  A    between atoms: C_12  and  C_13
REMARK    6  A    between atoms: C_13  and  C_14
REMARK    7  A    between atoms: N_16  and  C_17
REMARK    8  A    between atoms: C_17  and  C_18
REMARK    9  A    between atoms: C_21  and  O_22
REMARK   10  A    between atoms: C_27  and  C_28
REMARK                            x       y       z     vdW  Elec       q    Type
REMARK                         _______ _______ _______ _____ _____    ______ ____
ROOT
ATOM      8  C   UNL     1      -1.516   1.678  24.758  0.00  0.00    +0.043 C 
ATOM      9  C   UNL     1      -1.782   0.908  24.626  0.00  0.00    -0.033 C 
ATOM     10  C   UNL     1      -1.250   0.324  24.386  0.00  0.00    -0.048 C 
ATOM     11  C   UNL     1      -1.517  -0.446  24.254  0.00  0.00    +0.026 C 
ATOM     12  C   UNL     1      -0.454   0.510  24.278  0.00  0.00    +0.027 C 
ATOM     26  C   UNL     1      -0.189   1.280  24.410  0.00  0.00    +0.005 C 
ATOM     27  C   UNL     1      -0.719   1.864  24.650  0.00  0.00    +0.006 C 
ENDROOT
BRANCH  27  28
ATOM     28  C   UNL     1      -0.454   2.634  24.782  0.00  0.00    +0.000 C 
ATOM     29  C   UNL     1      -0.175   2.852  25.526  0.00  0.00    +0.000 C 
ATOM     30  C   UNL     1      -0.469   3.185  24.169  0.00  0.00    +0.000 C 
ENDBRANCH  27  28
BRANCH   8   7
ATOM      7  C   UNL     1      -2.047   2.262  24.998  0.00  0.00    +0.119 C 
BRANCH   7   6
ATOM      4  C   UNL     1      -3.395   2.692  25.201  0.00  0.00    +0.272 C 
ATOM      5  O   UNL     1      -3.125   3.323  25.657  0.00  0.00    -0.271 OA
ATOM      6  N   UNL     1      -2.856   2.161  24.871  0.00  0.00    -0.203 NA
BRANCH   4   3
ATOM      3  C   UNL     1      -4.204   2.591  25.073  0.00  0.00    +0.229 C 
BRANCH   3   2
ATOM      1  C   UNL     1      -5.546   2.671  25.556  0.00  0.00    +0.175 C 
ATOM      2  O   UNL     1      -4.746   2.853  25.638  0.00  0.00    -0.342 OA
ENDBRANCH   3   2
ENDBRANCH   4   3
ENDBRANCH   7   6
ENDBRANCH   8   7
BRANCH  12  13
ATOM     13  C   UNL     1       0.076  -0.074  24.038  0.00  0.00    +0.091 C 
BRANCH  13  14
ATOM     14  C   UNL     1       0.539   0.039  23.364  0.00  0.00    +0.242 C 
ATOM     15  O   UNL     1       0.178   0.152  22.631  0.00  0.00    -0.273 OA
ATOM     16  N   UNL     1       1.361   0.040  23.423  0.00  0.00    -0.201 NA
BRANCH  16  17
ATOM     17  C   UNL     1       1.823   0.153  22.749  0.00  0.00    +0.141 C 
BRANCH  17  18
ATOM     18  C   UNL     1       2.643   0.211  22.816  0.00  0.00    -0.000 A 
ATOM     19  C   UNL     1       3.018   0.937  22.695  0.00  0.00    +0.001 A 
ATOM     20  C   UNL     1       3.837   0.994  22.762  0.00  0.00    +0.037 A 
ATOM     21  C   UNL     1       4.284   0.326  22.948  0.00  0.00    +0.139 A 
ATOM     24  C   UNL     1       3.911  -0.400  23.068  0.00  0.00    +0.037 A 
ATOM     25  C   UNL     1       3.090  -0.457  23.002  0.00  0.00    +0.001 A 
BRANCH  21  22
ATOM     22  O   UNL     1       5.104   0.383  23.014  0.00  0.00    -0.471 OA
ATOM     23  C   UNL     1       5.483   0.108  23.695  0.00  0.00    +0.252 C 
ENDBRANCH  21  22
ENDBRANCH  17  18
ENDBRANCH  16  17
ENDBRANCH  13  14
ENDBRANCH  12  13
TORSDOF 10
ENDMDL
MODEL 10
REMARK VINA RESULT:      -8.2      2.119      3.840
REMARK  Name = 
REMARK  10 active torsions:
REMARK  status: ('A' for Active; 'I' for Inactive)
REMARK    1  A    between atoms: O_2  and  C_3
REMARK    2  A    between atoms: C_3  and  C_4
REMARK    3  A    between atoms: N_6  and  C_7
REMARK    4  A    between atoms: C_7  and  C_8
REMARK    5  A    between atoms: C_12  and  C_13
REMARK    6  A    between atoms: C_13  and  C_14
REMARK    7  A    between atoms: N_16  and  C_17
REMARK    8  A    between atoms: C_17  and  C_18
REMARK    9  A    between atoms: C_21  and  O_22
REMARK   10  A    between atoms: C_27  and  C_28
REMARK                            x       y       z     vdW  Elec       q    Type
REMARK                         _______ _______ _______ _____ _____    ______ ____
ROOT
ATOM      8  C   UNL     1      -0.687   1.379  24.637  0.00  0.00    +0.043 C 
ATOM      9  C   UNL     1      -0.412   1.538  25.398  0.00  0.00    -0.033 C 
ATOM     10  C   UNL     1      -0.542   2.279  25.737  0.00  0.00    -0.048 C 
ATOM     11  C   UNL     1      -0.267   2.437  26.499  0.00  0.00    +0.026 C 
ATOM     12  C   UNL     1      -0.946   2.861  25.315  0.00  0.00    +0.027 C 
ATOM     26  C   UNL     1      -1.220   2.702  24.553  0.00  0.00    +0.005 C 
ATOM     27  C   UNL     1      -1.091   1.962  24.214  0.00  0.00    +0.006 C 
ENDROOT
BRANCH  27  28
ATOM     28  C   UNL     1      -1.365   1.802  23.452  0.00  0.00    +0.000 C 
ATOM     29  C   UNL     1      -2.119   1.486  23.342  0.00  0.00    +0.000 C 
ATOM     30  C   UNL     1      -0.885   1.959  22.800  0.00  0.00    +0.000 C 
ENDBRANCH  27  28
BRANCH   8   7
ATOM      7  C   UNL     1      -0.557   0.638  24.297  0.00  0.00    +0.119 C 
BRANCH   7   6
ATOM      4  C   UNL     1      -0.453  -0.775  24.486  0.00  0.00    +0.272 C 
ATOM      5  O   UNL     1       0.076  -0.820  23.856  0.00  0.00    -0.271 OA
ATOM      6  N   UNL     1      -0.771  -0.045  24.707  0.00  0.00    -0.203 NA
BRANCH   4   3
ATOM      3  C   UNL     1      -0.667  -1.458  24.896  0.00  0.00    +0.229 C 
BRANCH   3   2
ATOM      1  C   UNL     1      -1.626  -2.514  24.977  0.00  0.00    +0.175 C 
ATOM      2  O   UNL     1      -1.130  -2.033  24.526  0.00  0.00    -0.342 OA
ENDBRANCH   3   2
ENDBRANCH   4   3
ENDBRANCH   7   6
ENDBRANCH   8   7
BRANCH  12  13
ATOM     13  C   UNL     1      -1.075   3.602  25.653  0.00  0.00    +0.091 C 
BRANCH  13  14
ATOM     14  C   UNL     1      -1.757   4.028  25.468  0.00  0.00    +0.242 C 
ATOM     15  O   UNL     1      -1.710   4.686  24.974  0.00  0.00    -0.273 OA
ATOM     16  N   UNL     1      -2.485   3.795  25.777  0.00  0.00    -0.201 NA
BRANCH  16  17
ATOM     17  C   UNL     1      -3.166   4.221  25.592  0.00  0.00    +0.141 C 
BRANCH  17  18
ATOM     18  C   UNL     1      -3.896   3.837  25.552  0.00  0.00    -0.000 A 
ATOM     19  C   UNL     1      -4.214   3.481  26.225  0.00  0.00    +0.001 A 
ATOM     20  C   UNL     1      -4.942   3.098  26.185  0.00  0.00    +0.037 A 
ATOM     21  C   UNL     1      -5.354   3.070  25.470  0.00  0.00    +0.139 A 
ATOM     24  C   UNL     1      -5.038   3.425  24.797  0.00  0.00    +0.037 A 
ATOM     25  C   UNL     1      -4.308   3.809  24.838  0.00  0.00    +0.001 A 
BRANCH  21  22
ATOM     22  O   UNL     1      -6.083   2.686  25.429  0.00  0.00    -0.471 OA
ATOM     23  C   UNL     1      -6.132   1.927  25.107  0.00  0.00    +0.252 C 
ENDBRANCH  21  22
ENDBRANCH  17  18
ENDBRANCH  16  17
ENDBRANCH  13  14
ENDBRANCH  12  13
TORSDOF 10
ENDMDL
