MODEL 1
REMARK VINA RESULT:     -11.7      0.000      0.000
REMARK  Name = 
REMARK  8 active torsions:
REMARK  status: ('A' for Active; 'I' for Inactive)
REMARK    1  A    between atoms: O_2  and  C_3
REMARK    2  A    between atoms: C_9  and  C_10
REMARK    3  A    between atoms: C_10  and  C_11
REMARK    4  A    between atoms: C_16  and  C_17
REMARK    5  A    between atoms: C_17  and  C_18
REMARK    6  A    between atoms: C_21  and  C_23
REMARK    7  A    between atoms: C_23  and  C_24
REMARK    8  A    between atoms: C_24  and  C_25
REMARK                            x       y       z     vdW  Elec       q    Type
REMARK                         _______ _______ _______ _____ _____    ______ ____
ROOT
ATOM     11  C   UNL     1      -4.279   0.880  24.813  0.00  0.00    +0.026 C 
ATOM     12  C   UNL     1      -3.500   1.132  24.720  0.00  0.00    +0.094 C 
ATOM     13  N   UNL     1      -3.311   1.931  24.800  0.00  0.00    -0.280 N 
ATOM     14  C   UNL     1      -3.904   2.478  24.974  0.00  0.00    +0.093 C 
ATOM     15  C   UNL     1      -4.683   2.227  25.067  0.00  0.00    +0.022 C 
ATOM     16  C   UNL     1      -4.871   1.428  24.987  0.00  0.00    +0.015 C 
ATOM     21  C   UNL     1      -2.531   2.183  24.707  0.00  0.00    +0.226 C 
ATOM     22  O   UNL     1      -1.939   1.635  24.533  0.00  0.00    -0.275 OA
ENDROOT
BRANCH  11  10
ATOM     10  C   UNL     1      -4.467   0.081  24.733  0.00  0.00    +0.047 C 
BRANCH  10   9
ATOM      3  C   UNL     1      -3.670  -2.736  24.203  0.00  0.00    +0.138 A 
ATOM      4  C   UNL     1      -3.382  -2.554  24.955  0.00  0.00    +0.033 A 
ATOM      5  C   UNL     1      -3.510  -1.804  25.276  0.00  0.00    -0.016 A 
ATOM      6  C   UNL     1      -3.925  -1.236  24.844  0.00  0.00    +0.009 A 
ATOM      7  C   UNL     1      -4.212  -1.418  24.092  0.00  0.00    +0.004 A 
ATOM      8  C   UNL     1      -4.085  -2.168  23.771  0.00  0.00    +0.037 A 
ATOM      9  C   UNL     1      -4.052  -0.487  25.164  0.00  0.00    +0.053 C 
ATOM     31  N   UNL     1      -3.765  -0.305  25.915  0.00  0.00    -0.274 NA
ATOM     32  C   UNL     1      -3.350  -0.873  26.347  0.00  0.00    +0.130 C 
ATOM     33  C   UNL     1      -3.222  -1.622  26.027  0.00  0.00    +0.053 C 
BRANCH   3   2
ATOM      1  C   UNL     1      -2.826  -3.660  23.514  0.00  0.00    +0.252 C 
ATOM      2  O   UNL     1      -3.543  -3.485  23.883  0.00  0.00    -0.471 OA
ENDBRANCH   3   2
ENDBRANCH  10   9
ENDBRANCH  11  10
BRANCH  16  17
ATOM     17  C   UNL     1      -5.652   1.176  25.080  0.00  0.00    +0.114 C 
BRANCH  17  18
ATOM     18  C   UNL     1      -6.242   1.722  25.263  0.00  0.00    +0.365 C 
ATOM     19  O   UNL     1      -6.351   1.968  26.043  0.00  0.00    -0.246 OA
ATOM     20  O   UNL     1      -6.724   2.024  24.664  0.00  0.00    -0.246 OA
ENDBRANCH  17  18
ENDBRANCH  16  17
BRANCH  21  23
ATOM     23  C   UNL     1      -2.344   2.982  24.787  0.00  0.00    +0.090 C 
BRANCH  23  24
ATOM     24  C   UNL     1      -1.593   3.205  25.048  0.00  0.00    +0.036 C 
BRANCH  24  25
ATOM     25  C   UNL     1      -1.353   3.993  24.991  0.00  0.00    -0.022 A 
ATOM     26  C   UNL     1      -0.632   4.180  24.636  0.00  0.00    -0.004 A 
ATOM     27  C   UNL     1      -0.392   4.967  24.579  0.00  0.00    -0.000 A 
ATOM     28  C   UNL     1      -0.875   5.568  24.876  0.00  0.00    -0.000 A 
ATOM     29  C   UNL     1      -1.596   5.381  25.230  0.00  0.00    -0.000 A 
ATOM     30  C   UNL     1      -1.836   4.593  25.288  0.00  0.00    -0.004 A 
ENDBRANCH  24  25
ENDBRANCH  23  24
ENDBRANCH  21  23
TORSDOF 8
ENDMDL
MODEL 2
REMARK VINA RESULT:     -10.7      2.386      6.379
REMARK  Name = 
REMARK  8 active torsions:
REMARK  status: ('A' for Active; 'I' for Inactive)
REMARK    1  A    between atoms: O_2  and  C_3
REMARK    2  A    between atoms: C_9  and  C_10
REMARK    3  A    between atoms: C_10  and  C_11
REMARK    4  A    between atoms: C_16  and  C_17
REMARK    5  A    between atoms: C_17  and  C_18
REMARK    6  A    between atoms: C_21  and  C_23
REMARK    7  A    between atoms: C_23  and  C_24
REMARK    8  A    between atoms: C_24  and  C_25
REMARK                            x       y       z     vdW  Elec       q    Type
REMARK                         _______ _______ _______ _____ _____    ______ ____
ROOT
ATOM     11  C   UNL     1      -0.331   0.995  24.153  0.00  0.00    +0.026 C 
ATOM     12  C   UNL     1      -1.067   0.799  24.467  0.00  0.00    +0.094 C 
ATOM     13  N   UNL     1      -1.351   0.026  24.404  0.00  0.00    -0.280 N 
ATOM     14  C   UNL     1      -0.896  -0.550  24.028  0.00  0.00    +0.093 C 
ATOM     15  C   UNL     1      -0.159  -0.354  23.714  0.00  0.00    +0.022 C 
ATOM     16  C   UNL     1       0.124   0.418  23.776  0.00  0.00    +0.015 C 
ATOM     21  C   UNL     1      -2.088  -0.170  24.719  0.00  0.00    +0.226 C 
ATOM     22  O   UNL     1      -2.542   0.407  25.095  0.00  0.00    -0.275 OA
ENDROOT
BRANCH  11  10
ATOM     10  C   UNL     1      -0.048   1.767  24.215  0.00  0.00    +0.047 C 
BRANCH  10   9
ATOM      3  C   UNL     1      -0.918   4.501  25.004  0.00  0.00    +0.138 A 
ATOM      4  C   UNL     1      -0.689   4.123  25.701  0.00  0.00    +0.033 A 
ATOM      5  C   UNL     1      -0.414   3.345  25.679  0.00  0.00    -0.016 A 
ATOM      6  C   UNL     1      -0.368   2.944  24.958  0.00  0.00    +0.009 A 
ATOM      7  C   UNL     1      -0.597   3.322  24.261  0.00  0.00    +0.004 A 
ATOM      8  C   UNL     1      -0.872   4.100  24.283  0.00  0.00    +0.037 A 
ATOM      9  C   UNL     1      -0.093   2.167  24.935  0.00  0.00    +0.053 C 
ATOM     31  N   UNL     1       0.136   1.790  25.631  0.00  0.00    -0.274 NA
ATOM     32  C   UNL     1       0.090   2.191  26.352  0.00  0.00    +0.130 C 
ATOM     33  C   UNL     1      -0.185   2.968  26.375  0.00  0.00    +0.053 C 
BRANCH   3   2
ATOM      1  C   UNL     1      -2.003   5.428  25.053  0.00  0.00    +0.252 C 
ATOM      2  O   UNL     1      -1.193   5.277  25.027  0.00  0.00    -0.471 OA
ENDBRANCH   3   2
ENDBRANCH  10   9
ENDBRANCH  11  10
BRANCH  16  17
ATOM     17  C   UNL     1       0.861   0.614  23.462  0.00  0.00    +0.114 C 
BRANCH  17  18
ATOM     18  C   UNL     1       1.265   0.072  22.989  0.00  0.00    +0.365 C 
ATOM     19  O   UNL     1       1.064  -0.011  22.193  0.00  0.00    -0.246 OA
ATOM     20  O   UNL     1       1.870  -0.387  23.312  0.00  0.00    -0.246 OA
ENDBRANCH  17  18
ENDBRANCH  16  17
BRANCH  21  23
ATOM     23  C   UNL     1      -2.370  -0.942  24.656  0.00  0.00    +0.090 C 
BRANCH  23  24
ATOM     24  C   UNL     1      -3.150  -1.114  24.864  0.00  0.00    +0.036 C 
BRANCH  24  25
ATOM     25  C   UNL     1      -3.513  -1.797  24.576  0.00  0.00    -0.022 A 
ATOM     26  C   UNL     1      -4.086  -1.743  23.985  0.00  0.00    -0.004 A 
ATOM     27  C   UNL     1      -4.449  -2.425  23.697  0.00  0.00    -0.000 A 
ATOM     28  C   UNL     1      -4.238  -3.163  24.002  0.00  0.00    -0.000 A 
ATOM     29  C   UNL     1      -3.665  -3.218  24.593  0.00  0.00    -0.000 A 
ATOM     30  C   UNL     1      -3.302  -2.535  24.880  0.00  0.00    -0.004 A 
ENDBRANCH  24  25
ENDBRANCH  23  24
ENDBRANCH  21  23
TORSDOF 8
ENDMDL
MODEL 3
REMARK VINA RESULT:     -10.2      3.415      4.414
REMARK  Name = 
REMARK  8 active torsions:
REMARK  status: ('A' for Active; 'I' for Inactive)
REMARK    1  A    between atoms: O_2  and  C_3
REMARK    2  A    between atoms: C_9  and  C_10
REMARK    3  A    between atoms: C_10  and  C_11
REMARK    4  A    between atoms: C_16  and  C_17
REMARK    5  A    between atoms: C_17  and  C_18
REMARK    6  A    between atoms: C_21  and  C_23
REMARK    7  A    between atoms: C_23  and  C_24
REMARK    8  A    between atoms: C_24  and  C_25
REMARK                            x       y       z     vdW  Elec       q    Type
REMARK                         _______ _______ _______ _____ _____    ______ ____
ROOT
ATOM     11  C   UNL     1      -0.939   1.173  24.422  0.00  0.00    +0.026 C 
ATOM     12  C   UNL     1      -0.436   0.677  23.998  0.00  0.00    +0.094 C 
ATOM     13  N   UNL     1       0.345   0.905  23.856  0.00  0.00    -0.280 N 
ATOM     14  C   UNL     1       0.620   1.629  24.138  0.00  0.00    +0.093 C 
ATOM     15  C   UNL     1       0.117   2.125  24.562  0.00  0.00    +0.022 C 
ATOM     16  C   UNL     1      -0.663   1.898  24.704  0.00  0.00    +0.015 C 
ATOM     21  C   UNL     1       0.849   0.408  23.431  0.00  0.00    +0.226 C 
ATOM     22  O   UNL     1       0.572  -0.316  23.149  0.00  0.00    -0.275 OA
ENDROOT
BRANCH  11  10
ATOM     10  C   UNL     1      -1.719   0.945  24.565  0.00  0.00    +0.047 C 
BRANCH  10   9
ATOM      3  C   UNL     1      -3.856  -1.114  24.352  0.00  0.00    +0.138 A 
ATOM      4  C   UNL     1      -3.354  -1.366  24.957  0.00  0.00    +0.033 A 
ATOM      5  C   UNL     1      -2.694  -0.914  25.162  0.00  0.00    -0.016 A 
ATOM      6  C   UNL     1      -2.536  -0.210  24.761  0.00  0.00    +0.009 A 
ATOM      7  C   UNL     1      -3.038   0.042  24.156  0.00  0.00    +0.004 A 
ATOM      8  C   UNL     1      -3.698  -0.409  23.952  0.00  0.00    +0.037 A 
ATOM      9  C   UNL     1      -1.877   0.241  24.966  0.00  0.00    +0.053 C 
ATOM     31  N   UNL     1      -1.376  -0.011  25.570  0.00  0.00    -0.274 NA
ATOM     32  C   UNL     1      -1.534  -0.715  25.971  0.00  0.00    +0.130 C 
ATOM     33  C   UNL     1      -2.193  -1.166  25.766  0.00  0.00    +0.053 C 
BRANCH   3   2
ATOM      1  C   UNL     1      -4.426  -2.238  23.680  0.00  0.00    +0.252 C 
ATOM      2  O   UNL     1      -4.515  -1.565  24.148  0.00  0.00    -0.471 OA
ENDBRANCH   3   2
ENDBRANCH  10   9
ENDBRANCH  11  10
BRANCH  16  17
ATOM     17  C   UNL     1      -1.167   2.394  25.129  0.00  0.00    +0.114 C 
BRANCH  17  18
ATOM     18  C   UNL     1      -0.916   3.149  25.345  0.00  0.00    +0.365 C 
ATOM     19  O   UNL     1      -0.523   3.265  26.062  0.00  0.00    -0.246 OA
ATOM     20  O   UNL     1      -1.057   3.790  24.844  0.00  0.00    -0.246 OA
ENDBRANCH  17  18
ENDBRANCH  16  17
BRANCH  21  23
ATOM     23  C   UNL     1       1.628   0.637  23.289  0.00  0.00    +0.090 C 
BRANCH  23  24
ATOM     24  C   UNL     1       2.119   0.162  22.825  0.00  0.00    +0.036 C 
BRANCH  24  25
ATOM     25  C   UNL     1       2.938   0.253  22.864  0.00  0.00    -0.022 A 
ATOM     26  C   UNL     1       3.403  -0.341  23.199  0.00  0.00    -0.004 A 
ATOM     27  C   UNL     1       4.222  -0.251  23.239  0.00  0.00    -0.000 A 
ATOM     28  C   UNL     1       4.576   0.434  22.943  0.00  0.00    -0.000 A 
ATOM     29  C   UNL     1       4.111   1.027  22.608  0.00  0.00    -0.000 A 
ATOM     30  C   UNL     1       3.292   0.937  22.569  0.00  0.00    -0.004 A 
ENDBRANCH  24  25
ENDBRANCH  23  24
ENDBRANCH  21  23
TORSDOF 8
ENDMDL
MODEL 4
REMARK VINA RESULT:     -10.1      1.201      5.466
REMARK  Name = 
REMARK  8 active torsions:
REMARK  status: ('A' for Active; 'I' for Inactive)
REMARK    1  A    between atoms: O_2  and  C_3
REMARK    2  A    between atoms: C_9  and  C_10
REMARK    3  A    between atoms: C_10  and  C_11
REMARK    4  A    between atoms: C_16  and  C_17
REMARK    5  A    between atoms: C_17  and  C_18
REMARK    6  A    between atoms: C_21  and  C_23
REMARK    7  A    between atoms: C_23  and  C_24
REMARK    8  A    between atoms: C_24  and  C_25
REMARK                            x       y       z     vdW  Elec       q    Type
REMARK                         _______ _______ _______ _____ _____    ______ ____
ROOT
ATOM     11  C   UNL     1      -4.377   2.156  25.319  0.00  0.00    +0.026 C 
ATOM     12  C   UNL     1      -3.834   1.610  25.023  0.00  0.00    +0.094 C 
ATOM     13  N   UNL     1      -4.058   0.823  24.914  0.00  0.00    -0.280 N 
ATOM     14  C   UNL     1      -4.825   0.583  25.100  0.00  0.00    +0.093 C 
ATOM     15  C   UNL     1      -5.367   1.129  25.395  0.00  0.00    +0.022 C 
ATOM     16  C   UNL     1      -5.144   1.915  25.505  0.00  0.00    +0.015 C 
ATOM     21  C   UNL     1      -3.515   0.277  24.618  0.00  0.00    +0.226 C 
ATOM     22  O   UNL     1      -2.748   0.518  24.432  0.00  0.00    -0.275 OA
ENDROOT
BRANCH  11  10
ATOM     10  C   UNL     1      -4.154   2.942  25.428  0.00  0.00    +0.047 C 
BRANCH  10   9
ATOM      3  C   UNL     1      -1.818   4.766  25.162  0.00  0.00    +0.138 A 
ATOM      4  C   UNL     1      -2.167   4.730  24.415  0.00  0.00    +0.033 A 
ATOM      5  C   UNL     1      -2.838   4.265  24.294  0.00  0.00    -0.016 A 
ATOM      6  C   UNL     1      -3.161   3.836  24.922  0.00  0.00    +0.009 A 
ATOM      7  C   UNL     1      -2.811   3.871  25.669  0.00  0.00    +0.004 A 
ATOM      8  C   UNL     1      -2.140   4.336  25.789  0.00  0.00    +0.037 A 
ATOM      9  C   UNL     1      -3.831   3.371  24.802  0.00  0.00    +0.053 C 
ATOM     31  N   UNL     1      -4.180   3.336  24.055  0.00  0.00    -0.274 NA
ATOM     32  C   UNL     1      -3.858   3.766  23.428  0.00  0.00    +0.130 C 
ATOM     33  C   UNL     1      -3.187   4.230  23.548  0.00  0.00    +0.053 C 
BRANCH   3   2
ATOM      1  C   UNL     1      -0.435   5.028  24.919  0.00  0.00    +0.252 C 
ATOM      2  O   UNL     1      -1.147   5.230  25.282  0.00  0.00    -0.471 OA
ENDBRANCH   3   2
ENDBRANCH  10   9
ENDBRANCH  11  10
BRANCH  16  17
ATOM     17  C   UNL     1      -5.688   2.461  25.800  0.00  0.00    +0.114 C 
BRANCH  17  18
ATOM     18  C   UNL     1      -6.410   2.202  26.100  0.00  0.00    +0.365 C 
ATOM     19  O   UNL     1      -7.034   2.033  25.587  0.00  0.00    -0.246 OA
ATOM     20  O   UNL     1      -6.511   2.112  26.915  0.00  0.00    -0.246 OA
ENDBRANCH  17  18
ENDBRANCH  16  17
BRANCH  21  23
ATOM     23  C   UNL     1      -3.738  -0.509  24.509  0.00  0.00    +0.090 C 
BRANCH  23  24
ATOM     24  C   UNL     1      -3.169  -1.079  24.332  0.00  0.00    +0.036 C 
BRANCH  24  25
ATOM     25  C   UNL     1      -3.374  -1.879  24.325  0.00  0.00    -0.022 A 
ATOM     26  C   UNL     1      -2.970  -2.412  24.808  0.00  0.00    -0.004 A 
ATOM     27  C   UNL     1      -3.174  -3.211  24.802  0.00  0.00    -0.000 A 
ATOM     28  C   UNL     1      -3.783  -3.477  24.311  0.00  0.00    -0.000 A 
ATOM     29  C   UNL     1      -4.186  -2.944  23.827  0.00  0.00    -0.000 A 
ATOM     30  C   UNL     1      -3.981  -2.144  23.835  0.00  0.00    -0.004 A 
ENDBRANCH  24  25
ENDBRANCH  23  24
ENDBRANCH  21  23
TORSDOF 8
ENDMDL
MODEL 5
REMARK VINA RESULT:      -9.5      2.198      3.431
REMARK  Name = 
REMARK  8 active torsions:
REMARK  status: ('A' for Active; 'I' for Inactive)
REMARK    1  A    between atoms: O_2  and  C_3
REMARK    2  A    between atoms: C_9  and  C_10
REMARK    3  A    between atoms: C_10  and  C_11
REMARK    4  A    between atoms: C_16  and  C_17
REMARK    5  A    between atoms: C_17  and  C_18
REMARK    6  A    between atoms: C_21  and  C_23
REMARK    7  A    between atoms: C_23  and  C_24
REMARK    8  A    between atoms: C_24  and  C_25
REMARK                            x       y       z     vdW  Elec       q    Type
REMARK                         _______ _______ _______ _____ _____    ______ ____
ROOT
ATOM     11  C   UNL     1      -0.769   0.094  24.238  0.00  0.00    +0.026 C 
ATOM     12  C   UNL     1      -1.240   0.695  24.549  0.00  0.00    +0.094 C 
ATOM     13  N   UNL     1      -0.977   1.477  24.529  0.00  0.00    -0.280 N 
ATOM     14  C   UNL     1      -0.244   1.657  24.197  0.00  0.00    +0.093 C 
ATOM     15  C   UNL     1       0.227   1.057  23.887  0.00  0.00    +0.022 C 
ATOM     16  C   UNL     1      -0.034   0.275  23.907  0.00  0.00    +0.015 C 
ATOM     21  C   UNL     1      -1.449   2.079  24.840  0.00  0.00    +0.226 C 
ATOM     22  O   UNL     1      -2.183   1.897  25.171  0.00  0.00    -0.275 OA
ENDROOT
BRANCH  11  10
ATOM     10  C   UNL     1      -1.030  -0.688  24.258  0.00  0.00    +0.047 C 
BRANCH  10   9
ATOM      3  C   UNL     1      -3.524  -2.283  24.554  0.00  0.00    +0.138 A 
ATOM      4  C   UNL     1      -3.265  -2.119  25.320  0.00  0.00    +0.033 A 
ATOM      5  C   UNL     1      -2.577  -1.679  25.438  0.00  0.00    -0.016 A 
ATOM      6  C   UNL     1      -2.147  -1.403  24.789  0.00  0.00    +0.009 A 
ATOM      7  C   UNL     1      -2.406  -1.568  24.023  0.00  0.00    +0.004 A 
ATOM      8  C   UNL     1      -3.095  -2.007  23.905  0.00  0.00    +0.037 A 
ATOM      9  C   UNL     1      -1.459  -0.964  24.907  0.00  0.00    +0.053 C 
ATOM     31  N   UNL     1      -1.201  -0.800  25.672  0.00  0.00    -0.274 NA
ATOM     32  C   UNL     1      -1.630  -1.076  26.321  0.00  0.00    +0.130 C 
ATOM     33  C   UNL     1      -2.318  -1.515  26.203  0.00  0.00    +0.053 C 
BRANCH   3   2
ATOM      1  C   UNL     1      -4.627  -2.657  23.728  0.00  0.00    +0.252 C 
ATOM      2  O   UNL     1      -4.212  -2.723  24.437  0.00  0.00    -0.471 OA
ENDBRANCH   3   2
ENDBRANCH  10   9
ENDBRANCH  11  10
BRANCH  16  17
ATOM     17  C   UNL     1       0.437  -0.327  23.596  0.00  0.00    +0.114 C 
BRANCH  17  18
ATOM     18  C   UNL     1       0.995  -0.154  23.014  0.00  0.00    +0.365 C 
ATOM     19  O   UNL     1       1.770   0.035  23.227  0.00  0.00    -0.246 OA
ATOM     20  O   UNL     1       0.778  -0.169  22.217  0.00  0.00    -0.246 OA
ENDBRANCH  17  18
ENDBRANCH  16  17
BRANCH  21  23
ATOM     23  C   UNL     1      -1.187   2.860  24.819  0.00  0.00    +0.090 C 
BRANCH  23  24
ATOM     24  C   UNL     1      -1.468   3.404  25.372  0.00  0.00    +0.036 C 
BRANCH  24  25
ATOM     25  C   UNL     1      -1.411   4.214  25.221  0.00  0.00    -0.022 A 
ATOM     26  C   UNL     1      -0.705   4.532  24.936  0.00  0.00    -0.004 A 
ATOM     27  C   UNL     1      -0.649   5.341  24.785  0.00  0.00    -0.000 A 
ATOM     28  C   UNL     1      -1.299   5.832  24.918  0.00  0.00    -0.000 A 
ATOM     29  C   UNL     1      -2.005   5.513  25.203  0.00  0.00    -0.000 A 
ATOM     30  C   UNL     1      -2.061   4.704  25.354  0.00  0.00    -0.004 A 
ENDBRANCH  24  25
ENDBRANCH  23  24
ENDBRANCH  21  23
TORSDOF 8
ENDMDL
MODEL 6
REMARK VINA RESULT:      -9.4      1.408      5.290
REMARK  Name = 
REMARK  8 active torsions:
REMARK  status: ('A' for Active; 'I' for Inactive)
REMARK    1  A    between atoms: O_2  and  C_3
REMARK    2  A    between atoms: C_9  and  C_10
REMARK    3  A    between atoms: C_10  and  C_11
REMARK    4  A    between atoms: C_16  and  C_17
REMARK    5  A    between atoms: C_17  and  C_18
REMARK    6  A    between atoms: C_21  and  C_23
REMARK    7  A    between atoms: C_23  and  C_24
REMARK    8  A    between atoms: C_24  and  C_25
REMARK                            x       y       z     vdW  Elec       q    Type
REMARK                         _______ _______ _______ _____ _____    ______ ____
ROOT
ATOM     11  C   UNL     1      -3.209   2.363  25.159  0.00  0.00    +0.026 C 
ATOM     12  C   UNL     1      -2.936   1.595  25.037  0.00  0.00    +0.094 C 
ATOM     13  N   UNL     1      -3.472   0.987  24.878  0.00  0.00    -0.280 N 
ATOM     14  C   UNL     1      -4.280   1.149  24.841  0.00  0.00    +0.093 C 
ATOM     15  C   UNL     1      -4.552   1.917  24.963  0.00  0.00    +0.022 C 
ATOM     16  C   UNL     1      -4.018   2.525  25.122  0.00  0.00    +0.015 C 
ATOM     21  C   UNL     1      -3.199   0.218  24.756  0.00  0.00    +0.226 C 
ATOM     22  O   UNL     1      -2.391   0.057  24.794  0.00  0.00    -0.275 OA
ENDROOT
BRANCH  11  10
ATOM     10  C   UNL     1      -2.674   2.970  25.318  0.00  0.00    +0.047 C 
BRANCH  10   9
ATOM      3  C   UNL     1       0.165   2.784  26.188  0.00  0.00    +0.138 A 
ATOM      4  C   UNL     1       0.182   2.884  25.369  0.00  0.00    +0.033 A 
ATOM      5  C   UNL     1      -0.523   2.956  24.946  0.00  0.00    -0.016 A 
ATOM      6  C   UNL     1      -1.247   2.927  25.343  0.00  0.00    +0.009 A 
ATOM      7  C   UNL     1      -1.264   2.827  26.162  0.00  0.00    +0.004 A 
ATOM      8  C   UNL     1      -0.559   2.756  26.585  0.00  0.00    +0.037 A 
ATOM      9  C   UNL     1      -1.951   2.999  24.921  0.00  0.00    +0.053 C 
ATOM     31  N   UNL     1      -1.934   3.099  24.103  0.00  0.00    -0.274 NA
ATOM     32  C   UNL     1      -1.210   3.127  23.706  0.00  0.00    +0.130 C 
ATOM     33  C   UNL     1      -0.506   3.056  24.128  0.00  0.00    +0.053 C 
BRANCH   3   2
ATOM      1  C   UNL     1       0.852   2.610  27.428  0.00  0.00    +0.252 C 
ATOM      2  O   UNL     1       0.870   2.713  26.610  0.00  0.00    -0.471 OA
ENDBRANCH   3   2
ENDBRANCH  10   9
ENDBRANCH  11  10
BRANCH  16  17
ATOM     17  C   UNL     1      -4.290   3.294  25.244  0.00  0.00    +0.114 C 
BRANCH  17  18
ATOM     18  C   UNL     1      -5.052   3.420  25.533  0.00  0.00    +0.365 C 
ATOM     19  O   UNL     1      -5.653   3.665  25.023  0.00  0.00    -0.246 OA
ATOM     20  O   UNL     1      -5.214   3.300  26.334  0.00  0.00    -0.246 OA
ENDBRANCH  17  18
ENDBRANCH  16  17
BRANCH  21  23
ATOM     23  C   UNL     1      -3.734  -0.389  24.597  0.00  0.00    +0.090 C 
BRANCH  23  24
ATOM     24  C   UNL     1      -3.660  -1.115  24.981  0.00  0.00    +0.036 C 
BRANCH  24  25
ATOM     25  C   UNL     1      -3.812  -1.816  24.572  0.00  0.00    -0.022 A 
ATOM     26  C   UNL     1      -4.349  -1.821  23.946  0.00  0.00    -0.004 A 
ATOM     27  C   UNL     1      -4.501  -2.520  23.537  0.00  0.00    -0.000 A 
ATOM     28  C   UNL     1      -4.114  -3.217  23.755  0.00  0.00    -0.000 A 
ATOM     29  C   UNL     1      -3.577  -3.213  24.380  0.00  0.00    -0.000 A 
ATOM     30  C   UNL     1      -3.425  -2.512  24.789  0.00  0.00    -0.004 A 
ENDBRANCH  24  25
ENDBRANCH  23  24
ENDBRANCH  21  23
TORSDOF 8
ENDMDL
MODEL 7
REMARK VINA RESULT:      -9.2      1.873      5.822
REMARK  Name = 
REMARK  8 active torsions:
REMARK  status: ('A' for Active; 'I' for Inactive)
REMARK    1  A    between atoms: O_2  and  C_3
REMARK    2  A    between atoms: C_9  and  C_10
REMARK    3  A    between atoms: C_10  and  C_11
REMARK    4  A    between atoms: C_16  and  C_17
REMARK    5  A    between atoms: C_17  and  C_18
REMARK    6  A    between atoms: C_21  and  C_23
REMARK    7  A    between atoms: C_23  and  C_24
REMARK    8  A    between atoms: C_24  and  C_25
REMARK                            x       y       z     vdW  Elec       q    Type
REMARK                         _______ _______ _______ _____ _____    ______ ____
ROOT
ATOM     11  C   UNL     1      -2.029   1.891  24.969  0.00  0.00    +0.026 C 
ATOM     12  C   UNL     1      -2.619   1.323  25.060  0.00  0.00    +0.094 C 
ATOM     13  N   UNL     1      -2.420   0.522  25.091  0.00  0.00    -0.280 N 
ATOM     14  C   UNL     1      -1.631   0.291  25.031  0.00  0.00    +0.093 C 
ATOM     15  C   UNL     1      -1.041   0.859  24.940  0.00  0.00    +0.022 C 
ATOM     16  C   UNL     1      -1.239   1.659  24.908  0.00  0.00    +0.015 C 
ATOM     21  C   UNL     1      -3.011  -0.047  25.183  0.00  0.00    +0.226 C 
ATOM     22  O   UNL     1      -3.800   0.185  25.243  0.00  0.00    -0.275 OA
ENDROOT
BRANCH  11  10
ATOM     10  C   UNL     1      -2.227   2.691  24.937  0.00  0.00    +0.047 C 
BRANCH  10   9
ATOM      3  C   UNL     1      -4.780   4.144  25.409  0.00  0.00    +0.138 A 
ATOM      4  C   UNL     1      -4.745   3.999  24.598  0.00  0.00    +0.033 A 
ATOM      5  C   UNL     1      -4.099   3.600  24.276  0.00  0.00    -0.016 A 
ATOM      6  C   UNL     1      -3.486   3.345  24.767  0.00  0.00    +0.009 A 
ATOM      7  C   UNL     1      -3.521   3.489  25.579  0.00  0.00    +0.004 A 
ATOM      8  C   UNL     1      -4.167   3.889  25.901  0.00  0.00    +0.037 A 
ATOM      9  C   UNL     1      -2.840   2.946  24.447  0.00  0.00    +0.053 C 
ATOM     31  N   UNL     1      -2.805   2.801  23.636  0.00  0.00    -0.274 NA
ATOM     32  C   UNL     1      -3.418   3.057  23.145  0.00  0.00    +0.130 C 
ATOM     33  C   UNL     1      -4.064   3.456  23.465  0.00  0.00    +0.053 C 
BRANCH   3   2
ATOM      1  C   UNL     1      -6.154   4.162  25.799  0.00  0.00    +0.252 C 
ATOM      2  O   UNL     1      -5.426   4.543  25.730  0.00  0.00    -0.471 OA
ENDBRANCH   3   2
ENDBRANCH  10   9
ENDBRANCH  11  10
BRANCH  16  17
ATOM     17  C   UNL     1      -0.648   2.228  24.817  0.00  0.00    +0.114 C 
BRANCH  17  18
ATOM     18  C   UNL     1       0.143   2.021  24.921  0.00  0.00    +0.365 C 
ATOM     19  O   UNL     1       0.497   2.100  25.662  0.00  0.00    -0.246 OA
ATOM     20  O   UNL     1       0.582   1.733  24.283  0.00  0.00    -0.246 OA
ENDBRANCH  17  18
ENDBRANCH  16  17
BRANCH  21  23
ATOM     23  C   UNL     1      -2.812  -0.846  25.214  0.00  0.00    +0.090 C 
BRANCH  23  24
ATOM     24  C   UNL     1      -3.395  -1.411  25.360  0.00  0.00    +0.036 C 
BRANCH  24  25
ATOM     25  C   UNL     1      -3.419  -2.105  24.913  0.00  0.00    -0.022 A 
ATOM     26  C   UNL     1      -2.858  -2.696  25.039  0.00  0.00    -0.004 A 
ATOM     27  C   UNL     1      -2.881  -3.390  24.594  0.00  0.00    -0.000 A 
ATOM     28  C   UNL     1      -3.467  -3.492  24.021  0.00  0.00    -0.000 A 
ATOM     29  C   UNL     1      -4.028  -2.901  23.894  0.00  0.00    -0.000 A 
ATOM     30  C   UNL     1      -4.004  -2.207  24.341  0.00  0.00    -0.004 A 
ENDBRANCH  24  25
ENDBRANCH  23  24
ENDBRANCH  21  23
TORSDOF 8
ENDMDL
MODEL 8
REMARK VINA RESULT:      -8.9      2.815      4.775
REMARK  Name = 
REMARK  8 active torsions:
REMARK  status: ('A' for Active; 'I' for Inactive)
REMARK    1  A    between atoms: O_2  and  C_3
REMARK    2  A    between atoms: C_9  and  C_10
REMARK    3  A    between atoms: C_10  and  C_11
REMARK    4  A    between atoms: C_16  and  C_17
REMARK    5  A    between atoms: C_17  and  C_18
REMARK    6  A    between atoms: C_21  and  C_23
REMARK    7  A    between atoms: C_23  and  C_24
REMARK    8  A    between atoms: C_24  and  C_25
REMARK                            x       y       z     vdW  Elec       q    Type
REMARK                         _______ _______ _______ _____ _____    ______ ____
ROOT
ATOM     11  C   UNL     1      -1.561  -0.161  24.209  0.00  0.00    +0.026 C 
ATOM     12  C   UNL     1      -1.957   0.535  24.014  0.00  0.00    +0.094 C 
ATOM     13  N   UNL     1      -2.737   0.649  24.258  0.00  0.00    -0.280 N 
ATOM     14  C   UNL     1      -3.120   0.065  24.697  0.00  0.00    +0.093 C 
ATOM     15  C   UNL     1      -2.724  -0.631  24.893  0.00  0.00    +0.022 C 
ATOM     16  C   UNL     1      -1.945  -0.745  24.649  0.00  0.00    +0.015 C 
ATOM     21  C   UNL     1      -3.134   1.345  24.062  0.00  0.00    +0.226 C 
ATOM     22  O   UNL     1      -2.749   1.928  23.622  0.00  0.00    -0.275 OA
ENDROOT
BRANCH  11  10
ATOM     10  C   UNL     1      -0.781  -0.275  23.966  0.00  0.00    +0.047 C 
BRANCH  10   9
ATOM      3  C   UNL     1       1.850   0.337  22.717  0.00  0.00    +0.138 A 
ATOM      4  C   UNL     1       1.715   0.932  23.273  0.00  0.00    +0.033 A 
ATOM      5  C   UNL     1       1.024   0.929  23.724  0.00  0.00    -0.016 A 
ATOM      6  C   UNL     1       0.466   0.329  23.619  0.00  0.00    +0.009 A 
ATOM      7  C   UNL     1       0.601  -0.267  23.064  0.00  0.00    +0.004 A 
ATOM      8  C   UNL     1       1.292  -0.263  22.613  0.00  0.00    +0.037 A 
ATOM      9  C   UNL     1      -0.224   0.325  24.070  0.00  0.00    +0.053 C 
ATOM     31  N   UNL     1      -0.358   0.920  24.625  0.00  0.00    -0.274 NA
ATOM     32  C   UNL     1       0.200   1.520  24.729  0.00  0.00    +0.130 C 
ATOM     33  C   UNL     1       0.890   1.524  24.278  0.00  0.00    +0.053 C 
BRANCH   3   2
ATOM      1  C   UNL     1       3.272   0.250  22.634  0.00  0.00    +0.252 C 
ATOM      2  O   UNL     1       2.540   0.341  22.267  0.00  0.00    -0.471 OA
ENDBRANCH   3   2
ENDBRANCH  10   9
ENDBRANCH  11  10
BRANCH  16  17
ATOM     17  C   UNL     1      -1.548  -1.441  24.845  0.00  0.00    +0.114 C 
BRANCH  17  18
ATOM     18  C   UNL     1      -1.965  -2.150  24.902  0.00  0.00    +0.365 C 
ATOM     19  O   UNL     1      -2.311  -2.370  25.619  0.00  0.00    -0.246 OA
ATOM     20  O   UNL     1      -2.037  -2.641  24.242  0.00  0.00    -0.246 OA
ENDBRANCH  17  18
ENDBRANCH  16  17
BRANCH  21  23
ATOM     23  C   UNL     1      -3.913   1.458  24.306  0.00  0.00    +0.090 C 
BRANCH  23  24
ATOM     24  C   UNL     1      -4.260   2.204  24.243  0.00  0.00    +0.036 C 
BRANCH  24  25
ATOM     25  C   UNL     1      -4.884   2.412  24.743  0.00  0.00    -0.022 A 
ATOM     26  C   UNL     1      -5.554   1.933  24.788  0.00  0.00    -0.004 A 
ATOM     27  C   UNL     1      -6.177   2.140  25.287  0.00  0.00    -0.000 A 
ATOM     28  C   UNL     1      -6.130   2.828  25.741  0.00  0.00    -0.000 A 
ATOM     29  C   UNL     1      -5.460   3.307  25.696  0.00  0.00    -0.000 A 
ATOM     30  C   UNL     1      -4.837   3.099  25.196  0.00  0.00    -0.004 A 
ENDBRANCH  24  25
ENDBRANCH  23  24
ENDBRANCH  21  23
TORSDOF 8
ENDMDL
MODEL 9
REMARK VINA RESULT:      -8.5      3.055      4.982
REMARK  Name = 
REMARK  8 active torsions:
REMARK  status: ('A' for Active; 'I' for Inactive)
REMARK    1  A    between atoms: O_2  and  C_3
REMARK    2  A    between atoms: C_9  and  C_10
REMARK    3  A    between atoms: C_10  and  C_11
REMARK    4  A    between atoms: C_16  and  C_17
REMARK    5  A    between atoms: C_17  and  C_18
REMARK    6  A    between atoms: C_21  and  C_23
REMARK    7  A    between atoms: C_23  and  C_24
REMARK    8  A    between atoms: C_24  and  C_25
REMARK                            x       y       z     vdW  Elec       q    Type
REMARK                         _______ _______ _______ _____ _____    ______ ____
ROOT
ATOM     11  C   UNL     1      -1.820   0.558  24.441  0.00  0.00    +0.026 C 
ATOM     12  C   UNL     1      -1.163   1.014  24.243  0.00  0.00    +0.094 C 
ATOM     13  N   UNL     1      -0.443   0.648  24.070  0.00  0.00    -0.280 N 
ATOM     14  C   UNL     1      -0.383  -0.175  24.096  0.00  0.00    +0.093 C 
ATOM     15  C   UNL     1      -1.040  -0.631  24.294  0.00  0.00    +0.022 C 
ATOM     16  C   UNL     1      -1.759  -0.265  24.467  0.00  0.00    +0.015 C 
ATOM     21  C   UNL     1       0.215   1.104  23.871  0.00  0.00    +0.226 C 
ATOM     22  O   UNL     1       0.153   1.927  23.846  0.00  0.00    -0.275 OA
ENDROOT
BRANCH  11  10
ATOM     10  C   UNL     1      -2.539   0.923  24.614  0.00  0.00    +0.047 C 
BRANCH  10   9
ATOM      3  C   UNL     1      -4.294   3.305  24.929  0.00  0.00    +0.138 A 
ATOM      4  C   UNL     1      -4.140   3.238  24.121  0.00  0.00    +0.033 A 
ATOM      5  C   UNL     1      -3.663   2.627  23.840  0.00  0.00    -0.016 A 
ATOM      6  C   UNL     1      -3.339   2.080  24.368  0.00  0.00    +0.009 A 
ATOM      7  C   UNL     1      -3.493   2.146  25.176  0.00  0.00    +0.004 A 
ATOM      8  C   UNL     1      -3.970   2.758  25.457  0.00  0.00    +0.037 A 
ATOM      9  C   UNL     1      -2.862   1.469  24.087  0.00  0.00    +0.053 C 
ATOM     31  N   UNL     1      -2.709   1.403  23.280  0.00  0.00    -0.274 NA
ATOM     32  C   UNL     1      -3.033   1.949  22.752  0.00  0.00    +0.130 C 
ATOM     33  C   UNL     1      -3.509   2.561  23.033  0.00  0.00    +0.053 C 
BRANCH   3   2
ATOM      1  C   UNL     1      -5.449   3.743  25.645  0.00  0.00    +0.252 C 
ATOM      2  O   UNL     1      -4.771   3.916  25.210  0.00  0.00    -0.471 OA
ENDBRANCH   3   2
ENDBRANCH  10   9
ENDBRANCH  11  10
BRANCH  16  17
ATOM     17  C   UNL     1      -2.417  -0.722  24.666  0.00  0.00    +0.114 C 
BRANCH  17  18
ATOM     18  C   UNL     1      -2.325  -1.521  24.845  0.00  0.00    +0.365 C 
ATOM     19  O   UNL     1      -2.398  -2.089  24.251  0.00  0.00    -0.246 OA
ATOM     20  O   UNL     1      -2.159  -1.754  25.620  0.00  0.00    -0.246 OA
ENDBRANCH  17  18
ENDBRANCH  16  17
BRANCH  21  23
ATOM     23  C   UNL     1       0.933   0.738  23.698  0.00  0.00    +0.090 C 
BRANCH  23  24
ATOM     24  C   UNL     1       1.598   1.196  23.528  0.00  0.00    +0.036 C 
BRANCH  24  25
ATOM     25  C   UNL     1       2.238   0.861  23.128  0.00  0.00    -0.022 A 
ATOM     26  C   UNL     1       2.992   1.186  23.211  0.00  0.00    -0.004 A 
ATOM     27  C   UNL     1       3.632   0.852  22.811  0.00  0.00    -0.000 A 
ATOM     28  C   UNL     1       3.517   0.192  22.328  0.00  0.00    -0.000 A 
ATOM     29  C   UNL     1       2.763  -0.133  22.246  0.00  0.00    -0.000 A 
ATOM     30  C   UNL     1       2.123   0.202  22.646  0.00  0.00    -0.004 A 
ENDBRANCH  24  25
ENDBRANCH  23  24
ENDBRANCH  21  23
TORSDOF 8
ENDMDL
