MODEL 1
REMARK VINA RESULT:     -13.3      0.000      0.000
REMARK  Name = 
REMARK  5 active torsions:
REMARK  status: ('A' for Active; 'I' for Inactive)
REMARK    1  A    between atoms: C_2  and  C_4
REMARK    2  A    between atoms: C_4  and  C_5
REMARK    3  A    between atoms: C_7  and  C_18
REMARK    4  A    between atoms: N_20  and  C_21
REMARK    5  A    between atoms: C_21  and  C_22
REMARK                            x       y       z     vdW  Elec       q    Type
REMARK                         _______ _______ _______ _____ _____    ______ ____
ROOT
ATOM      5  C   UNL     1      -3.090   3.057  25.076  0.00  0.00    +0.095 C 
ATOM      6  N   UNL     1      -3.333   2.366  24.697  0.00  0.00    -0.207 NA
ATOM      7  C   UNL     1      -2.894   1.862  24.214  0.00  0.00    +0.155 C 
ATOM      8  C   UNL     1      -2.103   1.925  23.990  0.00  0.00    +0.055 C 
ATOM      9  C   UNL     1      -1.555   2.508  24.194  0.00  0.00    +0.000 A 
ATOM     10  C   UNL     1      -0.773   2.509  23.932  0.00  0.00    +0.095 A 
ATOM     11  N   UNL     1      -0.398   3.172  24.248  0.00  0.00    -0.244 NA
ATOM     12  C   UNL     1      -0.949   3.582  24.706  0.00  0.00    +0.081 A 
ATOM     13  C   UNL     1      -1.664   3.171  24.673  0.00  0.00    +0.013 A 
ATOM     14  C   UNL     1      -2.348   3.415  25.065  0.00  0.00    -0.005 A 
ATOM     15  C   UNL     1      -2.265   4.147  25.525  0.00  0.00    -0.003 A 
ATOM     16  C   UNL     1      -1.550   4.558  25.559  0.00  0.00    +0.001 A 
ATOM     17  C   UNL     1      -0.892   4.275  25.149  0.00  0.00    +0.019 A 
ENDROOT
BRANCH   7  18
ATOM     18  C   UNL     1      -3.300   1.208  23.915  0.00  0.00    +0.258 C 
ATOM     19  O   UNL     1      -3.656   1.249  23.173  0.00  0.00    -0.272 OA
ATOM     20  N   UNL     1      -3.348   0.514  24.360  0.00  0.00    -0.199 NA
BRANCH  20  21
ATOM     21  C   UNL     1      -3.754  -0.138  24.061  0.00  0.00    +0.142 C 
BRANCH  21  22
ATOM     22  C   UNL     1      -3.688  -0.871  24.436  0.00  0.00    -0.000 A 
ATOM     23  C   UNL     1      -3.730  -1.566  23.992  0.00  0.00    -0.000 A 
ATOM     24  C   UNL     1      -3.665  -2.299  24.367  0.00  0.00    +0.029 A 
ATOM     25  C   UNL     1      -3.557  -2.336  25.184  0.00  0.00    +0.140 A 
ATOM     26  F   UNL     1      -3.491  -3.068  25.558  0.00  0.00    -0.204 F 
ATOM     27  C   UNL     1      -3.515  -1.641  25.627  0.00  0.00    +0.029 A 
ATOM     28  C   UNL     1      -3.580  -0.908  25.253  0.00  0.00    -0.000 A 
ENDBRANCH  21  22
ENDBRANCH  20  21
ENDBRANCH   7  18
BRANCH   5   4
ATOM      4  C   UNL     1      -3.666   3.440  25.525  0.00  0.00    +0.022 C 
BRANCH   4   2
ATOM      1  C   UNL     1      -4.723   3.822  24.642  0.00  0.00    +0.000 C 
ATOM      2  C   UNL     1      -4.459   3.399  25.300  0.00  0.00    +0.002 C 
ATOM      3  C   UNL     1      -4.988   2.936  25.733  0.00  0.00    +0.000 C 
ENDBRANCH   4   2
ENDBRANCH   5   4
TORSDOF 5
ENDMDL
MODEL 2
REMARK VINA RESULT:     -13.1      0.812      2.285
REMARK  Name = 
REMARK  5 active torsions:
REMARK  status: ('A' for Active; 'I' for Inactive)
REMARK    1  A    between atoms: C_2  and  C_4
REMARK    2  A    between atoms: C_4  and  C_5
REMARK    3  A    between atoms: C_7  and  C_18
REMARK    4  A    between atoms: N_20  and  C_21
REMARK    5  A    between atoms: C_21  and  C_22
REMARK                            x       y       z     vdW  Elec       q    Type
REMARK                         _______ _______ _______ _____ _____    ______ ____
ROOT
ATOM      5  C   UNL     1      -2.135   2.606  24.879  0.00  0.00    +0.095 C 
ATOM      6  N   UNL     1      -2.435   1.955  24.470  0.00  0.00    -0.207 NA
ATOM      7  C   UNL     1      -3.223   1.739  24.354  0.00  0.00    +0.155 C 
ATOM      8  C   UNL     1      -3.905   2.121  24.618  0.00  0.00    +0.055 C 
ATOM      9  C   UNL     1      -3.968   2.812  25.064  0.00  0.00    +0.000 A 
ATOM     10  C   UNL     1      -4.689   3.140  25.295  0.00  0.00    +0.095 A 
ATOM     11  N   UNL     1      -4.531   3.824  25.730  0.00  0.00    -0.244 NA
ATOM     12  C   UNL     1      -3.712   3.919  25.767  0.00  0.00    +0.081 A 
ATOM     13  C   UNL     1      -3.364   3.293  25.356  0.00  0.00    +0.013 A 
ATOM     14  C   UNL     1      -2.548   3.201  25.273  0.00  0.00    -0.005 A 
ATOM     15  C   UNL     1      -2.069   3.816  25.654  0.00  0.00    -0.003 A 
ATOM     16  C   UNL     1      -2.416   4.442  26.066  0.00  0.00    +0.001 A 
ATOM     17  C   UNL     1      -3.238   4.492  26.122  0.00  0.00    +0.019 A 
ENDROOT
BRANCH   7  18
ATOM     18  C   UNL     1      -3.345   1.051  23.916  0.00  0.00    +0.258 C 
ATOM     19  O   UNL     1      -3.339   1.081  23.092  0.00  0.00    -0.272 OA
ATOM     20  N   UNL     1      -3.473   0.333  24.302  0.00  0.00    -0.199 NA
BRANCH  20  21
ATOM     21  C   UNL     1      -3.594  -0.355  23.865  0.00  0.00    +0.142 C 
BRANCH  21  22
ATOM     22  C   UNL     1      -3.594  -1.089  24.242  0.00  0.00    -0.000 A 
ATOM     23  C   UNL     1      -3.219  -1.178  24.971  0.00  0.00    -0.000 A 
ATOM     24  C   UNL     1      -3.219  -1.912  25.349  0.00  0.00    +0.029 A 
ATOM     25  C   UNL     1      -3.595  -2.557  24.996  0.00  0.00    +0.140 A 
ATOM     26  F   UNL     1      -3.595  -3.290  25.373  0.00  0.00    -0.204 F 
ATOM     27  C   UNL     1      -3.970  -2.467  24.266  0.00  0.00    +0.029 A 
ATOM     28  C   UNL     1      -3.970  -1.734  23.889  0.00  0.00    -0.000 A 
ENDBRANCH  21  22
ENDBRANCH  20  21
ENDBRANCH   7  18
BRANCH   5   4
ATOM      4  C   UNL     1      -1.313   2.669  24.896  0.00  0.00    +0.022 C 
BRANCH   4   2
ATOM      1  C   UNL     1      -0.777   1.583  25.656  0.00  0.00    +0.000 C 
ATOM      2  C   UNL     1      -0.848   1.988  24.941  0.00  0.00    +0.002 C 
ATOM      3  C   UNL     1      -0.455   1.712  24.269  0.00  0.00    +0.000 C 
ENDBRANCH   4   2
ENDBRANCH   5   4
TORSDOF 5
ENDMDL
MODEL 3
REMARK VINA RESULT:     -12.7      1.999      5.093
REMARK  Name = 
REMARK  5 active torsions:
REMARK  status: ('A' for Active; 'I' for Inactive)
REMARK    1  A    between atoms: C_2  and  C_4
REMARK    2  A    between atoms: C_4  and  C_5
REMARK    3  A    between atoms: C_7  and  C_18
REMARK    4  A    between atoms: N_20  and  C_21
REMARK    5  A    between atoms: C_21  and  C_22
REMARK                            x       y       z     vdW  Elec       q    Type
REMARK                         _______ _______ _______ _____ _____    ______ ____
ROOT
ATOM      5  C   UNL     1      -2.141  -0.657  24.681  0.00  0.00    +0.095 C 
ATOM      6  N   UNL     1      -2.326   0.108  24.436  0.00  0.00    -0.207 NA
ATOM      7  C   UNL     1      -3.020   0.381  24.082  0.00  0.00    +0.155 C 
ATOM      8  C   UNL     1      -3.699  -0.044  23.887  0.00  0.00    +0.055 C 
ATOM      9  C   UNL     1      -3.854  -0.847  23.997  0.00  0.00    +0.000 A 
ATOM     10  C   UNL     1      -4.561  -1.209  23.777  0.00  0.00    +0.095 A 
ATOM     11  N   UNL     1      -4.511  -2.009  23.973  0.00  0.00    -0.244 NA
ATOM     12  C   UNL     1      -3.772  -2.141  24.314  0.00  0.00    +0.081 A 
ATOM     13  C   UNL     1      -3.365  -1.423  24.330  0.00  0.00    +0.013 A 
ATOM     14  C   UNL     1      -2.603  -1.338  24.634  0.00  0.00    -0.005 A 
ATOM     15  C   UNL     1      -2.249  -2.068  24.944  0.00  0.00    -0.003 A 
ATOM     16  C   UNL     1      -2.654  -2.786  24.929  0.00  0.00    +0.001 A 
ATOM     17  C   UNL     1      -3.416  -2.823  24.614  0.00  0.00    +0.019 A 
ENDROOT
BRANCH   7  18
ATOM     18  C   UNL     1      -3.036   1.186  23.900  0.00  0.00    +0.258 C 
ATOM     19  O   UNL     1      -2.946   1.433  23.119  0.00  0.00    -0.272 OA
ATOM     20  N   UNL     1      -3.142   1.743  24.500  0.00  0.00    -0.199 NA
BRANCH  20  21
ATOM     21  C   UNL     1      -3.158   2.547  24.318  0.00  0.00    +0.142 C 
BRANCH  21  22
ATOM     22  C   UNL     1      -3.137   3.107  24.924  0.00  0.00    -0.000 A 
ATOM     23  C   UNL     1      -2.423   3.467  25.127  0.00  0.00    -0.000 A 
ATOM     24  C   UNL     1      -2.402   4.028  25.733  0.00  0.00    +0.029 A 
ATOM     25  C   UNL     1      -3.094   4.227  26.135  0.00  0.00    +0.140 A 
ATOM     26  F   UNL     1      -3.072   4.787  26.740  0.00  0.00    -0.204 F 
ATOM     27  C   UNL     1      -3.808   3.866  25.931  0.00  0.00    +0.029 A 
ATOM     28  C   UNL     1      -3.829   3.306  25.326  0.00  0.00    -0.000 A 
ENDBRANCH  21  22
ENDBRANCH  20  21
ENDBRANCH   7  18
BRANCH   5   4
ATOM      4  C   UNL     1      -1.394  -0.753  25.018  0.00  0.00    +0.022 C 
BRANCH   4   2
ATOM      1  C   UNL     1      -0.556   0.373  25.284  0.00  0.00    +0.000 C 
ATOM      2  C   UNL     1      -0.774  -0.255  24.797  0.00  0.00    +0.002 C 
ATOM      3  C   UNL     1      -0.374  -0.387  24.087  0.00  0.00    +0.000 C 
ENDBRANCH   4   2
ENDBRANCH   5   4
TORSDOF 5
ENDMDL
MODEL 4
REMARK VINA RESULT:     -12.4      2.253      4.980
REMARK  Name = 
REMARK  5 active torsions:
REMARK  status: ('A' for Active; 'I' for Inactive)
REMARK    1  A    between atoms: C_2  and  C_4
REMARK    2  A    between atoms: C_4  and  C_5
REMARK    3  A    between atoms: C_7  and  C_18
REMARK    4  A    between atoms: N_20  and  C_21
REMARK    5  A    between atoms: C_21  and  C_22
REMARK                            x       y       z     vdW  Elec       q    Type
REMARK                         _______ _______ _______ _____ _____    ______ ____
ROOT
ATOM      5  C   UNL     1      -3.428  -0.362  24.885  0.00  0.00    +0.095 C 
ATOM      6  N   UNL     1      -2.781   0.040  25.201  0.00  0.00    -0.207 NA
ATOM      7  C   UNL     1      -2.005  -0.227  25.295  0.00  0.00    +0.155 C 
ATOM      8  C   UNL     1      -1.687  -0.961  25.097  0.00  0.00    +0.055 C 
ATOM      9  C   UNL     1      -2.064  -1.611  24.755  0.00  0.00    +0.000 A 
ATOM     10  C   UNL     1      -1.681  -2.320  24.583  0.00  0.00    +0.095 A 
ATOM     11  N   UNL     1      -2.234  -2.834  24.248  0.00  0.00    -0.244 NA
ATOM     12  C   UNL     1      -2.959  -2.442  24.214  0.00  0.00    +0.081 A 
ATOM     13  C   UNL     1      -2.854  -1.685  24.528  0.00  0.00    +0.013 A 
ATOM     14  C   UNL     1      -3.461  -1.129  24.586  0.00  0.00    -0.005 A 
ATOM     15  C   UNL     1      -4.232  -1.396  24.290  0.00  0.00    -0.003 A 
ATOM     16  C   UNL     1      -4.338  -2.152  23.976  0.00  0.00    +0.001 A 
ATOM     17  C   UNL     1      -3.700  -2.675  23.939  0.00  0.00    +0.019 A 
ENDROOT
BRANCH   7  18
ATOM     18  C   UNL     1      -1.480   0.312  25.633  0.00  0.00    +0.258 C 
ATOM     19  O   UNL     1      -1.164   0.168  26.381  0.00  0.00    -0.272 OA
ATOM     20  N   UNL     1      -1.270   0.997  25.221  0.00  0.00    -0.199 NA
BRANCH  20  21
ATOM     21  C   UNL     1      -0.745   1.535  25.558  0.00  0.00    +0.142 C 
BRANCH  21  22
ATOM     22  C   UNL     1      -0.737   2.320  25.300  0.00  0.00    -0.000 A 
ATOM     23  C   UNL     1      -1.025   2.917  25.791  0.00  0.00    -0.000 A 
ATOM     24  C   UNL     1      -1.017   3.702  25.534  0.00  0.00    +0.029 A 
ATOM     25  C   UNL     1      -0.722   3.888  24.786  0.00  0.00    +0.140 A 
ATOM     26  F   UNL     1      -0.714   4.671  24.529  0.00  0.00    -0.204 F 
ATOM     27  C   UNL     1      -0.434   3.289  24.296  0.00  0.00    +0.029 A 
ATOM     28  C   UNL     1      -0.442   2.505  24.553  0.00  0.00    -0.000 A 
ENDBRANCH  21  22
ENDBRANCH  20  21
ENDBRANCH   7  18
BRANCH   5   4
ATOM      4  C   UNL     1      -4.136   0.061  24.867  0.00  0.00    +0.022 C 
BRANCH   4   2
ATOM      1  C   UNL     1      -3.924   1.115  23.925  0.00  0.00    +0.000 C 
ATOM      2  C   UNL     1      -4.132   0.866  24.683  0.00  0.00    +0.002 C 
ATOM      3  C   UNL     1      -4.335   1.421  25.259  0.00  0.00    +0.000 C 
ENDBRANCH   4   2
ENDBRANCH   5   4
TORSDOF 5
ENDMDL
