MODEL 1
REMARK VINA RESULT:     -10.7      0.000      0.000
REMARK  Name = 
REMARK  7 active torsions:
REMARK  status: ('A' for Active; 'I' for Inactive)
REMARK    1  A    between atoms: O_2  and  C_3
REMARK    2  A    between atoms: C_8  and  N_9
REMARK    3  A    between atoms: C_15  and  C_17
REMARK    4  A    between atoms: C_17  and  C_18
REMARK    5  A    between atoms: C_20  and  C_21
REMARK    6  A    between atoms: C_21  and  N_22
REMARK    7  A    between atoms: N_25  and  C_26
REMARK                            x       y       z     vdW  Elec       q    Type
REMARK                         _______ _______ _______ _____ _____    ______ ____
ROOT
ATOM     18  C   UNL     1      -5.227   1.848  25.502  0.00  0.00    +0.157 C 
ATOM     19  O   UNL     1      -4.608   2.373  25.354  0.00  0.00    -0.351 OA
ATOM     20  C   UNL     1      -4.858   3.129  25.571  0.00  0.00    +0.170 C 
ATOM     33  C   UNL     1      -5.632   3.071  25.852  0.00  0.00    +0.213 C 
ATOM     34  O   UNL     1      -6.096   3.694  26.128  0.00  0.00    -0.218 OA
ATOM     35  C   UNL     1      -5.859   2.279  25.809  0.00  0.00    +0.212 C 
ATOM     36  O   UNL     1      -6.591   1.971  26.034  0.00  0.00    -0.218 OA
ENDROOT
BRANCH  18  17
ATOM     17  C   UNL     1      -5.215   1.035  25.365  0.00  0.00    +0.117 C 
BRANCH  17  15
ATOM      9  N   UNL     1      -3.358  -1.168  24.625  0.00  0.00    -0.302 N 
ATOM     10  C   UNL     1      -3.639  -0.875  25.342  0.00  0.00    +0.112 C 
ATOM     11  C   UNL     1      -4.165  -0.237  25.350  0.00  0.00    +0.115 C 
ATOM     12  N   UNL     1      -4.408   0.104  24.641  0.00  0.00    -0.276 N 
ATOM     13  C   UNL     1      -4.127  -0.189  23.923  0.00  0.00    +0.115 C 
ATOM     14  C   UNL     1      -3.601  -0.826  23.916  0.00  0.00    +0.112 C 
ATOM     15  C   UNL     1      -4.933   0.741  24.648  0.00  0.00    +0.228 C 
ATOM     16  O   UNL     1      -5.177   1.083  23.939  0.00  0.00    -0.275 OA
BRANCH   9   8
ATOM      3  C   UNL     1      -2.022  -1.671  24.688  0.00  0.00    +0.152 A 
ATOM      4  C   UNL     1      -1.497  -2.307  24.680  0.00  0.00    +0.038 A 
ATOM      5  C   UNL     1      -1.782  -3.077  24.602  0.00  0.00    +0.003 A 
ATOM      6  C   UNL     1      -2.593  -3.210  24.533  0.00  0.00    +0.001 A 
ATOM      7  C   UNL     1      -3.118  -2.574  24.540  0.00  0.00    +0.018 A 
ATOM      8  C   UNL     1      -2.833  -1.804  24.618  0.00  0.00    +0.082 A 
BRANCH   3   2
ATOM      1  C   UNL     1      -0.923  -0.767  24.833  0.00  0.00    +0.253 C 
ATOM      2  O   UNL     1      -1.735  -0.901  24.765  0.00  0.00    -0.470 OA
ENDBRANCH   3   2
ENDBRANCH   9   8
ENDBRANCH  17  15
ENDBRANCH  18  17
BRANCH  20  21
ATOM     21  C   UNL     1      -4.413   3.822  25.516  0.00  0.00    +0.149 C 
BRANCH  21  22
ATOM     22  N   UNL     1      -3.668   3.862  25.867  0.00  0.00    -0.184 NA
ATOM     23  C   UNL     1      -3.015   4.102  25.423  0.00  0.00    +0.344 C 
ATOM     24  O   UNL     1      -3.107   4.301  24.629  0.00  0.00    -0.249 OA
ATOM     25  N   UNL     1      -2.270   4.143  25.776  0.00  0.00    -0.161 NA
BRANCH  25  26
ATOM     26  C   UNL     1      -1.617   4.383  25.332  0.00  0.00    +0.077 A 
ATOM     27  C   UNL     1      -1.460   5.186  25.230  0.00  0.00    +0.017 A 
ATOM     28  C   UNL     1      -0.808   5.427  24.786  0.00  0.00    +0.004 A 
ATOM     29  C   UNL     1      -0.311   4.864  24.444  0.00  0.00    +0.030 A 
ATOM     30  C   UNL     1      -0.468   4.060  24.546  0.00  0.00    +0.141 A 
ATOM     31  F   UNL     1       0.029   3.496  24.204  0.00  0.00    -0.204 F 
ATOM     32  C   UNL     1      -1.120   3.819  24.990  0.00  0.00    +0.046 A 
ENDBRANCH  25  26
ENDBRANCH  21  22
ENDBRANCH  20  21
TORSDOF 7
ENDMDL
MODEL 2
REMARK VINA RESULT:     -10.0      1.985      6.115
REMARK  Name = 
REMARK  7 active torsions:
REMARK  status: ('A' for Active; 'I' for Inactive)
REMARK    1  A    between atoms: O_2  and  C_3
REMARK    2  A    between atoms: C_8  and  N_9
REMARK    3  A    between atoms: C_15  and  C_17
REMARK    4  A    between atoms: C_17  and  C_18
REMARK    5  A    between atoms: C_20  and  C_21
REMARK    6  A    between atoms: C_21  and  N_22
REMARK    7  A    between atoms: N_25  and  C_26
REMARK                            x       y       z     vdW  Elec       q    Type
REMARK                         _______ _______ _______ _____ _____    ______ ____
ROOT
ATOM     18  C   UNL     1      -0.314   1.904  24.451  0.00  0.00    +0.157 C 
ATOM     19  O   UNL     1      -0.740   1.212  24.593  0.00  0.00    -0.351 OA
ATOM     20  C   UNL     1      -0.275   0.573  24.356  0.00  0.00    +0.170 C 
ATOM     33  C   UNL     1       0.438   0.870  24.067  0.00  0.00    +0.213 C 
ATOM     34  O   UNL     1       1.065   0.423  23.771  0.00  0.00    -0.218 OA
ATOM     35  C   UNL     1       0.414   1.693  24.126  0.00  0.00    +0.212 C 
ATOM     36  O   UNL     1       1.013   2.213  23.899  0.00  0.00    -0.218 OA
ENDROOT
BRANCH  18  17
ATOM     17  C   UNL     1      -0.570   2.672  24.606  0.00  0.00    +0.117 C 
BRANCH  17  15
ATOM      9  N   UNL     1      -3.356   3.366  25.386  0.00  0.00    -0.302 N 
ATOM     10  C   UNL     1      -2.990   3.191  24.668  0.00  0.00    +0.112 C 
ATOM     11  C   UNL     1      -2.183   3.018  24.647  0.00  0.00    +0.115 C 
ATOM     12  N   UNL     1      -1.743   3.020  25.345  0.00  0.00    -0.276 N 
ATOM     13  C   UNL     1      -2.109   3.195  26.062  0.00  0.00    +0.115 C 
ATOM     14  C   UNL     1      -2.916   3.368  26.083  0.00  0.00    +0.112 C 
ATOM     15  C   UNL     1      -0.937   2.847  25.324  0.00  0.00    +0.228 C 
ATOM     16  O   UNL     1      -0.496   2.849  26.021  0.00  0.00    -0.275 OA
BRANCH   9   8
ATOM      3  C   UNL     1      -4.716   2.928  25.389  0.00  0.00    +0.152 A 
ATOM      4  C   UNL     1      -5.522   3.101  25.410  0.00  0.00    +0.038 A 
ATOM      5  C   UNL     1      -5.775   3.885  25.448  0.00  0.00    +0.003 A 
ATOM      6  C   UNL     1      -5.221   4.496  25.465  0.00  0.00    +0.001 A 
ATOM      7  C   UNL     1      -4.416   4.323  25.444  0.00  0.00    +0.018 A 
ATOM      8  C   UNL     1      -4.162   3.539  25.406  0.00  0.00    +0.082 A 
BRANCH   3   2
ATOM      1  C   UNL     1      -5.018   1.533  25.309  0.00  0.00    +0.253 C 
ATOM      2  O   UNL     1      -4.463   2.143  25.352  0.00  0.00    -0.470 OA
ENDBRANCH   3   2
ENDBRANCH   9   8
ENDBRANCH  17  15
ENDBRANCH  18  17
BRANCH  20  21
ATOM     21  C   UNL     1      -0.486  -0.223  24.400  0.00  0.00    +0.149 C 
BRANCH  21  22
ATOM     22  N   UNL     1      -1.119  -0.456  24.874  0.00  0.00    -0.184 NA
ATOM     23  C   UNL     1      -1.669  -1.002  24.589  0.00  0.00    +0.344 C 
ATOM     24  O   UNL     1      -1.586  -1.314  23.831  0.00  0.00    -0.249 OA
ATOM     25  N   UNL     1      -2.303  -1.235  25.065  0.00  0.00    -0.161 NA
BRANCH  25  26
ATOM     26  C   UNL     1      -2.853  -1.781  24.780  0.00  0.00    +0.077 A 
ATOM     27  C   UNL     1      -2.739  -2.587  24.910  0.00  0.00    +0.017 A 
ATOM     28  C   UNL     1      -3.288  -3.132  24.626  0.00  0.00    +0.004 A 
ATOM     29  C   UNL     1      -3.952  -2.872  24.211  0.00  0.00    +0.030 A 
ATOM     30  C   UNL     1      -4.066  -2.064  24.081  0.00  0.00    +0.141 A 
ATOM     31  F   UNL     1      -4.730  -1.803  23.666  0.00  0.00    -0.204 F 
ATOM     32  C   UNL     1      -3.517  -1.519  24.365  0.00  0.00    +0.046 A 
ENDBRANCH  25  26
ENDBRANCH  21  22
ENDBRANCH  20  21
TORSDOF 7
ENDMDL
MODEL 3
REMARK VINA RESULT:     -10.0      1.874      3.895
REMARK  Name = 
REMARK  7 active torsions:
REMARK  status: ('A' for Active; 'I' for Inactive)
REMARK    1  A    between atoms: O_2  and  C_3
REMARK    2  A    between atoms: C_8  and  N_9
REMARK    3  A    between atoms: C_15  and  C_17
REMARK    4  A    between atoms: C_17  and  C_18
REMARK    5  A    between atoms: C_20  and  C_21
REMARK    6  A    between atoms: C_21  and  N_22
REMARK    7  A    between atoms: N_25  and  C_26
REMARK                            x       y       z     vdW  Elec       q    Type
REMARK                         _______ _______ _______ _____ _____    ______ ____
ROOT
ATOM     18  C   UNL     1      -0.528   1.997  24.729  0.00  0.00    +0.157 C 
ATOM     19  O   UNL     1      -1.265   2.330  24.897  0.00  0.00    -0.351 OA
ATOM     20  C   UNL     1      -1.213   3.143  24.765  0.00  0.00    +0.170 C 
ATOM     33  C   UNL     1      -0.445   3.312  24.515  0.00  0.00    +0.213 C 
ATOM     34  O   UNL     1      -0.152   4.058  24.322  0.00  0.00    -0.218 OA
ATOM     35  C   UNL     1      -0.022   2.604  24.493  0.00  0.00    +0.212 C 
ATOM     36  O   UNL     1       0.768   2.518  24.272  0.00  0.00    -0.218 OA
ENDROOT
BRANCH  18  17
ATOM     17  C   UNL     1      -0.333   1.198  24.786  0.00  0.00    +0.117 C 
BRANCH  17  15
ATOM      9  N   UNL     1      -2.110  -1.188  24.817  0.00  0.00    -0.302 N 
ATOM     10  C   UNL     1      -1.784  -0.726  24.217  0.00  0.00    +0.112 C 
ATOM     11  C   UNL     1      -1.300  -0.084  24.407  0.00  0.00    +0.115 C 
ATOM     12  N   UNL     1      -1.143   0.095  25.196  0.00  0.00    -0.276 N 
ATOM     13  C   UNL     1      -1.469  -0.367  25.796  0.00  0.00    +0.115 C 
ATOM     14  C   UNL     1      -1.953  -1.009  25.607  0.00  0.00    +0.112 C 
ATOM     15  C   UNL     1      -0.660   0.736  25.386  0.00  0.00    +0.228 C 
ATOM     16  O   UNL     1      -0.502   0.915  26.175  0.00  0.00    -0.275 OA
BRANCH   9   8
ATOM      3  C   UNL     1      -3.387  -1.706  24.439  0.00  0.00    +0.152 A 
ATOM      4  C   UNL     1      -3.869  -2.347  24.249  0.00  0.00    +0.038 A 
ATOM      5  C   UNL     1      -3.560  -3.111  24.249  0.00  0.00    +0.003 A 
ATOM      6  C   UNL     1      -2.766  -3.234  24.437  0.00  0.00    +0.001 A 
ATOM      7  C   UNL     1      -2.283  -2.593  24.627  0.00  0.00    +0.018 A 
ATOM      8  C   UNL     1      -2.593  -1.829  24.628  0.00  0.00    +0.082 A 
BRANCH   3   2
ATOM      1  C   UNL     1      -4.489  -0.817  24.241  0.00  0.00    +0.253 C 
ATOM      2  O   UNL     1      -3.697  -0.941  24.440  0.00  0.00    -0.470 OA
ENDBRANCH   3   2
ENDBRANCH   9   8
ENDBRANCH  17  15
ENDBRANCH  18  17
BRANCH  20  21
ATOM     21  C   UNL     1      -1.822   3.690  24.866  0.00  0.00    +0.149 C 
BRANCH  21  22
ATOM     22  N   UNL     1      -2.539   3.586  24.472  0.00  0.00    -0.184 NA
ATOM     23  C   UNL     1      -3.240   3.512  24.903  0.00  0.00    +0.344 C 
ATOM     24  O   UNL     1      -3.223   3.543  25.726  0.00  0.00    -0.249 OA
ATOM     25  N   UNL     1      -3.957   3.408  24.507  0.00  0.00    -0.161 NA
BRANCH  25  26
ATOM     26  C   UNL     1      -4.657   3.335  24.938  0.00  0.00    +0.077 A 
ATOM     27  C   UNL     1      -5.031   4.007  25.235  0.00  0.00    +0.017 A 
ATOM     28  C   UNL     1      -5.731   3.934  25.665  0.00  0.00    +0.004 A 
ATOM     29  C   UNL     1      -6.058   3.188  25.799  0.00  0.00    +0.030 A 
ATOM     30  C   UNL     1      -5.683   2.515  25.502  0.00  0.00    +0.141 A 
ATOM     31  F   UNL     1      -6.009   1.769  25.635  0.00  0.00    -0.204 F 
ATOM     32  C   UNL     1      -4.983   2.588  25.071  0.00  0.00    +0.046 A 
ENDBRANCH  25  26
ENDBRANCH  21  22
ENDBRANCH  20  21
TORSDOF 7
ENDMDL
MODEL 4
REMARK VINA RESULT:      -9.5      1.329      5.262
REMARK  Name = 
REMARK  7 active torsions:
REMARK  status: ('A' for Active; 'I' for Inactive)
REMARK    1  A    between atoms: O_2  and  C_3
REMARK    2  A    between atoms: C_8  and  N_9
REMARK    3  A    between atoms: C_15  and  C_17
REMARK    4  A    between atoms: C_17  and  C_18
REMARK    5  A    between atoms: C_20  and  C_21
REMARK    6  A    between atoms: C_21  and  N_22
REMARK    7  A    between atoms: N_25  and  C_26
REMARK                            x       y       z     vdW  Elec       q    Type
REMARK                         _______ _______ _______ _____ _____    ______ ____
ROOT
ATOM     18  C   UNL     1      -5.317   2.585  25.194  0.00  0.00    +0.157 C 
ATOM     19  O   UNL     1      -4.850   1.914  25.079  0.00  0.00    -0.351 OA
ATOM     20  C   UNL     1      -5.353   1.272  24.955  0.00  0.00    +0.170 C 
ATOM     33  C   UNL     1      -6.130   1.545  24.993  0.00  0.00    +0.213 C 
ATOM     34  O   UNL     1      -6.810   1.088  24.900  0.00  0.00    -0.218 OA
ATOM     35  C   UNL     1      -6.108   2.357  25.142  0.00  0.00    +0.212 C 
ATOM     36  O   UNL     1      -6.763   2.853  25.223  0.00  0.00    -0.218 OA
ENDROOT
BRANCH  18  17
ATOM     17  C   UNL     1      -5.042   3.348  25.337  0.00  0.00    +0.117 C 
BRANCH  17  15
ATOM      9  N   UNL     1      -2.216   4.272  25.238  0.00  0.00    -0.302 N 
ATOM     10  C   UNL     1      -2.795   4.143  24.666  0.00  0.00    +0.112 C 
ATOM     11  C   UNL     1      -3.545   3.878  24.890  0.00  0.00    +0.115 C 
ATOM     12  N   UNL     1      -3.713   3.743  25.685  0.00  0.00    -0.276 N 
ATOM     13  C   UNL     1      -3.134   3.871  26.257  0.00  0.00    +0.115 C 
ATOM     14  C   UNL     1      -2.384   4.137  26.033  0.00  0.00    +0.112 C 
ATOM     15  C   UNL     1      -4.462   3.478  25.909  0.00  0.00    +0.228 C 
ATOM     16  O   UNL     1      -4.631   3.342  26.705  0.00  0.00    -0.275 OA
BRANCH   9   8
ATOM      3  C   UNL     1      -0.873   3.994  24.837  0.00  0.00    +0.152 A 
ATOM      4  C   UNL     1      -0.125   4.258  24.614  0.00  0.00    +0.038 A 
ATOM      5  C   UNL     1       0.030   5.067  24.566  0.00  0.00    +0.003 A 
ATOM      6  C   UNL     1      -0.565   5.611  24.743  0.00  0.00    +0.001 A 
ATOM      7  C   UNL     1      -1.312   5.346  24.967  0.00  0.00    +0.018 A 
ATOM      8  C   UNL     1      -1.467   4.537  25.014  0.00  0.00    +0.082 A 
BRANCH   3   2
ATOM      1  C   UNL     1      -0.436   2.639  24.693  0.00  0.00    +0.253 C 
ATOM      2  O   UNL     1      -1.027   3.184  24.884  0.00  0.00    -0.470 OA
ENDBRANCH   3   2
ENDBRANCH   9   8
ENDBRANCH  17  15
ENDBRANCH  18  17
BRANCH  20  21
ATOM     21  C   UNL     1      -5.119   0.493  24.816  0.00  0.00    +0.149 C 
BRANCH  21  22
ATOM     22  N   UNL     1      -4.479   0.175  25.228  0.00  0.00    -0.184 NA
ATOM     23  C   UNL     1      -4.099  -0.500  24.942  0.00  0.00    +0.344 C 
ATOM     24  O   UNL     1      -4.360  -0.857  24.246  0.00  0.00    -0.249 OA
ATOM     25  N   UNL     1      -3.459  -0.818  25.355  0.00  0.00    -0.161 NA
BRANCH  25  26
ATOM     26  C   UNL     1      -3.079  -1.493  25.069  0.00  0.00    +0.077 A 
ATOM     27  C   UNL     1      -3.459  -2.224  25.101  0.00  0.00    +0.017 A 
ATOM     28  C   UNL     1      -3.080  -2.899  24.816  0.00  0.00    +0.004 A 
ATOM     29  C   UNL     1      -2.320  -2.843  24.499  0.00  0.00    +0.030 A 
ATOM     30  C   UNL     1      -1.940  -2.111  24.467  0.00  0.00    +0.141 A 
ATOM     31  F   UNL     1      -1.180  -2.054  24.150  0.00  0.00    -0.204 F 
ATOM     32  C   UNL     1      -2.319  -1.436  24.752  0.00  0.00    +0.046 A 
ENDBRANCH  25  26
ENDBRANCH  21  22
ENDBRANCH  20  21
TORSDOF 7
ENDMDL
MODEL 5
REMARK VINA RESULT:      -9.4      2.241      5.284
REMARK  Name = 
REMARK  7 active torsions:
REMARK  status: ('A' for Active; 'I' for Inactive)
REMARK    1  A    between atoms: O_2  and  C_3
REMARK    2  A    between atoms: C_8  and  N_9
REMARK    3  A    between atoms: C_15  and  C_17
REMARK    4  A    between atoms: C_17  and  C_18
REMARK    5  A    between atoms: C_20  and  C_21
REMARK    6  A    between atoms: C_21  and  N_22
REMARK    7  A    between atoms: N_25  and  C_26
REMARK                            x       y       z     vdW  Elec       q    Type
REMARK                         _______ _______ _______ _____ _____    ______ ____
ROOT
ATOM     18  C   UNL     1      -2.677  -1.250  24.763  0.00  0.00    +0.157 C 
ATOM     19  O   UNL     1      -1.982  -0.845  24.580  0.00  0.00    -0.351 OA
ATOM     20  C   UNL     1      -1.362  -1.390  24.576  0.00  0.00    +0.170 C 
ATOM     33  C   UNL     1      -1.675  -2.132  24.756  0.00  0.00    +0.213 C 
ATOM     34  O   UNL     1      -1.250  -2.837  24.811  0.00  0.00    -0.218 OA
ATOM     35  C   UNL     1      -2.487  -2.045  24.872  0.00  0.00    +0.212 C 
ATOM     36  O   UNL     1      -3.017  -2.649  25.063  0.00  0.00    -0.218 OA
ENDROOT
BRANCH  18  17
ATOM     17  C   UNL     1      -3.429  -0.919  24.826  0.00  0.00    +0.117 C 
BRANCH  17  15
ATOM      9  N   UNL     1      -4.578   1.822  24.951  0.00  0.00    -0.302 N 
ATOM     10  C   UNL     1      -4.315   1.287  25.519  0.00  0.00    +0.112 C 
ATOM     11  C   UNL     1      -4.019   0.551  25.288  0.00  0.00    +0.115 C 
ATOM     12  N   UNL     1      -3.988   0.352  24.489  0.00  0.00    -0.276 N 
ATOM     13  C   UNL     1      -4.252   0.888  23.920  0.00  0.00    +0.115 C 
ATOM     14  C   UNL     1      -4.547   1.624  24.151  0.00  0.00    +0.112 C 
ATOM     15  C   UNL     1      -3.693  -0.383  24.258  0.00  0.00    +0.228 C 
ATOM     16  O   UNL     1      -3.661  -0.582  23.458  0.00  0.00    -0.275 OA
BRANCH   9   8
ATOM      3  C   UNL     1      -4.372   3.211  25.218  0.00  0.00    +0.152 A 
ATOM      4  C   UNL     1      -4.666   3.945  25.449  0.00  0.00    +0.038 A 
ATOM      5  C   UNL     1      -5.464   4.027  25.643  0.00  0.00    +0.003 A 
ATOM      6  C   UNL     1      -5.966   3.374  25.606  0.00  0.00    +0.001 A 
ATOM      7  C   UNL     1      -5.671   2.640  25.376  0.00  0.00    +0.018 A 
ATOM      8  C   UNL     1      -4.874   2.557  25.181  0.00  0.00    +0.082 A 
BRANCH   3   2
ATOM      1  C   UNL     1      -3.067   3.779  25.077  0.00  0.00    +0.253 C 
ATOM      2  O   UNL     1      -3.573   3.129  25.024  0.00  0.00    -0.470 OA
ENDBRANCH   3   2
ENDBRANCH   9   8
ENDBRANCH  17  15
ENDBRANCH  18  17
BRANCH  20  21
ATOM     21  C   UNL     1      -0.570  -1.222  24.419  0.00  0.00    +0.149 C 
BRANCH  21  22
ATOM     22  N   UNL     1      -0.373  -0.609  23.904  0.00  0.00    -0.184 NA
ATOM     23  C   UNL     1       0.407  -0.521  23.648  0.00  0.00    +0.344 C 
ATOM     24  O   UNL     1       0.988  -1.045  23.906  0.00  0.00    -0.249 OA
ATOM     25  N   UNL     1       0.604   0.093  23.133  0.00  0.00    -0.161 NA
BRANCH  25  26
ATOM     26  C   UNL     1       1.384   0.181  22.876  0.00  0.00    +0.077 A 
ATOM     27  C   UNL     1       1.670  -0.283  22.258  0.00  0.00    +0.017 A 
ATOM     28  C   UNL     1       2.449  -0.196  22.001  0.00  0.00    +0.004 A 
ATOM     29  C   UNL     1       2.943   0.357  22.363  0.00  0.00    +0.030 A 
ATOM     30  C   UNL     1       2.657   0.822  22.982  0.00  0.00    +0.141 A 
ATOM     31  F   UNL     1       3.150   1.375  23.345  0.00  0.00    -0.204 F 
ATOM     32  C   UNL     1       1.878   0.734  23.239  0.00  0.00    +0.046 A 
ENDBRANCH  25  26
ENDBRANCH  21  22
ENDBRANCH  20  21
TORSDOF 7
ENDMDL
