MODEL 1
REMARK VINA RESULT:      -9.8      0.000      0.000
REMARK  Name = 
REMARK  9 active torsions:
REMARK  status: ('A' for Active; 'I' for Inactive)
REMARK    1  A    between atoms: O_2  and  C_3
REMARK    2  A    between atoms: C_3  and  C_4
REMARK    3  A    between atoms: N_6  and  C_7
REMARK    4  A    between atoms: C_7  and  C_8
REMARK    5  A    between atoms: C_12  and  C_13
REMARK    6  A    between atoms: C_13  and  C_14
REMARK    7  A    between atoms: N_16  and  C_17
REMARK    8  A    between atoms: C_17  and  C_18
REMARK    9  A    between atoms: C_25  and  C_26
REMARK                            x       y       z     vdW  Elec       q    Type
REMARK                         _______ _______ _______ _____ _____    ______ ____
ROOT
ATOM      8  C   UNL     1      -4.012   0.786  24.204  0.00  0.00    +0.043 C 
ATOM      9  C   UNL     1      -4.660   0.924  24.694  0.00  0.00    -0.033 C 
ATOM     10  C   UNL     1      -4.805   1.685  24.981  0.00  0.00    -0.048 C 
ATOM     11  C   UNL     1      -5.453   1.824  25.471  0.00  0.00    +0.026 C 
ATOM     12  C   UNL     1      -4.302   2.306  24.776  0.00  0.00    +0.027 C 
ATOM     24  C   UNL     1      -3.654   2.166  24.284  0.00  0.00    +0.005 C 
ATOM     25  C   UNL     1      -3.509   1.406  23.999  0.00  0.00    +0.006 C 
ENDROOT
BRANCH  25  26
ATOM     26  C   UNL     1      -2.861   1.266  23.508  0.00  0.00    +0.000 C 
ATOM     27  C   UNL     1      -2.152   0.990  23.827  0.00  0.00    +0.000 C 
ATOM     28  C   UNL     1      -2.922   1.402  22.696  0.00  0.00    +0.000 C 
ENDBRANCH  25  26
BRANCH   8   7
ATOM      7  C   UNL     1      -3.867   0.025  23.917  0.00  0.00    +0.119 C 
BRANCH   7   6
ATOM      4  C   UNL     1      -4.010  -1.382  24.126  0.00  0.00    +0.272 C 
ATOM      5  O   UNL     1      -4.081  -1.495  23.313  0.00  0.00    -0.271 OA
ATOM      6  N   UNL     1      -3.903  -0.621  24.429  0.00  0.00    -0.203 NA
BRANCH   4   3
ATOM      3  C   UNL     1      -4.046  -2.028  24.637  0.00  0.00    +0.229 C 
BRANCH   3   2
ATOM      1  C   UNL     1      -3.362  -3.229  25.000  0.00  0.00    +0.175 C 
ATOM      2  O   UNL     1      -3.696  -2.744  24.422  0.00  0.00    -0.342 OA
ENDBRANCH   3   2
ENDBRANCH   4   3
ENDBRANCH   7   6
ENDBRANCH   8   7
BRANCH  12  13
ATOM     13  C   UNL     1      -4.447   3.066  25.061  0.00  0.00    +0.091 C 
BRANCH  13  14
ATOM     14  C   UNL     1      -3.905   3.427  25.568  0.00  0.00    +0.242 C 
ATOM     15  O   UNL     1      -3.979   3.334  26.385  0.00  0.00    -0.273 OA
ATOM     16  N   UNL     1      -3.289   3.880  25.260  0.00  0.00    -0.200 NA
BRANCH  16  17
ATOM     17  C   UNL     1      -2.748   4.240  25.767  0.00  0.00    +0.143 C 
BRANCH  17  18
ATOM     18  C   UNL     1      -2.040   4.542  25.469  0.00  0.00    +0.019 A 
ATOM     19  C   UNL     1      -1.374   4.058  25.414  0.00  0.00    +0.001 A 
ATOM     20  C   UNL     1      -0.668   4.360  25.116  0.00  0.00    +0.020 A 
ATOM     21  C   UNL     1      -0.626   5.147  24.873  0.00  0.00    +0.099 A 
ATOM     22  N   UNL     1      -1.291   5.632  24.927  0.00  0.00    -0.243 NA
ATOM     23  C   UNL     1      -1.999   5.330  25.225  0.00  0.00    +0.096 A 
ENDBRANCH  17  18
ENDBRANCH  16  17
ENDBRANCH  13  14
ENDBRANCH  12  13
TORSDOF 9
ENDMDL
MODEL 2
REMARK VINA RESULT:      -9.8      2.560      4.188
REMARK  Name = 
REMARK  9 active torsions:
REMARK  status: ('A' for Active; 'I' for Inactive)
REMARK    1  A    between atoms: O_2  and  C_3
REMARK    2  A    between atoms: C_3  and  C_4
REMARK    3  A    between atoms: N_6  and  C_7
REMARK    4  A    between atoms: C_7  and  C_8
REMARK    5  A    between atoms: C_12  and  C_13
REMARK    6  A    between atoms: C_13  and  C_14
REMARK    7  A    between atoms: N_16  and  C_17
REMARK    8  A    between atoms: C_17  and  C_18
REMARK    9  A    between atoms: C_25  and  C_26
REMARK                            x       y       z     vdW  Elec       q    Type
REMARK                         _______ _______ _______ _____ _____    ______ ____
ROOT
ATOM      8  C   UNL     1      -0.774   1.152  24.398  0.00  0.00    +0.043 C 
ATOM      9  C   UNL     1      -0.475   1.917  24.324  0.00  0.00    -0.033 C 
ATOM     10  C   UNL     1      -0.909   2.558  24.610  0.00  0.00    -0.048 C 
ATOM     11  C   UNL     1      -0.610   3.324  24.536  0.00  0.00    +0.026 C 
ATOM     12  C   UNL     1      -1.641   2.434  24.970  0.00  0.00    +0.027 C 
ATOM     24  C   UNL     1      -1.939   1.667  25.044  0.00  0.00    +0.005 C 
ATOM     25  C   UNL     1      -1.505   1.027  24.758  0.00  0.00    +0.006 C 
ENDROOT
BRANCH  25  26
ATOM     26  C   UNL     1      -1.803   0.261  24.832  0.00  0.00    +0.000 C 
ATOM     27  C   UNL     1      -2.285  -0.053  24.242  0.00  0.00    +0.000 C 
ATOM     28  C   UNL     1      -1.618  -0.191  25.497  0.00  0.00    +0.000 C 
ENDBRANCH  25  26
BRANCH   8   7
ATOM      7  C   UNL     1      -0.339   0.510  24.112  0.00  0.00    +0.119 C 
BRANCH   7   6
ATOM      4  C   UNL     1       0.738   0.010  23.318  0.00  0.00    +0.272 C 
ATOM      5  O   UNL     1       0.674  -0.721  23.692  0.00  0.00    -0.271 OA
ATOM      6  N   UNL     1       0.231   0.627  23.528  0.00  0.00    -0.203 NA
BRANCH   4   3
ATOM      3  C   UNL     1       1.308   0.127  22.733  0.00  0.00    +0.229 C 
BRANCH   3   2
ATOM      1  C   UNL     1       2.688   0.114  22.363  0.00  0.00    +0.175 C 
ATOM      2  O   UNL     1       2.075  -0.158  22.843  0.00  0.00    -0.342 OA
ENDBRANCH   3   2
ENDBRANCH   4   3
ENDBRANCH   7   6
ENDBRANCH   8   7
BRANCH  12  13
ATOM     13  C   UNL     1      -2.074   3.074  25.255  0.00  0.00    +0.091 C 
BRANCH  13  14
ATOM     14  C   UNL     1      -2.808   3.258  24.924  0.00  0.00    +0.242 C 
ATOM     15  O   UNL     1      -2.846   3.638  24.193  0.00  0.00    -0.273 OA
ATOM     16  N   UNL     1      -3.502   3.062  25.324  0.00  0.00    -0.200 NA
BRANCH  16  17
ATOM     17  C   UNL     1      -4.234   3.245  24.993  0.00  0.00    +0.143 C 
BRANCH  17  18
ATOM     18  C   UNL     1      -4.917   2.874  25.269  0.00  0.00    +0.019 A 
ATOM     19  C   UNL     1      -5.264   2.266  24.831  0.00  0.00    +0.001 A 
ATOM     20  C   UNL     1      -5.946   1.896  25.108  0.00  0.00    +0.020 A 
ATOM     21  C   UNL     1      -6.283   2.133  25.822  0.00  0.00    +0.099 A 
ATOM     22  N   UNL     1      -5.938   2.740  26.261  0.00  0.00    -0.243 NA
ATOM     23  C   UNL     1      -5.254   3.111  25.984  0.00  0.00    +0.096 A 
ENDBRANCH  17  18
ENDBRANCH  16  17
ENDBRANCH  13  14
ENDBRANCH  12  13
TORSDOF 9
ENDMDL
MODEL 3
REMARK VINA RESULT:      -9.3      1.528      5.469
REMARK  Name = 
REMARK  9 active torsions:
REMARK  status: ('A' for Active; 'I' for Inactive)
REMARK    1  A    between atoms: O_2  and  C_3
REMARK    2  A    between atoms: C_3  and  C_4
REMARK    3  A    between atoms: N_6  and  C_7
REMARK    4  A    between atoms: C_7  and  C_8
REMARK    5  A    between atoms: C_12  and  C_13
REMARK    6  A    between atoms: C_13  and  C_14
REMARK    7  A    between atoms: N_16  and  C_17
REMARK    8  A    between atoms: C_17  and  C_18
REMARK    9  A    between atoms: C_25  and  C_26
REMARK                            x       y       z     vdW  Elec       q    Type
REMARK                         _______ _______ _______ _____ _____    ______ ____
ROOT
ATOM      8  C   UNL     1      -2.087   2.399  24.638  0.00  0.00    +0.043 C 
ATOM      9  C   UNL     1      -2.812   2.773  24.514  0.00  0.00    -0.033 C 
ATOM     10  C   UNL     1      -3.483   2.324  24.343  0.00  0.00    -0.048 C 
ATOM     11  C   UNL     1      -4.208   2.697  24.220  0.00  0.00    +0.026 C 
ATOM     12  C   UNL     1      -3.429   1.502  24.297  0.00  0.00    +0.027 C 
ATOM     24  C   UNL     1      -2.703   1.129  24.420  0.00  0.00    +0.005 C 
ATOM     25  C   UNL     1      -2.033   1.577  24.591  0.00  0.00    +0.006 C 
ENDROOT
BRANCH  25  26
ATOM     26  C   UNL     1      -1.307   1.205  24.715  0.00  0.00    +0.000 C 
ATOM     27  C   UNL     1      -1.079   0.987  25.477  0.00  0.00    +0.000 C 
ATOM     28  C   UNL     1      -0.809   1.051  24.076  0.00  0.00    +0.000 C 
ENDBRANCH  25  26
BRANCH   8   7
ATOM      7  C   UNL     1      -1.416   2.849  24.809  0.00  0.00    +0.119 C 
BRANCH   7   6
ATOM      4  C   UNL     1      -0.849   4.148  24.986  0.00  0.00    +0.272 C 
ATOM      5  O   UNL     1      -0.316   3.841  25.534  0.00  0.00    -0.271 OA
ATOM      6  N   UNL     1      -1.400   3.652  24.622  0.00  0.00    -0.203 NA
BRANCH   4   3
ATOM      3  C   UNL     1      -0.833   4.952  24.799  0.00  0.00    +0.229 C 
BRANCH   3   2
ATOM      1  C   UNL     1      -1.564   6.176  24.894  0.00  0.00    +0.175 C 
ATOM      2  O   UNL     1      -1.277   5.487  25.245  0.00  0.00    -0.342 OA
ENDBRANCH   3   2
ENDBRANCH   4   3
ENDBRANCH   7   6
ENDBRANCH   8   7
BRANCH  12  13
ATOM     13  C   UNL     1      -4.099   1.053  24.126  0.00  0.00    +0.091 C 
BRANCH  13  14
ATOM     14  C   UNL     1      -4.288   0.399  24.592  0.00  0.00    +0.242 C 
ATOM     15  O   UNL     1      -4.624   0.507  25.337  0.00  0.00    -0.273 OA
ATOM     16  N   UNL     1      -4.142  -0.363  24.312  0.00  0.00    -0.200 NA
BRANCH  16  17
ATOM     17  C   UNL     1      -4.331  -1.016  24.778  0.00  0.00    +0.143 C 
BRANCH  17  18
ATOM     18  C   UNL     1      -4.028  -1.760  24.589  0.00  0.00    +0.019 A 
ATOM     19  C   UNL     1      -3.480  -2.123  25.088  0.00  0.00    +0.001 A 
ATOM     20  C   UNL     1      -3.177  -2.866  24.899  0.00  0.00    +0.020 A 
ATOM     21  C   UNL     1      -3.422  -3.247  24.210  0.00  0.00    +0.099 A 
ATOM     22  N   UNL     1      -3.970  -2.886  23.710  0.00  0.00    -0.243 NA
ATOM     23  C   UNL     1      -4.273  -2.142  23.900  0.00  0.00    +0.096 A 
ENDBRANCH  17  18
ENDBRANCH  16  17
ENDBRANCH  13  14
ENDBRANCH  12  13
TORSDOF 9
ENDMDL
MODEL 4
REMARK VINA RESULT:      -9.2      2.781      4.527
REMARK  Name = 
REMARK  9 active torsions:
REMARK  status: ('A' for Active; 'I' for Inactive)
REMARK    1  A    between atoms: O_2  and  C_3
REMARK    2  A    between atoms: C_3  and  C_4
REMARK    3  A    between atoms: N_6  and  C_7
REMARK    4  A    between atoms: C_7  and  C_8
REMARK    5  A    between atoms: C_12  and  C_13
REMARK    6  A    between atoms: C_13  and  C_14
REMARK    7  A    between atoms: N_16  and  C_17
REMARK    8  A    between atoms: C_17  and  C_18
REMARK    9  A    between atoms: C_25  and  C_26
REMARK                            x       y       z     vdW  Elec       q    Type
REMARK                         _______ _______ _______ _____ _____    ______ ____
ROOT
ATOM      8  C   UNL     1      -0.736   0.603  24.282  0.00  0.00    +0.043 C 
ATOM      9  C   UNL     1      -0.906  -0.203  24.314  0.00  0.00    -0.033 C 
ATOM     10  C   UNL     1      -1.649  -0.458  24.570  0.00  0.00    -0.048 C 
ATOM     11  C   UNL     1      -1.819  -1.264  24.602  0.00  0.00    +0.026 C 
ATOM     12  C   UNL     1      -2.219   0.094  24.795  0.00  0.00    +0.027 C 
ATOM     24  C   UNL     1      -2.048   0.900  24.764  0.00  0.00    +0.005 C 
ATOM     25  C   UNL     1      -1.307   1.155  24.507  0.00  0.00    +0.006 C 
ENDROOT
BRANCH  25  26
ATOM     26  C   UNL     1      -1.135   1.961  24.476  0.00  0.00    +0.000 C 
ATOM     27  C   UNL     1      -0.816   2.342  25.134  0.00  0.00    +0.000 C 
ATOM     28  C   UNL     1      -1.283   2.387  23.785  0.00  0.00    +0.000 C 
ENDBRANCH  25  26
BRANCH   8   7
ATOM      7  C   UNL     1       0.006   0.858  24.026  0.00  0.00    +0.119 C 
BRANCH   7   6
ATOM      4  C   UNL     1       1.235   0.585  23.348  0.00  0.00    +0.272 C 
ATOM      5  O   UNL     1       1.568   1.262  23.680  0.00  0.00    -0.271 OA
ATOM      6  N   UNL     1       0.453   0.383  23.521  0.00  0.00    -0.203 NA
BRANCH   4   3
ATOM      3  C   UNL     1       1.681   0.110  22.844  0.00  0.00    +0.229 C 
BRANCH   3   2
ATOM      1  C   UNL     1       2.851  -0.039  22.037  0.00  0.00    +0.175 C 
ATOM      2  O   UNL     1       2.466   0.307  22.679  0.00  0.00    -0.342 OA
ENDBRANCH   3   2
ENDBRANCH   4   3
ENDBRANCH   7   6
ENDBRANCH   8   7
BRANCH  12  13
ATOM     13  C   UNL     1      -2.960  -0.161  25.051  0.00  0.00    +0.091 C 
BRANCH  13  14
ATOM     14  C   UNL     1      -3.645   0.154  24.715  0.00  0.00    +0.242 C 
ATOM     15  O   UNL     1      -3.881  -0.084  23.961  0.00  0.00    -0.273 OA
ATOM     16  N   UNL     1      -4.093   0.707  25.132  0.00  0.00    -0.200 NA
BRANCH  16  17
ATOM     17  C   UNL     1      -4.777   1.021  24.796  0.00  0.00    +0.143 C 
BRANCH  17  18
ATOM     18  C   UNL     1      -5.129   1.691  25.125  0.00  0.00    +0.019 A 
ATOM     19  C   UNL     1      -4.925   2.442  24.853  0.00  0.00    +0.001 A 
ATOM     20  C   UNL     1      -5.278   3.111  25.182  0.00  0.00    +0.020 A 
ATOM     21  C   UNL     1      -5.835   3.028  25.785  0.00  0.00    +0.099 A 
ATOM     22  N   UNL     1      -6.039   2.277  26.058  0.00  0.00    -0.243 NA
ATOM     23  C   UNL     1      -5.686   1.608  25.728  0.00  0.00    +0.096 A 
ENDBRANCH  17  18
ENDBRANCH  16  17
ENDBRANCH  13  14
ENDBRANCH  12  13
TORSDOF 9
ENDMDL
MODEL 5
REMARK VINA RESULT:      -9.2      2.431      4.642
REMARK  Name = 
REMARK  9 active torsions:
REMARK  status: ('A' for Active; 'I' for Inactive)
REMARK    1  A    between atoms: O_2  and  C_3
REMARK    2  A    between atoms: C_3  and  C_4
REMARK    3  A    between atoms: N_6  and  C_7
REMARK    4  A    between atoms: C_7  and  C_8
REMARK    5  A    between atoms: C_12  and  C_13
REMARK    6  A    between atoms: C_13  and  C_14
REMARK    7  A    between atoms: N_16  and  C_17
REMARK    8  A    between atoms: C_17  and  C_18
REMARK    9  A    between atoms: C_25  and  C_26
REMARK                            x       y       z     vdW  Elec       q    Type
REMARK                         _______ _______ _______ _____ _____    ______ ____
ROOT
ATOM      8  C   UNL     1      -3.200   3.213  24.662  0.00  0.00    +0.043 C 
ATOM      9  C   UNL     1      -3.351   2.721  24.017  0.00  0.00    -0.033 C 
ATOM     10  C   UNL     1      -2.723   2.377  23.605  0.00  0.00    -0.048 C 
ATOM     11  C   UNL     1      -2.874   1.885  22.960  0.00  0.00    +0.026 C 
ATOM     12  C   UNL     1      -1.946   2.526  23.838  0.00  0.00    +0.027 C 
ATOM     24  C   UNL     1      -1.796   3.019  24.483  0.00  0.00    +0.005 C 
ATOM     25  C   UNL     1      -2.422   3.362  24.894  0.00  0.00    +0.006 C 
ENDROOT
BRANCH  25  26
ATOM     26  C   UNL     1      -2.273   3.854  25.539  0.00  0.00    +0.000 C 
ATOM     27  C   UNL     1      -2.240   3.540  26.301  0.00  0.00    +0.000 C 
ATOM     28  C   UNL     1      -2.156   4.663  25.422  0.00  0.00    +0.000 C 
ENDBRANCH  25  26
BRANCH   8   7
ATOM      7  C   UNL     1      -3.827   3.556  25.074  0.00  0.00    +0.119 C 
BRANCH   7   6
ATOM      4  C   UNL     1      -5.198   3.486  25.470  0.00  0.00    +0.272 C 
ATOM      5  O   UNL     1      -5.229   4.308  25.510  0.00  0.00    -0.271 OA
ATOM      6  N   UNL     1      -4.497   3.109  25.251  0.00  0.00    -0.203 NA
BRANCH   4   3
ATOM      3  C   UNL     1      -5.868   3.038  25.648  0.00  0.00    +0.229 C 
BRANCH   3   2
ATOM      1  C   UNL     1      -6.435   2.018  26.472  0.00  0.00    +0.175 C 
ATOM      2  O   UNL     1      -5.931   2.665  26.381  0.00  0.00    -0.342 OA
ENDBRANCH   3   2
ENDBRANCH   4   3
ENDBRANCH   7   6
ENDBRANCH   8   7
BRANCH  12  13
ATOM     13  C   UNL     1      -1.319   2.183  23.426  0.00  0.00    +0.091 C 
BRANCH  13  14
ATOM     14  C   UNL     1      -0.751   1.742  23.830  0.00  0.00    +0.242 C 
ATOM     15  O   UNL     1      -0.041   2.096  24.059  0.00  0.00    -0.273 OA
ATOM     16  N   UNL     1      -0.892   0.949  24.006  0.00  0.00    -0.200 NA
BRANCH  16  17
ATOM     17  C   UNL     1      -0.324   0.509  24.410  0.00  0.00    +0.143 C 
BRANCH  17  18
ATOM     18  C   UNL     1      -0.505  -0.248  24.683  0.00  0.00    +0.019 A 
ATOM     19  C   UNL     1      -0.867  -0.348  25.417  0.00  0.00    +0.001 A 
ATOM     20  C   UNL     1      -1.048  -1.105  25.690  0.00  0.00    +0.020 A 
ATOM     21  C   UNL     1      -0.867  -1.764  25.227  0.00  0.00    +0.099 A 
ATOM     22  N   UNL     1      -0.505  -1.665  24.492  0.00  0.00    -0.243 NA
ATOM     23  C   UNL     1      -0.324  -0.907  24.220  0.00  0.00    +0.096 A 
ENDBRANCH  17  18
ENDBRANCH  16  17
ENDBRANCH  13  14
ENDBRANCH  12  13
TORSDOF 9
ENDMDL
MODEL 6
REMARK VINA RESULT:      -9.2      2.612      4.131
REMARK  Name = 
REMARK  9 active torsions:
REMARK  status: ('A' for Active; 'I' for Inactive)
REMARK    1  A    between atoms: O_2  and  C_3
REMARK    2  A    between atoms: C_3  and  C_4
REMARK    3  A    between atoms: N_6  and  C_7
REMARK    4  A    between atoms: C_7  and  C_8
REMARK    5  A    between atoms: C_12  and  C_13
REMARK    6  A    between atoms: C_13  and  C_14
REMARK    7  A    between atoms: N_16  and  C_17
REMARK    8  A    between atoms: C_17  and  C_18
REMARK    9  A    between atoms: C_25  and  C_26
REMARK                            x       y       z     vdW  Elec       q    Type
REMARK                         _______ _______ _______ _____ _____    ______ ____
ROOT
ATOM      8  C   UNL     1      -1.066   1.420  23.910  0.00  0.00    +0.043 C 
ATOM      9  C   UNL     1      -1.503   1.400  23.211  0.00  0.00    -0.033 C 
ATOM     10  C   UNL     1      -2.122   1.933  23.096  0.00  0.00    -0.048 C 
ATOM     11  C   UNL     1      -2.559   1.913  22.396  0.00  0.00    +0.026 C 
ATOM     12  C   UNL     1      -2.304   2.486  23.680  0.00  0.00    +0.027 C 
ATOM     24  C   UNL     1      -1.866   2.506  24.380  0.00  0.00    +0.005 C 
ATOM     25  C   UNL     1      -1.248   1.973  24.494  0.00  0.00    +0.006 C 
ENDROOT
BRANCH  25  26
ATOM     26  C   UNL     1      -0.810   1.993  25.194  0.00  0.00    +0.000 C 
ATOM     27  C   UNL     1      -1.003   1.488  25.816  0.00  0.00    +0.000 C 
ATOM     28  C   UNL     1      -0.178   2.518  25.270  0.00  0.00    +0.000 C 
ENDBRANCH  25  26
BRANCH   8   7
ATOM      7  C   UNL     1      -0.446   0.887  24.025  0.00  0.00    +0.119 C 
BRANCH   7   6
ATOM      4  C   UNL     1       0.498   0.014  23.400  0.00  0.00    +0.272 C 
ATOM      5  O   UNL     1       0.395  -0.532  24.008  0.00  0.00    -0.271 OA
ATOM      6  N   UNL     1       0.077   0.725  23.408  0.00  0.00    -0.203 NA
BRANCH   4   3
ATOM      3  C   UNL     1       1.022  -0.148  22.784  0.00  0.00    +0.229 C 
BRANCH   3   2
ATOM      1  C   UNL     1       2.357  -0.038  22.287  0.00  0.00    +0.175 C 
ATOM      2  O   UNL     1       1.836  -0.131  22.919  0.00  0.00    -0.342 OA
ENDBRANCH   3   2
ENDBRANCH   4   3
ENDBRANCH   7   6
ENDBRANCH   8   7
BRANCH  12  13
ATOM     13  C   UNL     1      -2.923   3.019  23.566  0.00  0.00    +0.091 C 
BRANCH  13  14
ATOM     14  C   UNL     1      -3.359   3.291  24.211  0.00  0.00    +0.242 C 
ATOM     15  O   UNL     1      -3.094   3.942  24.643  0.00  0.00    -0.273 OA
ATOM     16  N   UNL     1      -4.060   2.912  24.424  0.00  0.00    -0.200 NA
BRANCH  16  17
ATOM     17  C   UNL     1      -4.496   3.184  25.069  0.00  0.00    +0.143 C 
BRANCH  17  18
ATOM     18  C   UNL     1      -5.136   2.746  25.350  0.00  0.00    +0.019 A 
ATOM     19  C   UNL     1      -5.473   2.158  24.879  0.00  0.00    +0.001 A 
ATOM     20  C   UNL     1      -6.113   1.721  25.159  0.00  0.00    +0.020 A 
ATOM     21  C   UNL     1      -6.417   1.871  25.911  0.00  0.00    +0.099 A 
ATOM     22  N   UNL     1      -6.081   2.458  26.383  0.00  0.00    -0.243 NA
ATOM     23  C   UNL     1      -5.440   2.896  26.102  0.00  0.00    +0.096 A 
ENDBRANCH  17  18
ENDBRANCH  16  17
ENDBRANCH  13  14
ENDBRANCH  12  13
TORSDOF 9
ENDMDL
MODEL 7
REMARK VINA RESULT:      -9.1      2.702      5.165
REMARK  Name = 
REMARK  9 active torsions:
REMARK  status: ('A' for Active; 'I' for Inactive)
REMARK    1  A    between atoms: O_2  and  C_3
REMARK    2  A    between atoms: C_3  and  C_4
REMARK    3  A    between atoms: N_6  and  C_7
REMARK    4  A    between atoms: C_7  and  C_8
REMARK    5  A    between atoms: C_12  and  C_13
REMARK    6  A    between atoms: C_13  and  C_14
REMARK    7  A    between atoms: N_16  and  C_17
REMARK    8  A    between atoms: C_17  and  C_18
REMARK    9  A    between atoms: C_25  and  C_26
REMARK                            x       y       z     vdW  Elec       q    Type
REMARK                         _______ _______ _______ _____ _____    ______ ____
ROOT
ATOM      8  C   UNL     1      -0.848   1.490  24.136  0.00  0.00    +0.043 C 
ATOM      9  C   UNL     1      -1.234   1.509  23.407  0.00  0.00    -0.033 C 
ATOM     10  C   UNL     1      -2.059   1.526  23.377  0.00  0.00    -0.048 C 
ATOM     11  C   UNL     1      -2.444   1.546  22.648  0.00  0.00    +0.026 C 
ATOM     12  C   UNL     1      -2.497   1.523  24.076  0.00  0.00    +0.027 C 
ATOM     24  C   UNL     1      -2.110   1.504  24.805  0.00  0.00    +0.005 C 
ATOM     25  C   UNL     1      -1.286   1.487  24.835  0.00  0.00    +0.006 C 
ENDROOT
BRANCH  25  26
ATOM     26  C   UNL     1      -0.899   1.467  25.563  0.00  0.00    +0.000 C 
ATOM     27  C   UNL     1      -0.741   0.745  25.927  0.00  0.00    +0.000 C 
ATOM     28  C   UNL     1      -0.671   2.171  25.928  0.00  0.00    +0.000 C 
ENDBRANCH  25  26
BRANCH   8   7
ATOM      7  C   UNL     1      -0.023   1.473  24.165  0.00  0.00    +0.119 C 
BRANCH   7   6
ATOM      4  C   UNL     1       1.200   1.084  23.537  0.00  0.00    +0.272 C 
ATOM      5  O   UNL     1       1.584   1.724  23.888  0.00  0.00    -0.271 OA
ATOM      6  N   UNL     1       0.396   0.958  23.676  0.00  0.00    -0.203 NA
BRANCH   4   3
ATOM      3  C   UNL     1       1.620   0.570  23.048  0.00  0.00    +0.229 C 
BRANCH   3   2
ATOM      1  C   UNL     1       2.846   0.172  22.432  0.00  0.00    +0.175 C 
ATOM      2  O   UNL     1       2.426   0.690  22.918  0.00  0.00    -0.342 OA
ENDBRANCH   3   2
ENDBRANCH   4   3
ENDBRANCH   7   6
ENDBRANCH   8   7
BRANCH  12  13
ATOM     13  C   UNL     1      -3.320   1.540  24.046  0.00  0.00    +0.091 C 
BRANCH  13  14
ATOM     14  C   UNL     1      -3.761   0.986  24.471  0.00  0.00    +0.242 C 
ATOM     15  O   UNL     1      -4.187   1.222  25.137  0.00  0.00    -0.273 OA
ATOM     16  N   UNL     1      -3.774   0.198  24.231  0.00  0.00    -0.200 NA
BRANCH  16  17
ATOM     17  C   UNL     1      -4.215  -0.355  24.656  0.00  0.00    +0.143 C 
BRANCH  17  18
ATOM     18  C   UNL     1      -4.079  -1.162  24.549  0.00  0.00    +0.019 A 
ATOM     19  C   UNL     1      -3.649  -1.587  25.111  0.00  0.00    +0.001 A 
ATOM     20  C   UNL     1      -3.513  -2.393  25.004  0.00  0.00    +0.020 A 
ATOM     21  C   UNL     1      -3.807  -2.775  24.334  0.00  0.00    +0.099 A 
ATOM     22  N   UNL     1      -4.237  -2.351  23.772  0.00  0.00    -0.243 NA
ATOM     23  C   UNL     1      -4.373  -1.544  23.880  0.00  0.00    +0.096 A 
ENDBRANCH  17  18
ENDBRANCH  16  17
ENDBRANCH  13  14
ENDBRANCH  12  13
TORSDOF 9
ENDMDL
MODEL 8
REMARK VINA RESULT:      -9.0      1.232      5.471
REMARK  Name = 
REMARK  9 active torsions:
REMARK  status: ('A' for Active; 'I' for Inactive)
REMARK    1  A    between atoms: O_2  and  C_3
REMARK    2  A    between atoms: C_3  and  C_4
REMARK    3  A    between atoms: N_6  and  C_7
REMARK    4  A    between atoms: C_7  and  C_8
REMARK    5  A    between atoms: C_12  and  C_13
REMARK    6  A    between atoms: C_13  and  C_14
REMARK    7  A    between atoms: N_16  and  C_17
REMARK    8  A    between atoms: C_17  and  C_18
REMARK    9  A    between atoms: C_25  and  C_26
REMARK                            x       y       z     vdW  Elec       q    Type
REMARK                         _______ _______ _______ _____ _____    ______ ____
ROOT
ATOM      8  C   UNL     1      -3.557   3.054  24.812  0.00  0.00    +0.043 C 
ATOM      9  C   UNL     1      -3.060   2.680  24.271  0.00  0.00    -0.033 C 
ATOM     10  C   UNL     1      -3.288   1.964  23.927  0.00  0.00    -0.048 C 
ATOM     11  C   UNL     1      -2.790   1.590  23.386  0.00  0.00    +0.026 C 
ATOM     12  C   UNL     1      -4.013   1.624  24.125  0.00  0.00    +0.027 C 
ATOM     24  C   UNL     1      -4.510   1.999  24.667  0.00  0.00    +0.005 C 
ATOM     25  C   UNL     1      -4.282   2.714  25.010  0.00  0.00    +0.006 C 
ENDROOT
BRANCH  25  26
ATOM     26  C   UNL     1      -4.779   3.089  25.552  0.00  0.00    +0.000 C 
ATOM     27  C   UNL     1      -4.715   2.920  26.356  0.00  0.00    +0.000 C 
ATOM     28  C   UNL     1      -5.340   3.633  25.288  0.00  0.00    +0.000 C 
ENDBRANCH  25  26
BRANCH   8   7
ATOM      7  C   UNL     1      -3.329   3.769  25.156  0.00  0.00    +0.119 C 
BRANCH   7   6
ATOM      4  C   UNL     1      -2.255   4.699  25.309  0.00  0.00    +0.272 C 
ATOM      5  O   UNL     1      -2.423   4.760  26.113  0.00  0.00    -0.271 OA
ATOM      6  N   UNL     1      -2.708   4.203  24.829  0.00  0.00    -0.203 NA
BRANCH   4   3
ATOM      3  C   UNL     1      -1.634   5.133  24.983  0.00  0.00    +0.229 C 
BRANCH   3   2
ATOM      1  C   UNL     1      -0.251   5.127  24.621  0.00  0.00    +0.175 C 
ATOM      2  O   UNL     1      -0.853   4.922  25.147  0.00  0.00    -0.342 OA
ENDBRANCH   3   2
ENDBRANCH   4   3
ENDBRANCH   7   6
ENDBRANCH   8   7
BRANCH  12  13
ATOM     13  C   UNL     1      -4.241   0.910  23.782  0.00  0.00    +0.091 C 
BRANCH  13  14
ATOM     14  C   UNL     1      -4.397   0.254  24.257  0.00  0.00    +0.242 C 
ATOM     15  O   UNL     1      -5.070   0.242  24.734  0.00  0.00    -0.273 OA
ATOM     16  N   UNL     1      -3.881  -0.389  24.256  0.00  0.00    -0.200 NA
BRANCH  16  17
ATOM     17  C   UNL     1      -4.037  -1.044  24.732  0.00  0.00    +0.143 C 
BRANCH  17  18
ATOM     18  C   UNL     1      -3.571  -1.721  24.668  0.00  0.00    +0.019 A 
ATOM     19  C   UNL     1      -3.876  -2.402  24.316  0.00  0.00    +0.001 A 
ATOM     20  C   UNL     1      -3.409  -3.079  24.253  0.00  0.00    +0.020 A 
ATOM     21  C   UNL     1      -2.636  -3.076  24.543  0.00  0.00    +0.099 A 
ATOM     22  N   UNL     1      -2.331  -2.396  24.895  0.00  0.00    -0.243 NA
ATOM     23  C   UNL     1      -2.798  -1.718  24.958  0.00  0.00    +0.096 A 
ENDBRANCH  17  18
ENDBRANCH  16  17
ENDBRANCH  13  14
ENDBRANCH  12  13
TORSDOF 9
ENDMDL
MODEL 9
REMARK VINA RESULT:      -8.6      2.012      5.256
REMARK  Name = 
REMARK  9 active torsions:
REMARK  status: ('A' for Active; 'I' for Inactive)
REMARK    1  A    between atoms: O_2  and  C_3
REMARK    2  A    between atoms: C_3  and  C_4
REMARK    3  A    between atoms: N_6  and  C_7
REMARK    4  A    between atoms: C_7  and  C_8
REMARK    5  A    between atoms: C_12  and  C_13
REMARK    6  A    between atoms: C_13  and  C_14
REMARK    7  A    between atoms: N_16  and  C_17
REMARK    8  A    between atoms: C_17  and  C_18
REMARK    9  A    between atoms: C_25  and  C_26
REMARK                            x       y       z     vdW  Elec       q    Type
REMARK                         _______ _______ _______ _____ _____    ______ ____
ROOT
ATOM      8  C   UNL     1      -2.214   2.210  24.399  0.00  0.00    +0.043 C 
ATOM      9  C   UNL     1      -1.774   2.205  25.097  0.00  0.00    -0.033 C 
ATOM     10  C   UNL     1      -1.211   1.615  25.226  0.00  0.00    -0.048 C 
ATOM     11  C   UNL     1      -0.771   1.611  25.924  0.00  0.00    +0.026 C 
ATOM     12  C   UNL     1      -1.088   1.031  24.656  0.00  0.00    +0.027 C 
ATOM     24  C   UNL     1      -1.528   1.037  23.958  0.00  0.00    +0.005 C 
ATOM     25  C   UNL     1      -2.091   1.626  23.830  0.00  0.00    +0.006 C 
ENDROOT
BRANCH  25  26
ATOM     26  C   UNL     1      -2.531   1.632  23.132  0.00  0.00    +0.000 C 
ATOM     27  C   UNL     1      -3.251   1.233  23.095  0.00  0.00    +0.000 C 
ATOM     28  C   UNL     1      -2.250   2.037  22.471  0.00  0.00    +0.000 C 
ENDBRANCH  25  26
BRANCH   8   7
ATOM      7  C   UNL     1      -2.777   2.800  24.271  0.00  0.00    +0.119 C 
BRANCH   7   6
ATOM      4  C   UNL     1      -3.743   3.689  24.836  0.00  0.00    +0.272 C 
ATOM      5  O   UNL     1      -3.596   4.231  24.234  0.00  0.00    -0.271 OA
ATOM      6  N   UNL     1      -3.333   2.972  24.855  0.00  0.00    -0.203 NA
BRANCH   4   3
ATOM      3  C   UNL     1      -4.299   3.861  25.420  0.00  0.00    +0.229 C 
BRANCH   3   2
ATOM      1  C   UNL     1      -5.659   3.663  25.812  0.00  0.00    +0.175 C 
ATOM      2  O   UNL     1      -5.104   3.862  25.236  0.00  0.00    -0.342 OA
ENDBRANCH   3   2
ENDBRANCH   4   3
ENDBRANCH   7   6
ENDBRANCH   8   7
BRANCH  12  13
ATOM     13  C   UNL     1      -0.525   0.443  24.785  0.00  0.00    +0.091 C 
BRANCH  13  14
ATOM     14  C   UNL     1      -0.658  -0.323  24.508  0.00  0.00    +0.242 C 
ATOM     15  O   UNL     1      -0.255  -0.596  23.841  0.00  0.00    -0.273 OA
ATOM     16  N   UNL     1      -1.192  -0.816  24.896  0.00  0.00    -0.200 NA
BRANCH  16  17
ATOM     17  C   UNL     1      -1.324  -1.581  24.619  0.00  0.00    +0.143 C 
BRANCH  17  18
ATOM     18  C   UNL     1      -2.051  -1.949  24.750  0.00  0.00    +0.019 A 
ATOM     19  C   UNL     1      -2.495  -1.760  25.420  0.00  0.00    +0.001 A 
ATOM     20  C   UNL     1      -3.221  -2.128  25.551  0.00  0.00    +0.020 A 
ATOM     21  C   UNL     1      -3.505  -2.684  25.012  0.00  0.00    +0.099 A 
ATOM     22  N   UNL     1      -3.062  -2.873  24.342  0.00  0.00    -0.243 NA
ATOM     23  C   UNL     1      -2.335  -2.505  24.211  0.00  0.00    +0.096 A 
ENDBRANCH  17  18
ENDBRANCH  16  17
ENDBRANCH  13  14
ENDBRANCH  12  13
TORSDOF 9
ENDMDL
MODEL 10
REMARK VINA RESULT:      -6.2     15.489     18.412
REMARK  Name = 
REMARK  9 active torsions:
REMARK  status: ('A' for Active; 'I' for Inactive)
REMARK    1  A    between atoms: O_2  and  C_3
REMARK    2  A    between atoms: C_3  and  C_4
REMARK    3  A    between atoms: N_6  and  C_7
REMARK    4  A    between atoms: C_7  and  C_8
REMARK    5  A    between atoms: C_12  and  C_13
REMARK    6  A    between atoms: C_13  and  C_14
REMARK    7  A    between atoms: N_16  and  C_17
REMARK    8  A    between atoms: C_17  and  C_18
REMARK    9  A    between atoms: C_25  and  C_26
REMARK                            x       y       z     vdW  Elec       q    Type
REMARK                         _______ _______ _______ _____ _____    ______ ____
ROOT
ATOM      8  C   UNL     1      13.169   8.523  18.163  0.00  0.00    +0.043 C 
ATOM      9  C   UNL     1      12.428   8.635  17.821  0.00  0.00    -0.033 C 
ATOM     10  C   UNL     1      11.761   8.722  18.300  0.00  0.00    -0.048 C 
ATOM     11  C   UNL     1      11.019   8.834  17.957  0.00  0.00    +0.026 C 
ATOM     12  C   UNL     1      11.837   8.697  19.121  0.00  0.00    +0.027 C 
ATOM     24  C   UNL     1      12.580   8.585  19.463  0.00  0.00    +0.005 C 
ATOM     25  C   UNL     1      13.245   8.498  18.985  0.00  0.00    +0.006 C 
ENDROOT
BRANCH  25  26
ATOM     26  C   UNL     1      13.988   8.386  19.326  0.00  0.00    +0.000 C 
ATOM     27  C   UNL     1      14.434   9.036  19.568  0.00  0.00    +0.000 C 
ATOM     28  C   UNL     1      14.284   7.622  19.427  0.00  0.00    +0.000 C 
ENDBRANCH  25  26
BRANCH   8   7
ATOM      7  C   UNL     1      13.836   8.436  17.684  0.00  0.00    +0.119 C 
BRANCH   7   6
ATOM      4  C   UNL     1      14.340   8.584  16.355  0.00  0.00    +0.272 C 
ATOM      5  O   UNL     1      14.700   7.845  16.409  0.00  0.00    -0.271 OA
ATOM      6  N   UNL     1      13.907   8.880  16.993  0.00  0.00    -0.203 NA
BRANCH   4   3
ATOM      3  C   UNL     1      14.411   9.028  15.664  0.00  0.00    +0.229 C 
BRANCH   3   2
ATOM      1  C   UNL     1      14.981   9.094  14.355  0.00  0.00    +0.175 C 
ATOM      2  O   UNL     1      14.621   8.658  14.956  0.00  0.00    -0.342 OA
ENDBRANCH   3   2
ENDBRANCH   4   3
ENDBRANCH   7   6
ENDBRANCH   8   7
BRANCH  12  13
ATOM     13  C   UNL     1      11.171   8.784  19.599  0.00  0.00    +0.091 C 
BRANCH  13  14
ATOM     14  C   UNL     1      11.191   8.532  20.385  0.00  0.00    +0.242 C 
ATOM     15  O   UNL     1      11.388   9.064  20.983  0.00  0.00    -0.273 OA
ATOM     16  N   UNL     1      11.013   7.749  20.571  0.00  0.00    -0.200 NA
BRANCH  16  17
ATOM     17  C   UNL     1      11.033   7.498  21.356  0.00  0.00    +0.143 C 
BRANCH  17  18
ATOM     18  C   UNL     1      10.906   6.703  21.539  0.00  0.00    +0.019 A 
ATOM     19  C   UNL     1      11.428   6.127  21.261  0.00  0.00    +0.001 A 
ATOM     20  C   UNL     1      11.301   5.333  21.444  0.00  0.00    +0.020 A 
ATOM     21  C   UNL     1      10.653   5.114  21.905  0.00  0.00    +0.099 A 
ATOM     22  N   UNL     1      10.131   5.689  22.183  0.00  0.00    -0.243 NA
ATOM     23  C   UNL     1      10.258   6.484  22.000  0.00  0.00    +0.096 A 
ENDBRANCH  17  18
ENDBRANCH  16  17
ENDBRANCH  13  14
ENDBRANCH  12  13
TORSDOF 9
ENDMDL
