MODEL 1
REMARK VINA RESULT:      -9.4      0.000      0.000
REMARK  Name = 
REMARK  5 active torsions:
REMARK  status: ('A' for Active; 'I' for Inactive)
REMARK    1  A    between atoms: O_2  and  C_3
REMARK    2  A    between atoms: C_6  and  C_9
REMARK    3  A    between atoms: C_15  and  C_18
REMARK    4  A    between atoms: C_21  and  C_23
REMARK    5  A    between atoms: N_27  and  C_28
REMARK                            x       y       z     vdW  Elec       q    Type
REMARK                         _______ _______ _______ _____ _____    ______ ____
ROOT
ATOM      9  C   UNL     1       1.776   0.402  23.059  0.00  0.00    +0.270 C 
ATOM     10  O   UNL     1       1.322  -0.089  22.576  0.00  0.00    -0.268 OA
ATOM     11  N   UNL     1       1.405   0.936  23.569  0.00  0.00    -0.157 NA
ATOM     12  C   UNL     1       0.581   0.977  23.595  0.00  0.00    +0.155 A 
ATOM     13  N   UNL     1       0.212   1.510  24.103  0.00  0.00    -0.227 NA
ATOM     14  C   UNL     1      -0.612   1.552  24.129  0.00  0.00    +0.103 A 
ATOM     15  C   UNL     1      -1.066   1.061  23.646  0.00  0.00    +0.058 A 
ATOM     16  C   UNL     1      -0.695   0.528  23.136  0.00  0.00    +0.008 A 
ATOM     17  C   UNL     1       0.129   0.486  23.111  0.00  0.00    +0.036 A 
ENDROOT
BRANCH   9   6
ATOM      3  C   UNL     1       4.246   0.276  22.983  0.00  0.00    +0.139 A 
ATOM      4  C   UNL     1       3.863   0.986  22.806  0.00  0.00    +0.037 A 
ATOM      5  C   UNL     1       3.040   1.028  22.832  0.00  0.00    +0.008 A 
ATOM      6  C   UNL     1       2.599   0.360  23.034  0.00  0.00    +0.056 A 
ATOM      7  C   UNL     1       2.981  -0.349  23.210  0.00  0.00    +0.008 A 
ATOM      8  C   UNL     1       3.805  -0.391  23.184  0.00  0.00    +0.037 A 
BRANCH   3   2
ATOM      1  C   UNL     1       5.500   0.142  23.654  0.00  0.00    +0.252 C 
ATOM      2  O   UNL     1       5.070   0.234  22.957  0.00  0.00    -0.471 OA
ENDBRANCH   3   2
ENDBRANCH   9   6
BRANCH  15  18
ATOM     18  C   UNL     1      -1.889   1.103  23.672  0.00  0.00    +0.205 A 
ATOM     19  N   UNL     1      -2.394   1.119  23.020  0.00  0.00    -0.056 NA
ATOM     20  O   UNL     1      -3.169   1.162  23.298  0.00  0.00    -0.336 OA
ATOM     21  C   UNL     1      -3.143   1.173  24.124  0.00  0.00    +0.251 A 
ATOM     22  N   UNL     1      -2.352   1.137  24.353  0.00  0.00    -0.190 NA
BRANCH  21  23
ATOM     23  C   UNL     1      -3.794   1.214  24.628  0.00  0.00    +0.138 C 
ATOM     24  C   UNL     1      -4.152   1.903  24.905  0.00  0.00    +0.027 C 
ATOM     25  C   UNL     1      -4.781   1.686  25.392  0.00  0.00    +0.019 C 
ATOM     26  C   UNL     1      -4.812   0.862  25.417  0.00  0.00    +0.072 C 
ATOM     27  N   UNL     1      -4.203   0.569  24.945  0.00  0.00    -0.268 NA
BRANCH  27  28
ATOM     28  C   UNL     1      -4.030  -0.226  24.812  0.00  0.00    +0.063 C 
ATOM     29  C   UNL     1      -3.550  -0.638  25.343  0.00  0.00    +0.048 C 
ATOM     30  C   UNL     1      -3.377  -1.434  25.211  0.00  0.00    +0.144 C 
ATOM     31  O   UNL     1      -3.683  -1.818  24.547  0.00  0.00    -0.354 OA
ATOM     32  C   UNL     1      -4.161  -1.406  24.017  0.00  0.00    +0.144 C 
ATOM     33  C   UNL     1      -4.335  -0.610  24.149  0.00  0.00    +0.048 C 
ENDBRANCH  27  28
ENDBRANCH  21  23
ENDBRANCH  15  18
TORSDOF 5
ENDMDL
MODEL 2
REMARK VINA RESULT:      -9.2      0.905      1.933
REMARK  Name = 
REMARK  5 active torsions:
REMARK  status: ('A' for Active; 'I' for Inactive)
REMARK    1  A    between atoms: O_2  and  C_3
REMARK    2  A    between atoms: C_6  and  C_9
REMARK    3  A    between atoms: C_15  and  C_18
REMARK    4  A    between atoms: C_21  and  C_23
REMARK    5  A    between atoms: N_27  and  C_28
REMARK                            x       y       z     vdW  Elec       q    Type
REMARK                         _______ _______ _______ _____ _____    ______ ____
ROOT
ATOM      9  C   UNL     1       2.060   0.432  23.056  0.00  0.00    +0.270 C 
ATOM     10  O   UNL     1       1.602  -0.045  22.563  0.00  0.00    -0.268 OA
ATOM     11  N   UNL     1       1.695   0.971  23.563  0.00  0.00    -0.157 NA
ATOM     12  C   UNL     1       0.872   1.032  23.577  0.00  0.00    +0.155 A 
ATOM     13  N   UNL     1       0.508   1.570  24.084  0.00  0.00    -0.227 NA
ATOM     14  C   UNL     1      -0.315   1.632  24.098  0.00  0.00    +0.103 A 
ATOM     15  C   UNL     1      -0.773   1.155  23.605  0.00  0.00    +0.058 A 
ATOM     16  C   UNL     1      -0.408   0.616  23.097  0.00  0.00    +0.008 A 
ATOM     17  C   UNL     1       0.415   0.554  23.083  0.00  0.00    +0.036 A 
ENDROOT
BRANCH   9   6
ATOM      3  C   UNL     1       4.528   0.248  23.014  0.00  0.00    +0.139 A 
ATOM      4  C   UNL     1       4.162   0.947  22.772  0.00  0.00    +0.037 A 
ATOM      5  C   UNL     1       3.339   1.009  22.786  0.00  0.00    +0.008 A 
ATOM      6  C   UNL     1       2.883   0.370  23.042  0.00  0.00    +0.056 A 
ATOM      7  C   UNL     1       3.248  -0.328  23.283  0.00  0.00    +0.008 A 
ATOM      8  C   UNL     1       4.071  -0.390  23.269  0.00  0.00    +0.037 A 
BRANCH   3   2
ATOM      1  C   UNL     1       5.764   0.034  23.697  0.00  0.00    +0.252 C 
ATOM      2  O   UNL     1       5.351   0.186  23.000  0.00  0.00    -0.471 OA
ENDBRANCH   3   2
ENDBRANCH   9   6
BRANCH  15  18
ATOM     18  C   UNL     1      -1.596   1.216  23.619  0.00  0.00    +0.205 A 
ATOM     19  N   UNL     1      -2.070   1.520  23.016  0.00  0.00    -0.056 NA
ATOM     20  O   UNL     1      -2.855   1.476  23.262  0.00  0.00    -0.336 OA
ATOM     21  C   UNL     1      -2.867   1.145  24.018  0.00  0.00    +0.251 A 
ATOM     22  N   UNL     1      -2.089   0.984  24.238  0.00  0.00    -0.190 NA
BRANCH  21  23
ATOM     23  C   UNL     1      -3.540   1.000  24.473  0.00  0.00    +0.138 C 
ATOM     24  C   UNL     1      -3.874   0.262  24.624  0.00  0.00    +0.027 C 
ATOM     25  C   UNL     1      -4.538   0.376  25.101  0.00  0.00    +0.019 C 
ATOM     26  C   UNL     1      -4.613   1.184  25.244  0.00  0.00    +0.072 C 
ATOM     27  N   UNL     1      -3.997   1.571  24.856  0.00  0.00    -0.268 NA
BRANCH  27  28
ATOM     28  C   UNL     1      -3.861   2.384  24.851  0.00  0.00    +0.063 C 
ATOM     29  C   UNL     1      -3.406   2.728  25.448  0.00  0.00    +0.048 C 
ATOM     30  C   UNL     1      -3.268   3.542  25.444  0.00  0.00    +0.144 C 
ATOM     31  O   UNL     1      -3.585   4.011  24.843  0.00  0.00    -0.354 OA
ATOM     32  C   UNL     1      -4.040   3.667  24.248  0.00  0.00    +0.144 C 
ATOM     33  C   UNL     1      -4.177   2.853  24.252  0.00  0.00    +0.048 C 
ENDBRANCH  27  28
ENDBRANCH  21  23
ENDBRANCH  15  18
TORSDOF 5
ENDMDL
MODEL 3
REMARK VINA RESULT:      -8.4      1.784      2.599
REMARK  Name = 
REMARK  5 active torsions:
REMARK  status: ('A' for Active; 'I' for Inactive)
REMARK    1  A    between atoms: O_2  and  C_3
REMARK    2  A    between atoms: C_6  and  C_9
REMARK    3  A    between atoms: C_15  and  C_18
REMARK    4  A    between atoms: C_21  and  C_23
REMARK    5  A    between atoms: N_27  and  C_28
REMARK                            x       y       z     vdW  Elec       q    Type
REMARK                         _______ _______ _______ _____ _____    ______ ____
ROOT
ATOM      9  C   UNL     1       2.096   0.594  23.221  0.00  0.00    +0.270 C 
ATOM     10  O   UNL     1       1.535   0.156  22.804  0.00  0.00    -0.268 OA
ATOM     11  N   UNL     1       1.851   1.160  23.771  0.00  0.00    -0.157 NA
ATOM     12  C   UNL     1       1.046   1.286  23.903  0.00  0.00    +0.155 A 
ATOM     13  N   UNL     1       0.802   1.851  24.451  0.00  0.00    -0.227 NA
ATOM     14  C   UNL     1      -0.002   1.977  24.583  0.00  0.00    +0.103 A 
ATOM     15  C   UNL     1      -0.563   1.538  24.166  0.00  0.00    +0.058 A 
ATOM     16  C   UNL     1      -0.318   0.973  23.616  0.00  0.00    +0.008 A 
ATOM     17  C   UNL     1       0.487   0.847  23.485  0.00  0.00    +0.036 A 
ENDROOT
BRANCH   9   6
ATOM      3  C   UNL     1       4.510   0.216  22.826  0.00  0.00    +0.139 A 
ATOM      4  C   UNL     1       4.173   0.950  22.653  0.00  0.00    +0.037 A 
ATOM      5  C   UNL     1       3.368   1.076  22.785  0.00  0.00    +0.008 A 
ATOM      6  C   UNL     1       2.900   0.468  23.090  0.00  0.00    +0.056 A 
ATOM      7  C   UNL     1       3.236  -0.265  23.262  0.00  0.00    +0.008 A 
ATOM      8  C   UNL     1       4.041  -0.391  23.131  0.00  0.00    +0.037 A 
BRANCH   3   2
ATOM      1  C   UNL     1       5.828   0.004  23.334  0.00  0.00    +0.252 C 
ATOM      2  O   UNL     1       5.314   0.090  22.695  0.00  0.00    -0.471 OA
ENDBRANCH   3   2
ENDBRANCH   9   6
BRANCH  15  18
ATOM     18  C   UNL     1      -1.367   1.665  24.298  0.00  0.00    +0.205 A 
ATOM     19  N   UNL     1      -1.836   1.270  24.849  0.00  0.00    -0.056 NA
ATOM     20  O   UNL     1      -2.603   1.568  24.794  0.00  0.00    -0.336 OA
ATOM     21  C   UNL     1      -2.608   2.149  24.207  0.00  0.00    +0.251 A 
ATOM     22  N   UNL     1      -1.844   2.208  23.901  0.00  0.00    -0.190 NA
BRANCH  21  23
ATOM     23  C   UNL     1      -3.262   2.592  23.969  0.00  0.00    +0.138 C 
ATOM     24  C   UNL     1      -3.772   2.409  23.348  0.00  0.00    +0.027 C 
ATOM     25  C   UNL     1      -4.346   3.001  23.308  0.00  0.00    +0.019 C 
ATOM     26  C   UNL     1      -4.190   3.549  23.904  0.00  0.00    +0.072 C 
ATOM     27  N   UNL     1      -3.520   3.297  24.313  0.00  0.00    -0.268 NA
BRANCH  27  28
ATOM     28  C   UNL     1      -3.169   3.681  24.953  0.00  0.00    +0.063 C 
ATOM     29  C   UNL     1      -2.578   4.242  24.822  0.00  0.00    +0.048 C 
ATOM     30  C   UNL     1      -2.226   4.627  25.462  0.00  0.00    +0.144 C 
ATOM     31  O   UNL     1      -2.465   4.450  26.232  0.00  0.00    -0.354 OA
ATOM     32  C   UNL     1      -3.055   3.889  26.362  0.00  0.00    +0.144 C 
ATOM     33  C   UNL     1      -3.407   3.504  25.722  0.00  0.00    +0.048 C 
ENDBRANCH  27  28
ENDBRANCH  21  23
ENDBRANCH  15  18
TORSDOF 5
ENDMDL
MODEL 4
REMARK VINA RESULT:      -6.1      3.205      5.711
REMARK  Name = 
REMARK  5 active torsions:
REMARK  status: ('A' for Active; 'I' for Inactive)
REMARK    1  A    between atoms: O_2  and  C_3
REMARK    2  A    between atoms: C_6  and  C_9
REMARK    3  A    between atoms: C_15  and  C_18
REMARK    4  A    between atoms: C_21  and  C_23
REMARK    5  A    between atoms: N_27  and  C_28
REMARK                            x       y       z     vdW  Elec       q    Type
REMARK                         _______ _______ _______ _____ _____    ______ ____
ROOT
ATOM      9  C   UNL     1      -3.016  -1.044  24.735  0.00  0.00    +0.270 C 
ATOM     10  O   UNL     1      -3.426  -0.581  25.281  0.00  0.00    -0.268 OA
ATOM     11  N   UNL     1      -2.316  -0.761  24.400  0.00  0.00    -0.157 NA
ATOM     12  C   UNL     1      -2.028  -0.017  24.610  0.00  0.00    +0.155 A 
ATOM     13  N   UNL     1      -1.329   0.264  24.276  0.00  0.00    -0.227 NA
ATOM     14  C   UNL     1      -1.042   1.008  24.486  0.00  0.00    +0.103 A 
ATOM     15  C   UNL     1      -1.452   1.470  25.032  0.00  0.00    +0.058 A 
ATOM     16  C   UNL     1      -2.152   1.188  25.367  0.00  0.00    +0.008 A 
ATOM     17  C   UNL     1      -2.440   0.444  25.156  0.00  0.00    +0.036 A 
ENDROOT
BRANCH   9   6
ATOM      3  C   UNL     1      -3.879  -3.275  24.103  0.00  0.00    +0.139 A 
ATOM      4  C   UNL     1      -4.215  -2.595  23.777  0.00  0.00    +0.037 A 
ATOM      5  C   UNL     1      -3.927  -1.851  23.988  0.00  0.00    +0.008 A 
ATOM      6  C   UNL     1      -3.303  -1.788  24.524  0.00  0.00    +0.056 A 
ATOM      7  C   UNL     1      -2.967  -2.467  24.850  0.00  0.00    +0.008 A 
ATOM      8  C   UNL     1      -3.255  -3.210  24.639  0.00  0.00    +0.037 A 
BRANCH   3   2
ATOM      1  C   UNL     1      -4.608  -4.110  23.202  0.00  0.00    +0.252 C 
ATOM      2  O   UNL     1      -4.167  -4.019  23.892  0.00  0.00    -0.471 OA
ENDBRANCH   3   2
ENDBRANCH   9   6
BRANCH  15  18
ATOM     18  C   UNL     1      -1.165   2.214  25.243  0.00  0.00    +0.205 A 
ATOM     19  N   UNL     1      -0.633   2.374  25.853  0.00  0.00    -0.056 NA
ATOM     20  O   UNL     1      -0.498   3.187  25.868  0.00  0.00    -0.336 OA
ATOM     21  C   UNL     1      -0.947   3.531  25.266  0.00  0.00    +0.251 A 
ATOM     22  N   UNL     1      -1.358   2.930  24.881  0.00  0.00    -0.190 NA
BRANCH  21  23
ATOM     23  C   UNL     1      -0.977   4.335  25.084  0.00  0.00    +0.138 C 
ATOM     24  C   UNL     1      -0.361   4.785  24.772  0.00  0.00    +0.027 C 
ATOM     25  C   UNL     1      -0.633   5.559  24.678  0.00  0.00    +0.019 C 
ATOM     26  C   UNL     1      -1.417   5.585  24.931  0.00  0.00    +0.072 C 
ATOM     27  N   UNL     1      -1.631   4.830  25.182  0.00  0.00    -0.268 NA
BRANCH  27  28
ATOM     28  C   UNL     1      -2.367   4.606  25.480  0.00  0.00    +0.063 C 
ATOM     29  C   UNL     1      -2.977   4.409  24.960  0.00  0.00    +0.048 C 
ATOM     30  C   UNL     1      -3.714   4.185  25.257  0.00  0.00    +0.144 C 
ATOM     31  O   UNL     1      -3.840   4.158  26.073  0.00  0.00    -0.354 OA
ATOM     32  C   UNL     1      -3.230   4.355  26.591  0.00  0.00    +0.144 C 
ATOM     33  C   UNL     1      -2.493   4.579  26.294  0.00  0.00    +0.048 C 
ENDBRANCH  27  28
ENDBRANCH  21  23
ENDBRANCH  15  18
TORSDOF 5
ENDMDL
MODEL 5
REMARK VINA RESULT:      -5.6      1.727      2.484
REMARK  Name = 
REMARK  5 active torsions:
REMARK  status: ('A' for Active; 'I' for Inactive)
REMARK    1  A    between atoms: O_2  and  C_3
REMARK    2  A    between atoms: C_6  and  C_9
REMARK    3  A    between atoms: C_15  and  C_18
REMARK    4  A    between atoms: C_21  and  C_23
REMARK    5  A    between atoms: N_27  and  C_28
REMARK                            x       y       z     vdW  Elec       q    Type
REMARK                         _______ _______ _______ _____ _____    ______ ____
ROOT
ATOM      9  C   UNL     1       0.533   1.093  23.660  0.00  0.00    +0.270 C 
ATOM     10  O   UNL     1      -0.140   0.616  23.640  0.00  0.00    -0.268 OA
ATOM     11  N   UNL     1       0.501   1.835  24.021  0.00  0.00    -0.157 NA
ATOM     12  C   UNL     1      -0.202   2.098  24.363  0.00  0.00    +0.155 A 
ATOM     13  N   UNL     1      -0.234   2.838  24.723  0.00  0.00    -0.227 NA
ATOM     14  C   UNL     1      -0.937   3.101  25.065  0.00  0.00    +0.103 A 
ATOM     15  C   UNL     1      -1.610   2.624  25.045  0.00  0.00    +0.058 A 
ATOM     16  C   UNL     1      -1.578   1.882  24.684  0.00  0.00    +0.008 A 
ATOM     17  C   UNL     1      -0.874   1.619  24.342  0.00  0.00    +0.036 A 
ENDROOT
BRANCH   9   6
ATOM      3  C   UNL     1       2.643   0.304  22.636  0.00  0.00    +0.139 A 
ATOM      4  C   UNL     1       1.963  -0.162  22.592  0.00  0.00    +0.037 A 
ATOM      5  C   UNL     1       1.260   0.101  22.934  0.00  0.00    +0.008 A 
ATOM      6  C   UNL     1       1.236   0.830  23.318  0.00  0.00    +0.056 A 
ATOM      7  C   UNL     1       1.915   1.296  23.362  0.00  0.00    +0.008 A 
ATOM      8  C   UNL     1       2.618   1.033  23.021  0.00  0.00    +0.037 A 
BRANCH   3   2
ATOM      1  C   UNL     1       4.027  -0.031  22.755  0.00  0.00    +0.252 C 
ATOM      2  O   UNL     1       3.347   0.041  22.295  0.00  0.00    -0.471 OA
ENDBRANCH   3   2
ENDBRANCH   9   6
BRANCH  15  18
ATOM     18  C   UNL     1      -2.313   2.887  25.386  0.00  0.00    +0.205 A 
ATOM     19  N   UNL     1      -2.492   2.885  26.191  0.00  0.00    -0.056 NA
ATOM     20  O   UNL     1      -3.250   3.195  26.286  0.00  0.00    -0.336 OA
ATOM     21  C   UNL     1      -3.541   3.388  25.537  0.00  0.00    +0.251 A 
ATOM     22  N   UNL     1      -2.961   3.198  24.983  0.00  0.00    -0.190 NA
BRANCH  21  23
ATOM     23  C   UNL     1      -4.280   3.715  25.375  0.00  0.00    +0.138 C 
ATOM     24  C   UNL     1      -4.458   4.519  25.335  0.00  0.00    +0.027 C 
ATOM     25  C   UNL     1      -5.261   4.594  25.159  0.00  0.00    +0.019 C 
ATOM     26  C   UNL     1      -5.579   3.836  25.091  0.00  0.00    +0.072 C 
ATOM     27  N   UNL     1      -4.974   3.293  25.224  0.00  0.00    -0.268 NA
BRANCH  27  28
ATOM     28  C   UNL     1      -5.047   2.471  25.210  0.00  0.00    +0.063 C 
ATOM     29  C   UNL     1      -4.916   2.059  24.506  0.00  0.00    +0.048 C 
ATOM     30  C   UNL     1      -4.989   1.237  24.491  0.00  0.00    +0.144 C 
ATOM     31  O   UNL     1      -5.192   0.828  25.179  0.00  0.00    -0.354 OA
ATOM     32  C   UNL     1      -5.323   1.240  25.881  0.00  0.00    +0.144 C 
ATOM     33  C   UNL     1      -5.250   2.062  25.896  0.00  0.00    +0.048 C 
ENDBRANCH  27  28
ENDBRANCH  21  23
ENDBRANCH  15  18
TORSDOF 5
ENDMDL
