MODEL 1
REMARK VINA RESULT:     -12.6      0.000      0.000
REMARK  Name = 
REMARK  5 active torsions:
REMARK  status: ('A' for Active; 'I' for Inactive)
REMARK    1  A    between atoms: C_5  and  N_8
REMARK    2  A    between atoms: C_19  and  C_21
REMARK    3  A    between atoms: C_21  and  C_22
REMARK    4  A    between atoms: C_22  and  C_23
REMARK    5  A    between atoms: C_23  and  C_24
REMARK                            x       y       z     vdW  Elec       q    Type
REMARK                         _______ _______ _______ _____ _____    ______ ____
ROOT
ATOM      8  N   UNL     1      -2.770   2.627  24.854  0.00  0.00    -0.190 N 
ATOM      9  C   UNL     1      -3.076   3.390  24.924  0.00  0.00    +0.333 C 
ATOM     10  O   UNL     1      -2.569   4.041  24.907  0.00  0.00    -0.250 OA
ATOM     11  N   UNL     1      -3.888   3.501  25.012  0.00  0.00    -0.187 NA
ATOM     12  C   UNL     1      -4.395   2.851  25.029  0.00  0.00    +0.126 C 
ATOM     13  C   UNL     1      -5.213   2.790  25.108  0.00  0.00    +0.045 C 
ATOM     14  C   UNL     1      -5.414   1.990  25.087  0.00  0.00    +0.096 C 
ATOM     15  N   UNL     1      -4.718   1.556  24.994  0.00  0.00    -0.272 N 
ATOM     16  C   UNL     1      -4.089   2.088  24.958  0.00  0.00    +0.173 C 
ATOM     17  C   UNL     1      -3.276   1.976  24.871  0.00  0.00    +0.256 C 
ATOM     18  O   UNL     1      -2.970   1.213  24.800  0.00  0.00    -0.272 OA
ATOM     19  C   UNL     1      -4.662   0.734  24.946  0.00  0.00    +0.226 C 
ATOM     20  O   UNL     1      -5.344   0.271  24.990  0.00  0.00    -0.275 OA
ENDROOT
BRANCH   8   5
ATOM      1  C   UNL     1       0.481   2.179  24.503  0.00  0.00    +0.031 C 
ATOM      2  C   UNL     1      -0.331   2.291  24.590  0.00  0.00    -0.022 A 
ATOM      3  C   UNL     1      -0.813   2.358  23.924  0.00  0.00    -0.003 A 
ATOM      4  C   UNL     1      -1.626   2.470  24.012  0.00  0.00    +0.015 A 
ATOM      5  C   UNL     1      -1.957   2.515  24.766  0.00  0.00    +0.062 A 
ATOM      6  C   UNL     1      -1.475   2.448  25.433  0.00  0.00    +0.015 A 
ATOM      7  C   UNL     1      -0.663   2.337  25.345  0.00  0.00    -0.003 A 
ENDBRANCH   8   5
BRANCH  19  21
ATOM     21  C   UNL     1      -3.925   0.376  24.853  0.00  0.00    +0.086 C 
BRANCH  21  22
ATOM     22  C   UNL     1      -3.873  -0.443  24.758  0.00  0.00    +0.019 C 
ATOM     27  C   UNL     1      -4.009  -0.272  23.962  0.00  0.00    +0.001 C 
ATOM     28  C   UNL     1      -4.015  -0.984  23.546  0.00  0.00    +0.000 C 
ATOM     29  C   UNL     1      -3.883  -1.595  24.085  0.00  0.00    +0.000 C 
ATOM     30  C   UNL     1      -3.795  -1.260  24.834  0.00  0.00    +0.001 C 
BRANCH  22  23
ATOM     23  C   UNL     1      -3.749  -0.442  25.574  0.00  0.00    +0.115 C 
BRANCH  23  24
ATOM     24  C   UNL     1      -3.231  -0.988  25.912  0.00  0.00    +0.365 C 
ATOM     25  O   UNL     1      -3.527  -1.602  26.378  0.00  0.00    -0.246 OA
ATOM     26  O   UNL     1      -2.419  -0.921  25.785  0.00  0.00    -0.246 OA
ENDBRANCH  23  24
ENDBRANCH  22  23
ENDBRANCH  21  22
ENDBRANCH  19  21
TORSDOF 5
ENDMDL
MODEL 2
REMARK VINA RESULT:     -12.6      1.070      3.797
REMARK  Name = 
REMARK  5 active torsions:
REMARK  status: ('A' for Active; 'I' for Inactive)
REMARK    1  A    between atoms: C_5  and  N_8
REMARK    2  A    between atoms: C_19  and  C_21
REMARK    3  A    between atoms: C_21  and  C_22
REMARK    4  A    between atoms: C_22  and  C_23
REMARK    5  A    between atoms: C_23  and  C_24
REMARK                            x       y       z     vdW  Elec       q    Type
REMARK                         _______ _______ _______ _____ _____    ______ ____
ROOT
ATOM      8  N   UNL     1      -3.914   1.160  24.747  0.00  0.00    -0.190 N 
ATOM      9  C   UNL     1      -4.673   1.463  24.629  0.00  0.00    +0.333 C 
ATOM     10  O   UNL     1      -5.317   0.951  24.572  0.00  0.00    -0.250 OA
ATOM     11  N   UNL     1      -4.786   2.277  24.567  0.00  0.00    -0.187 NA
ATOM     12  C   UNL     1      -4.142   2.790  24.623  0.00  0.00    +0.126 C 
ATOM     13  C   UNL     1      -4.084   3.611  24.584  0.00  0.00    +0.045 C 
ATOM     14  C   UNL     1      -3.290   3.816  24.678  0.00  0.00    +0.096 C 
ATOM     15  N   UNL     1      -2.858   3.121  24.775  0.00  0.00    -0.272 N 
ATOM     16  C   UNL     1      -3.383   2.487  24.741  0.00  0.00    +0.173 C 
ATOM     17  C   UNL     1      -3.269   1.671  24.803  0.00  0.00    +0.256 C 
ATOM     18  O   UNL     1      -2.511   1.368  24.921  0.00  0.00    -0.272 OA
ATOM     19  C   UNL     1      -2.041   3.069  24.886  0.00  0.00    +0.226 C 
ATOM     20  O   UNL     1      -1.583   3.755  24.908  0.00  0.00    -0.275 OA
ENDROOT
BRANCH   8   5
ATOM      1  C   UNL     1      -3.459  -2.099  24.992  0.00  0.00    +0.031 C 
ATOM      2  C   UNL     1      -3.573  -1.285  24.931  0.00  0.00    -0.022 A 
ATOM      3  C   UNL     1      -3.582  -0.925  24.189  0.00  0.00    -0.003 A 
ATOM      4  C   UNL     1      -3.696  -0.109  24.127  0.00  0.00    +0.015 A 
ATOM      5  C   UNL     1      -3.801   0.345  24.808  0.00  0.00    +0.062 A 
ATOM      6  C   UNL     1      -3.792  -0.016  25.550  0.00  0.00    +0.015 A 
ATOM      7  C   UNL     1      -3.678  -0.830  25.611  0.00  0.00    -0.003 A 
ENDBRANCH   8   5
BRANCH  19  21
ATOM     21  C   UNL     1      -1.683   2.332  24.976  0.00  0.00    +0.086 C 
BRANCH  21  22
ATOM     22  C   UNL     1      -0.883   2.282  25.171  0.00  0.00    +0.019 C 
ATOM     27  C   UNL     1      -1.149   2.438  25.936  0.00  0.00    +0.001 C 
ATOM     28  C   UNL     1      -0.493   2.454  26.436  0.00  0.00    +0.000 C 
ATOM     29  C   UNL     1       0.180   2.309  25.979  0.00  0.00    +0.000 C 
ATOM     30  C   UNL     1      -0.062   2.203  25.197  0.00  0.00    +0.001 C 
BRANCH  22  23
ATOM     23  C   UNL     1      -0.785   2.138  24.365  0.00  0.00    +0.115 C 
BRANCH  23  24
ATOM     24  C   UNL     1      -0.178   1.642  24.106  0.00  0.00    +0.365 C 
ATOM     25  O   UNL     1       0.522   1.965  23.812  0.00  0.00    -0.246 OA
ATOM     26  O   UNL     1      -0.271   0.823  24.141  0.00  0.00    -0.246 OA
ENDBRANCH  23  24
ENDBRANCH  22  23
ENDBRANCH  21  22
ENDBRANCH  19  21
TORSDOF 5
ENDMDL
MODEL 3
REMARK VINA RESULT:     -12.5      1.434      3.991
REMARK  Name = 
REMARK  5 active torsions:
REMARK  status: ('A' for Active; 'I' for Inactive)
REMARK    1  A    between atoms: C_5  and  N_8
REMARK    2  A    between atoms: C_19  and  C_21
REMARK    3  A    between atoms: C_21  and  C_22
REMARK    4  A    between atoms: C_22  and  C_23
REMARK    5  A    between atoms: C_23  and  C_24
REMARK                            x       y       z     vdW  Elec       q    Type
REMARK                         _______ _______ _______ _____ _____    ______ ____
ROOT
ATOM      8  N   UNL     1      -1.909  -0.057  25.245  0.00  0.00    -0.190 N 
ATOM      9  C   UNL     1      -1.162  -0.239  25.545  0.00  0.00    +0.333 C 
ATOM     10  O   UNL     1      -0.942  -1.027  25.653  0.00  0.00    -0.250 OA
ATOM     11  N   UNL     1      -0.637   0.367  25.738  0.00  0.00    -0.187 NA
ATOM     12  C   UNL     1      -0.857   1.155  25.630  0.00  0.00    +0.126 C 
ATOM     13  C   UNL     1      -0.460   1.863  25.769  0.00  0.00    +0.045 C 
ATOM     14  C   UNL     1      -0.960   2.483  25.554  0.00  0.00    +0.096 C 
ATOM     15  N   UNL     1      -1.667   2.157  25.283  0.00  0.00    -0.272 N 
ATOM     16  C   UNL     1      -1.604   1.337  25.329  0.00  0.00    +0.173 C 
ATOM     17  C   UNL     1      -2.130   0.730  25.137  0.00  0.00    +0.256 C 
ATOM     18  O   UNL     1      -2.877   0.912  24.836  0.00  0.00    -0.272 OA
ATOM     19  C   UNL     1      -2.323   2.579  25.012  0.00  0.00    +0.226 C 
ATOM     20  O   UNL     1      -2.306   3.404  24.997  0.00  0.00    -0.275 OA
ENDROOT
BRANCH   8   5
ATOM      1  C   UNL     1      -4.013  -2.480  24.474  0.00  0.00    +0.031 C 
ATOM      2  C   UNL     1      -3.488  -1.875  24.667  0.00  0.00    -0.022 A 
ATOM      3  C   UNL     1      -2.956  -1.595  24.102  0.00  0.00    -0.003 A 
ATOM      4  C   UNL     1      -2.429  -0.988  24.294  0.00  0.00    +0.015 A 
ATOM      5  C   UNL     1      -2.436  -0.663  25.052  0.00  0.00    +0.062 A 
ATOM      6  C   UNL     1      -2.967  -0.943  25.618  0.00  0.00    +0.015 A 
ATOM      7  C   UNL     1      -3.493  -1.548  25.425  0.00  0.00    -0.003 A 
ENDBRANCH   8   5
BRANCH  19  21
ATOM     21  C   UNL     1      -2.995   2.176  24.756  0.00  0.00    +0.086 C 
BRANCH  21  22
ATOM     22  C   UNL     1      -3.625   2.593  24.424  0.00  0.00    +0.019 C 
ATOM     27  C   UNL     1      -3.206   2.493  23.720  0.00  0.00    +0.001 C 
ATOM     28  C   UNL     1      -3.637   2.851  23.114  0.00  0.00    +0.000 C 
ATOM     29  C   UNL     1      -4.322   3.172  23.444  0.00  0.00    +0.000 C 
ATOM     30  C   UNL     1      -4.314   3.012  24.253  0.00  0.00    +0.001 C 
BRANCH  22  23
ATOM     23  C   UNL     1      -3.912   2.605  25.197  0.00  0.00    +0.115 C 
BRANCH  23  24
ATOM     24  C   UNL     1      -4.724   2.567  25.336  0.00  0.00    +0.365 C 
ATOM     25  O   UNL     1      -5.124   3.227  25.627  0.00  0.00    -0.246 OA
ATOM     26  O   UNL     1      -5.136   1.868  25.186  0.00  0.00    -0.246 OA
ENDBRANCH  23  24
ENDBRANCH  22  23
ENDBRANCH  21  22
ENDBRANCH  19  21
TORSDOF 5
ENDMDL
MODEL 4
REMARK VINA RESULT:     -12.3      1.317      3.021
REMARK  Name = 
REMARK  5 active torsions:
REMARK  status: ('A' for Active; 'I' for Inactive)
REMARK    1  A    between atoms: C_5  and  N_8
REMARK    2  A    between atoms: C_19  and  C_21
REMARK    3  A    between atoms: C_21  and  C_22
REMARK    4  A    between atoms: C_22  and  C_23
REMARK    5  A    between atoms: C_23  and  C_24
REMARK                            x       y       z     vdW  Elec       q    Type
REMARK                         _______ _______ _______ _____ _____    ______ ____
ROOT
ATOM      8  N   UNL     1      -2.252   2.252  24.536  0.00  0.00    -0.190 N 
ATOM      9  C   UNL     1      -1.591   2.700  24.325  0.00  0.00    +0.333 C 
ATOM     10  O   UNL     1      -1.641   3.523  24.301  0.00  0.00    -0.250 OA
ATOM     11  N   UNL     1      -0.881   2.324  24.140  0.00  0.00    -0.187 NA
ATOM     12  C   UNL     1      -0.831   1.500  24.164  0.00  0.00    +0.126 C 
ATOM     13  C   UNL     1      -0.211   0.980  24.011  0.00  0.00    +0.045 C 
ATOM     14  C   UNL     1      -0.487   0.211  24.126  0.00  0.00    +0.096 C 
ATOM     15  N   UNL     1      -1.279   0.257  24.351  0.00  0.00    -0.272 N 
ATOM     16  C   UNL     1      -1.492   1.053  24.374  0.00  0.00    +0.173 C 
ATOM     17  C   UNL     1      -2.203   1.429  24.560  0.00  0.00    +0.256 C 
ATOM     18  O   UNL     1      -2.863   0.982  24.771  0.00  0.00    -0.272 OA
ATOM     19  C   UNL     1      -1.772  -0.382  24.522  0.00  0.00    +0.226 C 
ATOM     20  O   UNL     1      -1.480  -1.153  24.475  0.00  0.00    -0.275 OA
ENDROOT
BRANCH   8   5
ATOM      1  C   UNL     1      -5.093   3.756  25.280  0.00  0.00    +0.031 C 
ATOM      2  C   UNL     1      -4.384   3.381  25.094  0.00  0.00    -0.022 A 
ATOM      3  C   UNL     1      -3.808   3.275  25.675  0.00  0.00    -0.003 A 
ATOM      4  C   UNL     1      -3.097   2.898  25.489  0.00  0.00    +0.015 A 
ATOM      5  C   UNL     1      -2.963   2.629  24.722  0.00  0.00    +0.062 A 
ATOM      6  C   UNL     1      -3.538   2.735  24.140  0.00  0.00    +0.015 A 
ATOM      7  C   UNL     1      -4.248   3.110  24.326  0.00  0.00    -0.003 A 
ENDBRANCH   8   5
BRANCH  19  21
ATOM     21  C   UNL     1      -2.556  -0.251  24.741  0.00  0.00    +0.086 C 
BRANCH  21  22
ATOM     22  C   UNL     1      -3.031  -0.884  24.977  0.00  0.00    +0.019 C 
ATOM     27  C   UNL     1      -2.696  -0.745  25.718  0.00  0.00    +0.001 C 
ATOM     28  C   UNL     1      -3.013  -1.294  26.247  0.00  0.00    +0.000 C 
ATOM     29  C   UNL     1      -3.543  -1.772  25.832  0.00  0.00    +0.000 C 
ATOM     30  C   UNL     1      -3.553  -1.518  25.047  0.00  0.00    +0.001 C 
BRANCH  22  23
ATOM     23  C   UNL     1      -3.265  -0.890  24.186  0.00  0.00    +0.115 C 
BRANCH  23  24
ATOM     24  C   UNL     1      -4.039  -1.097  23.987  0.00  0.00    +0.365 C 
ATOM     25  O   UNL     1      -4.189  -1.812  23.604  0.00  0.00    -0.246 OA
ATOM     26  O   UNL     1      -4.662  -0.588  24.171  0.00  0.00    -0.246 OA
ENDBRANCH  23  24
ENDBRANCH  22  23
ENDBRANCH  21  22
ENDBRANCH  19  21
TORSDOF 5
ENDMDL
