MODEL 1
REMARK VINA RESULT:     -11.4      0.000      0.000
REMARK  Name = 
REMARK  6 active torsions:
REMARK  status: ('A' for Active; 'I' for Inactive)
REMARK    1  A    between atoms: O_2  and  C_3
REMARK    2  A    between atoms: C_6  and  C_7
REMARK    3  A    between atoms: C_7  and  N_8
REMARK    4  A    between atoms: C_13  and  O_15
REMARK    5  A    between atoms: O_15  and  C_16
REMARK    6  A    between atoms: C_16  and  C_17
REMARK                            x       y       z     vdW  Elec       q    Type
REMARK                         _______ _______ _______ _____ _____    ______ ____
ROOT
ATOM      8  N   UNL     1      -4.125   2.830  24.769  0.00  0.00    -0.265 NA
ATOM      9  C   UNL     1      -4.661   3.265  25.222  0.00  0.00    +0.105 C 
ATOM     10  C   UNL     1      -5.325   2.997  25.630  0.00  0.00    +0.160 C 
ATOM     11  O   UNL     1      -5.619   2.228  25.687  0.00  0.00    -0.350 OA
ATOM     12  C   UNL     1      -5.320   1.538  25.349  0.00  0.00    +0.173 C 
ATOM     13  C   UNL     1      -4.654   1.445  24.870  0.00  0.00    +0.161 C 
ATOM     14  C   UNL     1      -4.123   2.020  24.613  0.00  0.00    +0.105 C 
ENDROOT
BRANCH   8   7
ATOM      7  C   UNL     1      -3.512   3.263  24.427  0.00  0.00    +0.099 C 
BRANCH   7   6
ATOM      3  C   UNL     1      -1.262   3.251  25.460  0.00  0.00    +0.139 A 
ATOM      4  C   UNL     1      -1.409   2.802  24.783  0.00  0.00    +0.037 A 
ATOM      5  C   UNL     1      -2.157   2.806  24.440  0.00  0.00    +0.000 A 
ATOM      6  C   UNL     1      -2.762   3.259  24.772  0.00  0.00    -0.006 A 
ATOM     23  C   UNL     1      -2.616   3.708  25.449  0.00  0.00    +0.000 A 
ATOM     24  C   UNL     1      -1.867   3.704  25.792  0.00  0.00    +0.037 A 
BRANCH   3   2
ATOM      1  C   UNL     1      -0.214   2.552  26.136  0.00  0.00    +0.252 C 
ATOM      2  O   UNL     1      -0.512   3.247  25.804  0.00  0.00    -0.471 OA
ENDBRANCH   3   2
ENDBRANCH   7   6
ENDBRANCH   8   7
BRANCH  13  15
ATOM     15  O   UNL     1      -4.500   0.675  24.617  0.00  0.00    -0.347 OA
BRANCH  15  16
ATOM     16  C   UNL     1      -4.327   0.086  25.168  0.00  0.00    +0.169 C 
BRANCH  16  17
ATOM     17  C   UNL     1      -4.079  -0.658  24.912  0.00  0.00    +0.007 A 
ATOM     18  C   UNL     1      -3.581  -1.114  25.388  0.00  0.00    -0.002 A 
ATOM     19  C   UNL     1      -3.333  -1.857  25.132  0.00  0.00    -0.000 A 
ATOM     20  C   UNL     1      -3.582  -2.146  24.401  0.00  0.00    -0.000 A 
ATOM     21  C   UNL     1      -4.079  -1.691  23.925  0.00  0.00    -0.000 A 
ATOM     22  C   UNL     1      -4.327  -0.947  24.181  0.00  0.00    -0.002 A 
ENDBRANCH  16  17
ENDBRANCH  15  16
ENDBRANCH  13  15
TORSDOF 6
ENDMDL
MODEL 2
REMARK VINA RESULT:     -11.1      1.372      2.899
REMARK  Name = 
REMARK  6 active torsions:
REMARK  status: ('A' for Active; 'I' for Inactive)
REMARK    1  A    between atoms: O_2  and  C_3
REMARK    2  A    between atoms: C_6  and  C_7
REMARK    3  A    between atoms: C_7  and  N_8
REMARK    4  A    between atoms: C_13  and  O_15
REMARK    5  A    between atoms: O_15  and  C_16
REMARK    6  A    between atoms: C_16  and  C_17
REMARK                            x       y       z     vdW  Elec       q    Type
REMARK                         _______ _______ _______ _____ _____    ______ ____
ROOT
ATOM      8  N   UNL     1      -1.788   1.872  24.647  0.00  0.00    -0.265 NA
ATOM      9  C   UNL     1      -1.196   2.089  25.179  0.00  0.00    +0.105 C 
ATOM     10  C   UNL     1      -0.741   1.605  25.667  0.00  0.00    +0.160 C 
ATOM     11  O   UNL     1      -0.765   0.784  25.745  0.00  0.00    -0.350 OA
ATOM     12  C   UNL     1      -1.251   0.245  25.353  0.00  0.00    +0.173 C 
ATOM     13  C   UNL     1      -1.832   0.393  24.786  0.00  0.00    +0.161 C 
ATOM     14  C   UNL     1      -2.071   1.117  24.473  0.00  0.00    +0.105 C 
ENDROOT
BRANCH   8   7
ATOM      7  C   UNL     1      -2.144   2.492  24.235  0.00  0.00    +0.099 C 
BRANCH   7   6
ATOM      3  C   UNL     1      -4.265   3.469  25.057  0.00  0.00    +0.139 A 
ATOM      4  C   UNL     1      -3.554   3.647  25.436  0.00  0.00    +0.037 A 
ATOM      5  C   UNL     1      -2.848   3.322  25.162  0.00  0.00    +0.000 A 
ATOM      6  C   UNL     1      -2.851   2.818  24.509  0.00  0.00    -0.006 A 
ATOM     23  C   UNL     1      -3.562   2.638  24.131  0.00  0.00    +0.000 A 
ATOM     24  C   UNL     1      -4.268   2.964  24.404  0.00  0.00    +0.037 A 
BRANCH   3   2
ATOM      1  C   UNL     1      -5.552   3.306  25.656  0.00  0.00    +0.252 C 
ATOM      2  O   UNL     1      -4.971   3.794  25.331  0.00  0.00    -0.471 OA
ENDBRANCH   3   2
ENDBRANCH   7   6
ENDBRANCH   8   7
BRANCH  13  15
ATOM     15  O   UNL     1      -2.226  -0.271  24.496  0.00  0.00    -0.347 OA
BRANCH  15  16
ATOM     16  C   UNL     1      -2.757  -0.679  24.977  0.00  0.00    +0.169 C 
BRANCH  16  17
ATOM     17  C   UNL     1      -3.204  -1.299  24.666  0.00  0.00    +0.007 A 
ATOM     18  C   UNL     1      -3.857  -1.139  24.188  0.00  0.00    -0.002 A 
ATOM     19  C   UNL     1      -4.304  -1.758  23.877  0.00  0.00    -0.000 A 
ATOM     20  C   UNL     1      -4.097  -2.539  24.044  0.00  0.00    -0.000 A 
ATOM     21  C   UNL     1      -3.445  -2.700  24.522  0.00  0.00    -0.000 A 
ATOM     22  C   UNL     1      -2.997  -2.080  24.833  0.00  0.00    -0.002 A 
ENDBRANCH  16  17
ENDBRANCH  15  16
ENDBRANCH  13  15
TORSDOF 6
ENDMDL
MODEL 3
REMARK VINA RESULT:     -11.1      1.224      4.273
REMARK  Name = 
REMARK  6 active torsions:
REMARK  status: ('A' for Active; 'I' for Inactive)
REMARK    1  A    between atoms: O_2  and  C_3
REMARK    2  A    between atoms: C_6  and  C_7
REMARK    3  A    between atoms: C_7  and  N_8
REMARK    4  A    between atoms: C_13  and  O_15
REMARK    5  A    between atoms: O_15  and  C_16
REMARK    6  A    between atoms: C_16  and  C_17
REMARK                            x       y       z     vdW  Elec       q    Type
REMARK                         _______ _______ _______ _____ _____    ______ ____
ROOT
ATOM      8  N   UNL     1      -4.624   1.866  24.746  0.00  0.00    -0.265 NA
ATOM      9  C   UNL     1      -5.312   1.816  25.200  0.00  0.00    +0.105 C 
ATOM     10  C   UNL     1      -5.610   2.360  25.744  0.00  0.00    +0.160 C 
ATOM     11  O   UNL     1      -5.294   3.089  25.969  0.00  0.00    -0.350 OA
ATOM     12  C   UNL     1      -4.602   3.452  25.704  0.00  0.00    +0.173 C 
ATOM     13  C   UNL     1      -4.056   3.178  25.150  0.00  0.00    +0.161 C 
ATOM     14  C   UNL     1      -4.066   2.472  24.725  0.00  0.00    +0.105 C 
ENDROOT
BRANCH   8   7
ATOM      7  C   UNL     1      -4.477   1.225  24.249  0.00  0.00    +0.099 C 
BRANCH   7   6
ATOM      3  C   UNL     1      -3.146  -0.696  25.064  0.00  0.00    +0.139 A 
ATOM      4  C   UNL     1      -2.792  -0.117  24.595  0.00  0.00    +0.037 A 
ATOM      5  C   UNL     1      -3.235   0.522  24.323  0.00  0.00    +0.000 A 
ATOM      6  C   UNL     1      -4.033   0.585  24.521  0.00  0.00    -0.006 A 
ATOM     23  C   UNL     1      -4.388   0.006  24.991  0.00  0.00    +0.000 A 
ATOM     24  C   UNL     1      -3.945  -0.634  25.262  0.00  0.00    +0.037 A 
BRANCH   3   2
ATOM      1  C   UNL     1      -2.691  -2.042  24.908  0.00  0.00    +0.252 C 
ATOM      2  O   UNL     1      -2.702  -1.336  25.336  0.00  0.00    -0.471 OA
ENDBRANCH   3   2
ENDBRANCH   7   6
ENDBRANCH   8   7
BRANCH  13  15
ATOM     15  O   UNL     1      -3.414   3.676  25.004  0.00  0.00    -0.347 OA
BRANCH  15  16
ATOM     16  C   UNL     1      -2.849   3.804  25.591  0.00  0.00    +0.169 C 
BRANCH  16  17
ATOM     17  C   UNL     1      -2.116   4.130  25.394  0.00  0.00    +0.007 A 
ATOM     18  C   UNL     1      -2.054   4.934  25.222  0.00  0.00    -0.002 A 
ATOM     19  C   UNL     1      -1.322   5.259  25.026  0.00  0.00    -0.000 A 
ATOM     20  C   UNL     1      -0.652   4.779  25.001  0.00  0.00    -0.000 A 
ATOM     21  C   UNL     1      -0.713   3.975  25.173  0.00  0.00    -0.000 A 
ATOM     22  C   UNL     1      -1.446   3.650  25.369  0.00  0.00    -0.002 A 
ENDBRANCH  16  17
ENDBRANCH  15  16
ENDBRANCH  13  15
TORSDOF 6
ENDMDL
MODEL 4
REMARK VINA RESULT:     -10.6      2.185      5.409
REMARK  Name = 
REMARK  6 active torsions:
REMARK  status: ('A' for Active; 'I' for Inactive)
REMARK    1  A    between atoms: O_2  and  C_3
REMARK    2  A    between atoms: C_6  and  C_7
REMARK    3  A    between atoms: C_7  and  N_8
REMARK    4  A    between atoms: C_13  and  O_15
REMARK    5  A    between atoms: O_15  and  C_16
REMARK    6  A    between atoms: C_16  and  C_17
REMARK                            x       y       z     vdW  Elec       q    Type
REMARK                         _______ _______ _______ _____ _____    ______ ____
ROOT
ATOM      8  N   UNL     1      -0.953  -0.130  25.000  0.00  0.00    -0.265 NA
ATOM      9  C   UNL     1      -0.382  -0.494  24.527  0.00  0.00    +0.105 C 
ATOM     10  C   UNL     1       0.093  -0.156  23.944  0.00  0.00    +0.160 C 
ATOM     11  O   UNL     1       0.116   0.628  23.688  0.00  0.00    -0.350 OA
ATOM     12  C   UNL     1      -0.332   1.268  23.954  0.00  0.00    +0.173 C 
ATOM     13  C   UNL     1      -0.912   1.282  24.540  0.00  0.00    +0.161 C 
ATOM     14  C   UNL     1      -1.188   0.660  25.005  0.00  0.00    +0.105 C 
ENDROOT
BRANCH   8   7
ATOM      7  C   UNL     1      -1.339  -0.623  25.537  0.00  0.00    +0.099 C 
BRANCH   7   6
ATOM      3  C   UNL     1      -3.276  -1.979  24.806  0.00  0.00    +0.139 A 
ATOM      4  C   UNL     1      -2.508  -2.251  24.674  0.00  0.00    +0.037 A 
ATOM      5  C   UNL     1      -1.863  -1.799  24.918  0.00  0.00    +0.000 A 
ATOM      6  C   UNL     1      -1.984  -1.075  25.293  0.00  0.00    -0.006 A 
ATOM     23  C   UNL     1      -2.753  -0.803  25.426  0.00  0.00    +0.000 A 
ATOM     24  C   UNL     1      -3.398  -1.254  25.183  0.00  0.00    +0.037 A 
BRANCH   3   2
ATOM      1  C   UNL     1      -4.290  -2.270  23.842  0.00  0.00    +0.252 C 
ATOM      2  O   UNL     1      -3.922  -2.431  24.563  0.00  0.00    -0.471 OA
ENDBRANCH   3   2
ENDBRANCH   7   6
ENDBRANCH   8   7
BRANCH  13  15
ATOM     15  O   UNL     1      -1.263   2.017  24.679  0.00  0.00    -0.347 OA
BRANCH  15  16
ATOM     16  C   UNL     1      -0.884   2.570  25.158  0.00  0.00    +0.169 C 
BRANCH  16  17
ATOM     17  C   UNL     1      -1.198   3.329  25.240  0.00  0.00    +0.007 A 
ATOM     18  C   UNL     1      -1.924   3.437  25.617  0.00  0.00    -0.002 A 
ATOM     19  C   UNL     1      -2.237   4.196  25.698  0.00  0.00    -0.000 A 
ATOM     20  C   UNL     1      -1.825   4.846  25.403  0.00  0.00    -0.000 A 
ATOM     21  C   UNL     1      -1.100   4.738  25.026  0.00  0.00    -0.000 A 
ATOM     22  C   UNL     1      -0.786   3.979  24.944  0.00  0.00    -0.002 A 
ENDBRANCH  16  17
ENDBRANCH  15  16
ENDBRANCH  13  15
TORSDOF 6
ENDMDL
MODEL 5
REMARK VINA RESULT:     -10.6      1.748      4.662
REMARK  Name = 
REMARK  6 active torsions:
REMARK  status: ('A' for Active; 'I' for Inactive)
REMARK    1  A    between atoms: O_2  and  C_3
REMARK    2  A    between atoms: C_6  and  C_7
REMARK    3  A    between atoms: C_7  and  N_8
REMARK    4  A    between atoms: C_13  and  O_15
REMARK    5  A    between atoms: O_15  and  C_16
REMARK    6  A    between atoms: C_16  and  C_17
REMARK                            x       y       z     vdW  Elec       q    Type
REMARK                         _______ _______ _______ _____ _____    ______ ____
ROOT
ATOM      8  N   UNL     1      -1.483   0.251  25.035  0.00  0.00    -0.265 NA
ATOM      9  C   UNL     1      -0.863   0.235  24.491  0.00  0.00    +0.105 C 
ATOM     10  C   UNL     1      -0.651   0.809  23.938  0.00  0.00    +0.160 C 
ATOM     11  O   UNL     1      -1.005   1.540  23.792  0.00  0.00    -0.350 OA
ATOM     12  C   UNL     1      -1.659   1.877  24.164  0.00  0.00    +0.173 C 
ATOM     13  C   UNL     1      -2.121   1.566  24.774  0.00  0.00    +0.161 C 
ATOM     14  C   UNL     1      -2.042   0.843  25.161  0.00  0.00    +0.105 C 
ENDROOT
BRANCH   8   7
ATOM      7  C   UNL     1      -1.551  -0.415  25.518  0.00  0.00    +0.099 C 
BRANCH   7   6
ATOM      3  C   UNL     1      -3.129  -2.225  24.916  0.00  0.00    +0.139 A 
ATOM      4  C   UNL     1      -2.386  -2.190  24.560  0.00  0.00    +0.037 A 
ATOM      5  C   UNL     1      -1.861  -1.587  24.761  0.00  0.00    +0.000 A 
ATOM      6  C   UNL     1      -2.077  -1.018  25.317  0.00  0.00    -0.006 A 
ATOM     23  C   UNL     1      -2.821  -1.053  25.674  0.00  0.00    +0.000 A 
ATOM     24  C   UNL     1      -3.347  -1.655  25.473  0.00  0.00    +0.037 A 
BRANCH   3   2
ATOM      1  C   UNL     1      -4.059  -2.801  23.996  0.00  0.00    +0.252 C 
ATOM      2  O   UNL     1      -3.655  -2.828  24.716  0.00  0.00    -0.471 OA
ENDBRANCH   3   2
ENDBRANCH   7   6
ENDBRANCH   8   7
BRANCH  13  15
ATOM     15  O   UNL     1      -2.745   2.044  25.029  0.00  0.00    -0.347 OA
BRANCH  15  16
ATOM     16  C   UNL     1      -3.376   2.203  24.523  0.00  0.00    +0.169 C 
BRANCH  16  17
ATOM     17  C   UNL     1      -4.087   2.490  24.828  0.00  0.00    +0.007 A 
ATOM     18  C   UNL     1      -4.762   2.014  24.818  0.00  0.00    -0.002 A 
ATOM     19  C   UNL     1      -5.472   2.301  25.123  0.00  0.00    -0.000 A 
ATOM     20  C   UNL     1      -5.509   3.062  25.438  0.00  0.00    -0.000 A 
ATOM     21  C   UNL     1      -4.835   3.537  25.448  0.00  0.00    -0.000 A 
ATOM     22  C   UNL     1      -4.123   3.251  25.143  0.00  0.00    -0.002 A 
ENDBRANCH  16  17
ENDBRANCH  15  16
ENDBRANCH  13  15
TORSDOF 6
ENDMDL
MODEL 6
REMARK VINA RESULT:     -10.5      1.478      4.772
REMARK  Name = 
REMARK  6 active torsions:
REMARK  status: ('A' for Active; 'I' for Inactive)
REMARK    1  A    between atoms: O_2  and  C_3
REMARK    2  A    between atoms: C_6  and  C_7
REMARK    3  A    between atoms: C_7  and  N_8
REMARK    4  A    between atoms: C_13  and  O_15
REMARK    5  A    between atoms: O_15  and  C_16
REMARK    6  A    between atoms: C_16  and  C_17
REMARK                            x       y       z     vdW  Elec       q    Type
REMARK                         _______ _______ _______ _____ _____    ______ ____
ROOT
ATOM      8  N   UNL     1      -2.464   0.582  24.568  0.00  0.00    -0.265 NA
ATOM      9  C   UNL     1      -2.239  -0.112  24.954  0.00  0.00    +0.105 C 
ATOM     10  C   UNL     1      -1.579  -0.244  25.430  0.00  0.00    +0.160 C 
ATOM     11  O   UNL     1      -0.981   0.284  25.640  0.00  0.00    -0.350 OA
ATOM     12  C   UNL     1      -0.896   1.076  25.423  0.00  0.00    +0.173 C 
ATOM     13  C   UNL     1      -1.388   1.534  24.945  0.00  0.00    +0.161 C 
ATOM     14  C   UNL     1      -2.085   1.314  24.565  0.00  0.00    +0.105 C 
ENDROOT
BRANCH   8   7
ATOM      7  C   UNL     1      -3.161   0.537  24.129  0.00  0.00    +0.099 C 
BRANCH   7   6
ATOM      3  C   UNL     1      -5.237   1.577  24.986  0.00  0.00    +0.139 A 
ATOM      4  C   UNL     1      -4.988   0.847  25.280  0.00  0.00    +0.037 A 
ATOM      5  C   UNL     1      -4.297   0.501  24.995  0.00  0.00    +0.000 A 
ATOM      6  C   UNL     1      -3.853   0.883  24.414  0.00  0.00    -0.006 A 
ATOM     23  C   UNL     1      -4.101   1.614  24.120  0.00  0.00    +0.000 A 
ATOM     24  C   UNL     1      -4.792   1.960  24.405  0.00  0.00    +0.037 A 
BRANCH   3   2
ATOM      1  C   UNL     1      -5.891   2.485  25.875  0.00  0.00    +0.252 C 
ATOM      2  O   UNL     1      -5.929   1.923  25.271  0.00  0.00    -0.471 OA
ENDBRANCH   3   2
ENDBRANCH   7   6
ENDBRANCH   8   7
BRANCH  13  15
ATOM     15  O   UNL     1      -1.149   2.317  24.832  0.00  0.00    -0.347 OA
BRANCH  15  16
ATOM     16  C   UNL     1      -1.157   2.845  25.465  0.00  0.00    +0.169 C 
BRANCH  16  17
ATOM     17  C   UNL     1      -1.220   3.656  25.324  0.00  0.00    +0.007 A 
ATOM     18  C   UNL     1      -0.616   4.055  24.929  0.00  0.00    -0.002 A 
ATOM     19  C   UNL     1      -0.679   4.865  24.788  0.00  0.00    -0.000 A 
ATOM     20  C   UNL     1      -1.346   5.276  25.044  0.00  0.00    -0.000 A 
ATOM     21  C   UNL     1      -1.950   4.879  25.439  0.00  0.00    -0.000 A 
ATOM     22  C   UNL     1      -1.887   4.068  25.580  0.00  0.00    -0.002 A 
ENDBRANCH  16  17
ENDBRANCH  15  16
ENDBRANCH  13  15
TORSDOF 6
ENDMDL
