MODEL 1
REMARK VINA RESULT:      -9.7      0.000      0.000
REMARK  Name = 
REMARK  6 active torsions:
REMARK  status: ('A' for Active; 'I' for Inactive)
REMARK    1  A    between atoms: O_2  and  C_3
REMARK    2  A    between atoms: C_3  and  C_4
REMARK    3  A    between atoms: N_6  and  C_7
REMARK    4  A    between atoms: C_7  and  C_8
REMARK    5  A    between atoms: C_11  and  N_12
REMARK    6  A    between atoms: N_12  and  C_13
REMARK                            x       y       z     vdW  Elec       q    Type
REMARK                         _______ _______ _______ _____ _____    ______ ____
ROOT
ATOM      8  C   UNL     1      -3.502   1.685  24.598  0.00  0.00    +0.169 C 
ATOM      9  O   UNL     1      -2.952   1.218  24.198  0.00  0.00    -0.350 OA
ATOM     10  C   UNL     1      -3.252   0.451  24.156  0.00  0.00    +0.162 C 
ATOM     11  C   UNL     1      -3.988   0.445  24.530  0.00  0.00    +0.135 C 
ATOM     21  C   UNL     1      -4.142   1.208  24.803  0.00  0.00    +0.199 C 
ATOM     22  O   UNL     1      -4.818   1.450  25.209  0.00  0.00    -0.219 OA
ENDROOT
BRANCH   8   7
ATOM      7  C   UNL     1      -3.425   2.490  24.763  0.00  0.00    +0.147 C 
BRANCH   7   6
ATOM      4  C   UNL     1      -2.599   3.625  25.030  0.00  0.00    +0.272 C 
ATOM      5  O   UNL     1      -3.271   4.103  25.079  0.00  0.00    -0.271 OA
ATOM      6  N   UNL     1      -2.677   2.819  24.872  0.00  0.00    -0.201 NA
BRANCH   4   3
ATOM      3  C   UNL     1      -1.851   3.954  25.139  0.00  0.00    +0.229 C 
BRANCH   3   2
ATOM      1  C   UNL     1      -0.985   5.084  25.012  0.00  0.00    +0.175 C 
ATOM      2  O   UNL     1      -1.745   4.770  25.076  0.00  0.00    -0.342 OA
ENDBRANCH   3   2
ENDBRANCH   4   3
ENDBRANCH   7   6
ENDBRANCH   8   7
BRANCH  11  12
ATOM     12  N   UNL     1      -4.483  -0.211  24.615  0.00  0.00    -0.216 NA
BRANCH  12  13
ATOM     13  C   UNL     1      -4.162  -0.971  24.628  0.00  0.00    +0.073 C 
ATOM     14  C   UNL     1      -3.772  -1.242  25.301  0.00  0.00    +0.023 C 
ATOM     15  C   UNL     1      -3.451  -2.003  25.314  0.00  0.00    +0.068 C 
ATOM     16  C   UNL     1      -3.521  -2.491  24.653  0.00  0.00    +0.264 C 
ATOM     17  F   UNL     1      -3.104  -2.993  25.158  0.00  0.00    -0.204 F 
ATOM     18  F   UNL     1      -3.446  -3.153  24.167  0.00  0.00    -0.204 F 
ATOM     19  C   UNL     1      -3.912  -2.219  23.979  0.00  0.00    +0.068 C 
ATOM     20  C   UNL     1      -4.232  -1.459  23.967  0.00  0.00    +0.023 C 
ENDBRANCH  12  13
ENDBRANCH  11  12
TORSDOF 6
ENDMDL
MODEL 2
REMARK VINA RESULT:      -8.5      1.551      1.917
REMARK  Name = 
REMARK  6 active torsions:
REMARK  status: ('A' for Active; 'I' for Inactive)
REMARK    1  A    between atoms: O_2  and  C_3
REMARK    2  A    between atoms: C_3  and  C_4
REMARK    3  A    between atoms: N_6  and  C_7
REMARK    4  A    between atoms: C_7  and  C_8
REMARK    5  A    between atoms: C_11  and  N_12
REMARK    6  A    between atoms: N_12  and  C_13
REMARK                            x       y       z     vdW  Elec       q    Type
REMARK                         _______ _______ _______ _____ _____    ______ ____
ROOT
ATOM      8  C   UNL     1      -1.622   0.846  24.982  0.00  0.00    +0.169 C 
ATOM      9  O   UNL     1      -2.230   0.883  24.425  0.00  0.00    -0.350 OA
ATOM     10  C   UNL     1      -2.735   0.243  24.558  0.00  0.00    +0.162 C 
ATOM     11  C   UNL     1      -2.438  -0.188  25.195  0.00  0.00    +0.135 C 
ATOM     21  C   UNL     1      -1.750   0.185  25.457  0.00  0.00    +0.199 C 
ATOM     22  O   UNL     1      -1.274  -0.062  26.085  0.00  0.00    -0.219 OA
ENDROOT
BRANCH   8   7
ATOM      7  C   UNL     1      -0.995   1.378  25.049  0.00  0.00    +0.147 C 
BRANCH   7   6
ATOM      4  C   UNL     1      -0.488   2.709  24.933  0.00  0.00    +0.272 C 
ATOM      5  O   UNL     1       0.198   2.483  25.334  0.00  0.00    -0.271 OA
ATOM      6  N   UNL     1      -1.083   2.156  24.791  0.00  0.00    -0.201 NA
BRANCH   4   3
ATOM      3  C   UNL     1      -0.577   3.487  24.675  0.00  0.00    +0.229 C 
BRANCH   3   2
ATOM      1  C   UNL     1      -0.913   4.845  24.967  0.00  0.00    +0.175 C 
ATOM      2  O   UNL     1      -0.687   4.094  25.222  0.00  0.00    -0.342 OA
ENDBRANCH   3   2
ENDBRANCH   4   3
ENDBRANCH   7   6
ENDBRANCH   8   7
BRANCH  11  12
ATOM     12  N   UNL     1      -2.771  -0.872  25.515  0.00  0.00    -0.216 NA
BRANCH  12  13
ATOM     13  C   UNL     1      -3.166  -1.406  25.025  0.00  0.00    +0.073 C 
ATOM     14  C   UNL     1      -2.834  -2.146  24.871  0.00  0.00    +0.023 C 
ATOM     15  C   UNL     1      -3.229  -2.680  24.381  0.00  0.00    +0.068 C 
ATOM     16  C   UNL     1      -3.954  -2.475  24.046  0.00  0.00    +0.264 C 
ATOM     17  F   UNL     1      -3.864  -3.235  23.738  0.00  0.00    -0.204 F 
ATOM     18  F   UNL     1      -4.648  -2.533  23.604  0.00  0.00    -0.204 F 
ATOM     19  C   UNL     1      -4.285  -1.735  24.200  0.00  0.00    +0.068 C 
ATOM     20  C   UNL     1      -3.890  -1.201  24.690  0.00  0.00    +0.023 C 
ENDBRANCH  12  13
ENDBRANCH  11  12
TORSDOF 6
ENDMDL
MODEL 3
REMARK VINA RESULT:      -8.4      3.206      5.740
REMARK  Name = 
REMARK  6 active torsions:
REMARK  status: ('A' for Active; 'I' for Inactive)
REMARK    1  A    between atoms: O_2  and  C_3
REMARK    2  A    between atoms: C_3  and  C_4
REMARK    3  A    between atoms: N_6  and  C_7
REMARK    4  A    between atoms: C_7  and  C_8
REMARK    5  A    between atoms: C_11  and  N_12
REMARK    6  A    between atoms: N_12  and  C_13
REMARK                            x       y       z     vdW  Elec       q    Type
REMARK                         _______ _______ _______ _____ _____    ______ ____
ROOT
ATOM      8  C   UNL     1      -1.356   0.684  24.805  0.00  0.00    +0.169 C 
ATOM      9  O   UNL     1      -1.635   1.200  24.225  0.00  0.00    -0.350 OA
ATOM     10  C   UNL     1      -1.409   1.965  24.436  0.00  0.00    +0.162 C 
ATOM     11  C   UNL     1      -0.991   1.920  25.146  0.00  0.00    +0.135 C 
ATOM     21  C   UNL     1      -0.958   1.128  25.374  0.00  0.00    +0.199 C 
ATOM     22  O   UNL     1      -0.592   0.834  26.052  0.00  0.00    -0.219 OA
ENDROOT
BRANCH   8   7
ATOM      7  C   UNL     1      -1.458  -0.135  24.814  0.00  0.00    +0.147 C 
BRANCH   7   6
ATOM      4  C   UNL     1      -2.295  -1.279  24.631  0.00  0.00    +0.272 C 
ATOM      5  O   UNL     1      -1.641  -1.774  24.735  0.00  0.00    -0.271 OA
ATOM      6  N   UNL     1      -2.202  -0.460  24.671  0.00  0.00    -0.201 NA
BRANCH   4   3
ATOM      3  C   UNL     1      -3.038  -1.604  24.488  0.00  0.00    +0.229 C 
BRANCH   3   2
ATOM      1  C   UNL     1      -3.860  -2.740  24.212  0.00  0.00    +0.175 C 
ATOM      2  O   UNL     1      -3.119  -2.418  24.372  0.00  0.00    -0.342 OA
ENDBRANCH   3   2
ENDBRANCH   4   3
ENDBRANCH   7   6
ENDBRANCH   8   7
BRANCH  11  12
ATOM     12  N   UNL     1      -0.663   2.558  25.556  0.00  0.00    -0.216 NA
BRANCH  12  13
ATOM     13  C   UNL     1      -0.978   3.315  25.463  0.00  0.00    +0.073 C 
ATOM     14  C   UNL     1      -0.590   3.867  24.990  0.00  0.00    +0.023 C 
ATOM     15  C   UNL     1      -0.906   4.624  24.897  0.00  0.00    +0.068 C 
ATOM     16  C   UNL     1      -1.609   4.828  25.277  0.00  0.00    +0.264 C 
ATOM     17  F   UNL     1      -1.446   5.537  24.890  0.00  0.00    -0.204 F 
ATOM     18  F   UNL     1      -2.256   5.277  25.524  0.00  0.00    -0.204 F 
ATOM     19  C   UNL     1      -1.997   4.274  25.751  0.00  0.00    +0.068 C 
ATOM     20  C   UNL     1      -1.681   3.518  25.844  0.00  0.00    +0.023 C 
ENDBRANCH  12  13
ENDBRANCH  11  12
TORSDOF 6
ENDMDL
MODEL 4
REMARK VINA RESULT:      -8.3      3.166      3.706
REMARK  Name = 
REMARK  6 active torsions:
REMARK  status: ('A' for Active; 'I' for Inactive)
REMARK    1  A    between atoms: O_2  and  C_3
REMARK    2  A    between atoms: C_3  and  C_4
REMARK    3  A    between atoms: N_6  and  C_7
REMARK    4  A    between atoms: C_7  and  C_8
REMARK    5  A    between atoms: C_11  and  N_12
REMARK    6  A    between atoms: N_12  and  C_13
REMARK                            x       y       z     vdW  Elec       q    Type
REMARK                         _______ _______ _______ _____ _____    ______ ____
ROOT
ATOM      8  C   UNL     1      -0.582  -0.317  24.257  0.00  0.00    +0.169 C 
ATOM      9  O   UNL     1      -0.514  -1.138  24.312  0.00  0.00    -0.350 OA
ATOM     10  C   UNL     1      -1.221  -1.432  24.619  0.00  0.00    +0.162 C 
ATOM     11  C   UNL     1      -1.725  -0.793  24.755  0.00  0.00    +0.135 C 
ATOM     21  C   UNL     1      -1.330  -0.104  24.531  0.00  0.00    +0.199 C 
ATOM     22  O   UNL     1      -1.631   0.663  24.575  0.00  0.00    -0.219 OA
ENDROOT
BRANCH   8   7
ATOM      7  C   UNL     1      -0.002   0.200  23.978  0.00  0.00    +0.147 C 
BRANCH   7   6
ATOM      4  C   UNL     1       1.201   0.424  23.240  0.00  0.00    +0.272 C 
ATOM      5  O   UNL     1       1.229   1.200  23.522  0.00  0.00    -0.271 OA
ATOM      6  N   UNL     1       0.585  -0.075  23.469  0.00  0.00    -0.201 NA
BRANCH   4   3
ATOM      3  C   UNL     1       1.788   0.149  22.732  0.00  0.00    +0.229 C 
BRANCH   3   2
ATOM      1  C   UNL     1       3.151   0.165  22.301  0.00  0.00    +0.175 C 
ATOM      2  O   UNL     1       2.535   0.501  22.734  0.00  0.00    -0.342 OA
ENDBRANCH   3   2
ENDBRANCH   4   3
ENDBRANCH   7   6
ENDBRANCH   8   7
BRANCH  11  12
ATOM     12  N   UNL     1      -2.490  -0.836  25.061  0.00  0.00    -0.216 NA
BRANCH  12  13
ATOM     13  C   UNL     1      -3.034  -1.368  24.740  0.00  0.00    +0.073 C 
ATOM     14  C   UNL     1      -3.594  -1.105  24.194  0.00  0.00    +0.023 C 
ATOM     15  C   UNL     1      -4.137  -1.637  23.873  0.00  0.00    +0.068 C 
ATOM     16  C   UNL     1      -4.120  -2.430  24.098  0.00  0.00    +0.264 C 
ATOM     17  F   UNL     1      -4.751  -2.446  23.566  0.00  0.00    -0.204 F 
ATOM     18  F   UNL     1      -4.322  -3.229  24.139  0.00  0.00    -0.204 F 
ATOM     19  C   UNL     1      -3.560  -2.692  24.644  0.00  0.00    +0.068 C 
ATOM     20  C   UNL     1      -3.017  -2.161  24.965  0.00  0.00    +0.023 C 
ENDBRANCH  12  13
ENDBRANCH  11  12
TORSDOF 6
ENDMDL
MODEL 5
REMARK VINA RESULT:      -8.1      2.711      5.298
REMARK  Name = 
REMARK  6 active torsions:
REMARK  status: ('A' for Active; 'I' for Inactive)
REMARK    1  A    between atoms: O_2  and  C_3
REMARK    2  A    between atoms: C_3  and  C_4
REMARK    3  A    between atoms: N_6  and  C_7
REMARK    4  A    between atoms: C_7  and  C_8
REMARK    5  A    between atoms: C_11  and  N_12
REMARK    6  A    between atoms: N_12  and  C_13
REMARK                            x       y       z     vdW  Elec       q    Type
REMARK                         _______ _______ _______ _____ _____    ______ ____
ROOT
ATOM      8  C   UNL     1      -3.739   1.079  24.374  0.00  0.00    +0.169 C 
ATOM      9  O   UNL     1      -3.124   1.355  23.897  0.00  0.00    -0.350 OA
ATOM     10  C   UNL     1      -2.944   2.124  24.135  0.00  0.00    +0.162 C 
ATOM     11  C   UNL     1      -3.447   2.323  24.758  0.00  0.00    +0.135 C 
ATOM     21  C   UNL     1      -3.938   1.677  24.906  0.00  0.00    +0.199 C 
ATOM     22  O   UNL     1      -4.526   1.638  25.484  0.00  0.00    -0.219 OA
ENDROOT
BRANCH   8   7
ATOM      7  C   UNL     1      -4.092   0.335  24.327  0.00  0.00    +0.147 C 
BRANCH   7   6
ATOM      4  C   UNL     1      -3.972  -1.083  24.195  0.00  0.00    +0.272 C 
ATOM      5  O   UNL     1      -4.789  -1.142  24.092  0.00  0.00    -0.271 OA
ATOM      6  N   UNL     1      -3.624  -0.344  24.312  0.00  0.00    -0.201 NA
BRANCH   4   3
ATOM      3  C   UNL     1      -3.504  -1.761  24.180  0.00  0.00    +0.229 C 
BRANCH   3   2
ATOM      1  C   UNL     1      -3.327  -3.144  24.497  0.00  0.00    +0.175 C 
ATOM      2  O   UNL     1      -3.817  -2.484  24.427  0.00  0.00    -0.342 OA
ENDBRANCH   3   2
ENDBRANCH   4   3
ENDBRANCH   7   6
ENDBRANCH   8   7
BRANCH  11  12
ATOM     12  N   UNL     1      -3.456   3.043  25.162  0.00  0.00    -0.216 NA
BRANCH  12  13
ATOM     13  C   UNL     1      -2.777   3.510  25.189  0.00  0.00    +0.073 C 
ATOM     14  C   UNL     1      -2.149   3.297  25.679  0.00  0.00    +0.023 C 
ATOM     15  C   UNL     1      -1.469   3.765  25.705  0.00  0.00    +0.068 C 
ATOM     16  C   UNL     1      -1.418   4.445  25.242  0.00  0.00    +0.264 C 
ATOM     17  F   UNL     1      -0.683   4.472  25.616  0.00  0.00    -0.204 F 
ATOM     18  F   UNL     1      -1.112   5.134  24.907  0.00  0.00    -0.204 F 
ATOM     19  C   UNL     1      -2.047   4.658  24.751  0.00  0.00    +0.068 C 
ATOM     20  C   UNL     1      -2.726   4.190  24.725  0.00  0.00    +0.023 C 
ENDBRANCH  12  13
ENDBRANCH  11  12
TORSDOF 6
ENDMDL
MODEL 6
REMARK VINA RESULT:      -8.1      3.093      4.337
REMARK  Name = 
REMARK  6 active torsions:
REMARK  status: ('A' for Active; 'I' for Inactive)
REMARK    1  A    between atoms: O_2  and  C_3
REMARK    2  A    between atoms: C_3  and  C_4
REMARK    3  A    between atoms: N_6  and  C_7
REMARK    4  A    between atoms: C_7  and  C_8
REMARK    5  A    between atoms: C_11  and  N_12
REMARK    6  A    between atoms: N_12  and  C_13
REMARK                            x       y       z     vdW  Elec       q    Type
REMARK                         _______ _______ _______ _____ _____    ______ ____
ROOT
ATOM      8  C   UNL     1      -2.133   0.954  24.314  0.00  0.00    +0.169 C 
ATOM      9  O   UNL     1      -2.058   1.681  24.696  0.00  0.00    -0.350 OA
ATOM     10  C   UNL     1      -2.784   2.070  24.646  0.00  0.00    +0.162 C 
ATOM     11  C   UNL     1      -3.306   1.583  24.233  0.00  0.00    +0.135 C 
ATOM     21  C   UNL     1      -2.904   0.893  24.028  0.00  0.00    +0.199 C 
ATOM     22  O   UNL     1      -3.218   0.255  23.610  0.00  0.00    -0.219 OA
ENDROOT
BRANCH   8   7
ATOM      7  C   UNL     1      -1.539   0.386  24.232  0.00  0.00    +0.147 C 
BRANCH   7   6
ATOM      4  C   UNL     1      -0.207   0.034  23.853  0.00  0.00    +0.272 C 
ATOM      5  O   UNL     1      -0.339  -0.740  24.109  0.00  0.00    -0.271 OA
ATOM      6  N   UNL     1      -0.808   0.596  23.915  0.00  0.00    -0.201 NA
BRANCH   4   3
ATOM      3  C   UNL     1       0.524   0.244  23.537  0.00  0.00    +0.229 C 
BRANCH   3   2
ATOM      1  C   UNL     1       1.616  -0.030  22.657  0.00  0.00    +0.175 C 
ATOM      2  O   UNL     1       0.898  -0.253  22.994  0.00  0.00    -0.342 OA
ENDBRANCH   3   2
ENDBRANCH   4   3
ENDBRANCH   7   6
ENDBRANCH   8   7
BRANCH  11  12
ATOM     12  N   UNL     1      -4.094   1.757  24.057  0.00  0.00    -0.216 NA
BRANCH  12  13
ATOM     13  C   UNL     1      -4.572   2.123  24.621  0.00  0.00    +0.073 C 
ATOM     14  C   UNL     1      -5.033   1.666  25.130  0.00  0.00    +0.023 C 
ATOM     15  C   UNL     1      -5.512   2.033  25.694  0.00  0.00    +0.068 C 
ATOM     16  C   UNL     1      -5.528   2.855  25.749  0.00  0.00    +0.264 C 
ATOM     17  F   UNL     1      -6.059   2.661  26.350  0.00  0.00    -0.204 F 
ATOM     18  F   UNL     1      -5.728   3.611  26.013  0.00  0.00    -0.204 F 
ATOM     19  C   UNL     1      -5.066   3.312  25.240  0.00  0.00    +0.068 C 
ATOM     20  C   UNL     1      -4.588   2.946  24.677  0.00  0.00    +0.023 C 
ENDBRANCH  12  13
ENDBRANCH  11  12
TORSDOF 6
ENDMDL
