MODEL 1
REMARK VINA RESULT:      -8.4      0.000      0.000
REMARK  Name = 
REMARK  5 active torsions:
REMARK  status: ('A' for Active; 'I' for Inactive)
REMARK    1  A    between atoms: N_6  and  C_7
REMARK    2  A    between atoms: C_7  and  C_8
REMARK    3  A    between atoms: C_18  and  C_19
REMARK    4  A    between atoms: C_19  and  C_20
REMARK    5  A    between atoms: C_20  and  C_21
REMARK                            x       y       z     vdW  Elec       q    Type
REMARK                         _______ _______ _______ _____ _____    ______ ____
ROOT
ATOM      1  C   UNL     1      -4.267   1.740  24.270  0.00  0.00    +0.090 C 
ATOM      2  N   UNL     1      -3.505   1.668  24.580  0.00  0.00    -0.271 NA
ATOM      3  C   UNL     1      -3.115   2.378  24.737  0.00  0.00    +0.083 C 
ATOM      4  C   UNL     1      -3.448   3.120  24.600  0.00  0.00    +0.035 C 
ATOM      5  C   UNL     1      -2.897   3.692  24.822  0.00  0.00    +0.074 C 
ATOM      6  N   UNL     1      -2.223   3.303  25.098  0.00  0.00    -0.260 NA
ATOM     13  C   UNL     1      -2.358   2.491  25.045  0.00  0.00    +0.152 C 
ATOM     14  C   UNL     1      -1.805   1.923  25.272  0.00  0.00    +0.257 C 
ATOM     15  O   UNL     1      -1.089   2.215  25.562  0.00  0.00    -0.272 OA
ATOM     16  N   UNL     1      -1.871   1.101  25.247  0.00  0.00    -0.203 NA
ATOM     17  C   UNL     1      -2.508   0.644  24.989  0.00  0.00    +0.131 C 
ATOM     18  C   UNL     1      -3.235   0.897  24.692  0.00  0.00    +0.080 C 
ENDROOT
BRANCH   6   7
ATOM      7  C   UNL     1      -1.535   3.664  25.377  0.00  0.00    +0.121 C 
BRANCH   7   8
ATOM      8  C   UNL     1      -1.374   4.450  25.185  0.00  0.00    +0.105 A 
ATOM      9  C   UNL     1      -0.774   4.715  24.685  0.00  0.00    +0.074 A 
ATOM     10  S   UNL     1      -0.816   5.538  24.651  0.00  0.00    +0.038 S 
ATOM     11  N   UNL     1      -1.442   5.782  25.129  0.00  0.00    -0.110 NA
ATOM     12  N   UNL     1      -1.788   5.109  25.459  0.00  0.00    -0.143 NA
ENDBRANCH   7   8
ENDBRANCH   6   7
BRANCH  18  19
ATOM     19  C   UNL     1      -3.762   0.298  24.479  0.00  0.00    +0.027 C 
BRANCH  19  20
ATOM     20  C   UNL     1      -3.539  -0.493  24.555  0.00  0.00    +0.087 C 
BRANCH  20  21
ATOM     21  C   UNL     1      -4.032  -1.089  24.268  0.00  0.00    +0.226 C 
ATOM     22  O   UNL     1      -4.780  -0.901  23.975  0.00  0.00    -0.275 OA
ATOM     23  N   UNL     1      -3.776  -1.874  24.274  0.00  0.00    -0.274 N 
ATOM     24  C   UNL     1      -4.269  -2.470  23.987  0.00  0.00    +0.125 C 
ATOM     25  C   UNL     1      -4.013  -3.255  23.993  0.00  0.00    +0.164 C 
ATOM     26  O   UNL     1      -3.265  -3.443  24.287  0.00  0.00    -0.350 OA
ATOM     27  C   UNL     1      -2.773  -2.846  24.574  0.00  0.00    +0.164 C 
ATOM     28  C   UNL     1      -3.029  -2.062  24.567  0.00  0.00    +0.125 C 
ENDBRANCH  20  21
ENDBRANCH  19  20
ENDBRANCH  18  19
TORSDOF 5
ENDMDL
MODEL 2
REMARK VINA RESULT:      -8.1      2.167      5.759
REMARK  Name = 
REMARK  5 active torsions:
REMARK  status: ('A' for Active; 'I' for Inactive)
REMARK    1  A    between atoms: N_6  and  C_7
REMARK    2  A    between atoms: C_7  and  C_8
REMARK    3  A    between atoms: C_18  and  C_19
REMARK    4  A    between atoms: C_19  and  C_20
REMARK    5  A    between atoms: C_20  and  C_21
REMARK                            x       y       z     vdW  Elec       q    Type
REMARK                         _______ _______ _______ _____ _____    ______ ____
ROOT
ATOM      1  C   UNL     1      -4.012   1.743  24.704  0.00  0.00    +0.090 C 
ATOM      2  N   UNL     1      -3.312   1.324  24.836  0.00  0.00    -0.271 NA
ATOM      3  C   UNL     1      -3.354   0.510  24.713  0.00  0.00    +0.083 C 
ATOM      4  C   UNL     1      -4.042   0.121  24.474  0.00  0.00    +0.035 C 
ATOM      5  C   UNL     1      -3.871  -0.684  24.410  0.00  0.00    +0.074 C 
ATOM      6  N   UNL     1      -3.077  -0.792  24.609  0.00  0.00    -0.260 NA
ATOM     13  C   UNL     1      -2.758  -0.054  24.797  0.00  0.00    +0.152 C 
ATOM     14  C   UNL     1      -1.973   0.057  25.024  0.00  0.00    +0.257 C 
ATOM     15  O   UNL     1      -1.510  -0.626  25.056  0.00  0.00    -0.272 OA
ATOM     16  N   UNL     1      -1.590   0.759  25.224  0.00  0.00    -0.203 NA
ATOM     17  C   UNL     1      -1.898   1.525  25.246  0.00  0.00    +0.131 C 
ATOM     18  C   UNL     1      -2.665   1.776  25.073  0.00  0.00    +0.080 C 
ENDROOT
BRANCH   6   7
ATOM      7  C   UNL     1      -2.674  -1.512  24.619  0.00  0.00    +0.121 C 
BRANCH   7   8
ATOM      8  C   UNL     1      -3.094  -2.221  24.589  0.00  0.00    +0.105 A 
ATOM      9  C   UNL     1      -3.301  -2.633  23.905  0.00  0.00    +0.074 A 
ATOM     10  S   UNL     1      -3.717  -3.309  24.132  0.00  0.00    +0.038 S 
ATOM     11  N   UNL     1      -3.767  -3.314  24.955  0.00  0.00    -0.110 NA
ATOM     12  N   UNL     1      -3.382  -2.641  25.238  0.00  0.00    -0.143 NA
ENDBRANCH   7   8
ENDBRANCH   6   7
BRANCH  18  19
ATOM     19  C   UNL     1      -2.801   2.587  25.148  0.00  0.00    +0.027 C 
BRANCH  19  20
ATOM     20  C   UNL     1      -2.166   3.102  25.258  0.00  0.00    +0.087 C 
BRANCH  20  21
ATOM     21  C   UNL     1      -2.303   3.910  25.356  0.00  0.00    +0.226 C 
ATOM     22  O   UNL     1      -3.023   4.172  25.664  0.00  0.00    -0.275 OA
ATOM     23  N   UNL     1      -1.721   4.455  25.147  0.00  0.00    -0.274 N 
ATOM     24  C   UNL     1      -1.858   5.263  25.245  0.00  0.00    +0.125 C 
ATOM     25  C   UNL     1      -1.276   5.809  25.035  0.00  0.00    +0.164 C 
ATOM     26  O   UNL     1      -0.556   5.547  24.727  0.00  0.00    -0.350 OA
ATOM     27  C   UNL     1      -0.419   4.739  24.630  0.00  0.00    +0.164 C 
ATOM     28  C   UNL     1      -1.002   4.194  24.839  0.00  0.00    +0.125 C 
ENDBRANCH  20  21
ENDBRANCH  19  20
ENDBRANCH  18  19
TORSDOF 5
ENDMDL
MODEL 3
REMARK VINA RESULT:      -8.0      2.882      4.607
REMARK  Name = 
REMARK  5 active torsions:
REMARK  status: ('A' for Active; 'I' for Inactive)
REMARK    1  A    between atoms: N_6  and  C_7
REMARK    2  A    between atoms: C_7  and  C_8
REMARK    3  A    between atoms: C_18  and  C_19
REMARK    4  A    between atoms: C_19  and  C_20
REMARK    5  A    between atoms: C_20  and  C_21
REMARK                            x       y       z     vdW  Elec       q    Type
REMARK                         _______ _______ _______ _____ _____    ______ ____
ROOT
ATOM      1  C   UNL     1      -0.984   2.970  24.647  0.00  0.00    +0.090 C 
ATOM      2  N   UNL     1      -1.100   2.156  24.570  0.00  0.00    -0.271 NA
ATOM      3  C   UNL     1      -0.465   1.733  24.256  0.00  0.00    +0.083 C 
ATOM      4  C   UNL     1       0.247   2.084  24.029  0.00  0.00    +0.035 C 
ATOM      5  C   UNL     1       0.744   1.490  23.745  0.00  0.00    +0.074 C 
ATOM      6  N   UNL     1       0.340   0.773  23.795  0.00  0.00    -0.260 NA
ATOM     13  C   UNL     1      -0.408   0.923  24.112  0.00  0.00    +0.152 C 
ATOM     14  C   UNL     1      -0.972   0.336  24.245  0.00  0.00    +0.257 C 
ATOM     15  O   UNL     1      -0.745  -0.431  24.040  0.00  0.00    -0.272 OA
ATOM     16  N   UNL     1      -1.732   0.414  24.555  0.00  0.00    -0.203 NA
ATOM     17  C   UNL     1      -2.116   1.099  24.810  0.00  0.00    +0.131 C 
ATOM     18  C   UNL     1      -1.834   1.874  24.816  0.00  0.00    +0.080 C 
ENDROOT
BRANCH   6   7
ATOM      7  C   UNL     1       0.631   0.034  23.570  0.00  0.00    +0.121 C 
BRANCH   7   8
ATOM      8  C   UNL     1       1.264  -0.015  23.042  0.00  0.00    +0.105 A 
ATOM      9  C   UNL     1       2.064   0.023  23.239  0.00  0.00    +0.074 A 
ATOM     10  S   UNL     1       2.501  -0.050  22.544  0.00  0.00    +0.038 S 
ATOM     11  N   UNL     1       1.972  -0.134  21.917  0.00  0.00    -0.110 NA
ATOM     12  N   UNL     1       1.206  -0.112  22.225  0.00  0.00    -0.143 NA
ENDBRANCH   7   8
ENDBRANCH   6   7
BRANCH  18  19
ATOM     19  C   UNL     1      -2.358   2.442  25.107  0.00  0.00    +0.027 C 
BRANCH  19  20
ATOM     20  C   UNL     1      -3.172   2.313  25.063  0.00  0.00    +0.087 C 
BRANCH  20  21
ATOM     21  C   UNL     1      -3.694   2.867  25.380  0.00  0.00    +0.226 C 
ATOM     22  O   UNL     1      -3.403   3.552  25.737  0.00  0.00    -0.275 OA
ATOM     23  N   UNL     1      -4.508   2.736  25.340  0.00  0.00    -0.274 N 
ATOM     24  C   UNL     1      -5.031   3.291  25.657  0.00  0.00    +0.125 C 
ATOM     25  C   UNL     1      -5.844   3.160  25.617  0.00  0.00    +0.164 C 
ATOM     26  O   UNL     1      -6.135   2.475  25.260  0.00  0.00    -0.350 OA
ATOM     27  C   UNL     1      -5.613   1.921  24.944  0.00  0.00    +0.164 C 
ATOM     28  C   UNL     1      -4.799   2.052  24.984  0.00  0.00    +0.125 C 
ENDBRANCH  20  21
ENDBRANCH  19  20
ENDBRANCH  18  19
TORSDOF 5
ENDMDL
MODEL 4
REMARK VINA RESULT:      -7.9      2.907      4.493
REMARK  Name = 
REMARK  5 active torsions:
REMARK  status: ('A' for Active; 'I' for Inactive)
REMARK    1  A    between atoms: N_6  and  C_7
REMARK    2  A    between atoms: C_7  and  C_8
REMARK    3  A    between atoms: C_18  and  C_19
REMARK    4  A    between atoms: C_19  and  C_20
REMARK    5  A    between atoms: C_20  and  C_21
REMARK                            x       y       z     vdW  Elec       q    Type
REMARK                         _______ _______ _______ _____ _____    ______ ____
ROOT
ATOM      1  C   UNL     1      -1.462   2.668  23.905  0.00  0.00    +0.090 C 
ATOM      2  N   UNL     1      -1.757   1.964  24.219  0.00  0.00    -0.271 NA
ATOM      3  C   UNL     1      -2.569   1.949  24.362  0.00  0.00    +0.083 C 
ATOM      4  C   UNL     1      -3.070   2.586  24.208  0.00  0.00    +0.035 C 
ATOM      5  C   UNL     1      -3.836   2.366  24.421  0.00  0.00    +0.074 C 
ATOM      6  N   UNL     1      -3.809   1.592  24.706  0.00  0.00    -0.260 NA
ATOM     13  C   UNL     1      -3.025   1.334  24.670  0.00  0.00    +0.152 C 
ATOM     14  C   UNL     1      -2.782   0.584  24.910  0.00  0.00    +0.257 C 
ATOM     15  O   UNL     1      -3.378   0.089  25.197  0.00  0.00    -0.272 OA
ATOM     16  N   UNL     1      -2.023   0.262  24.902  0.00  0.00    -0.203 NA
ATOM     17  C   UNL     1      -1.319   0.612  24.651  0.00  0.00    +0.131 C 
ATOM     18  C   UNL     1      -1.200   1.369  24.347  0.00  0.00    +0.080 C 
ENDROOT
BRANCH   6   7
ATOM      7  C   UNL     1      -4.452   1.153  24.980  0.00  0.00    +0.121 C 
BRANCH   7   8
ATOM      8  C   UNL     1      -5.178   1.523  25.110  0.00  0.00    +0.105 A 
ATOM      9  C   UNL     1      -5.406   1.914  25.799  0.00  0.00    +0.074 A 
ATOM     10  S   UNL     1      -6.172   2.199  25.688  0.00  0.00    +0.038 S 
ATOM     11  N   UNL     1      -6.418   1.983  24.930  0.00  0.00    -0.110 NA
ATOM     12  N   UNL     1      -5.802   1.565  24.573  0.00  0.00    -0.143 NA
ENDBRANCH   7   8
ENDBRANCH   6   7
BRANCH  18  19
ATOM     19  C   UNL     1      -0.422   1.556  24.145  0.00  0.00    +0.027 C 
BRANCH  19  20
ATOM     20  C   UNL     1       0.082   0.967  23.861  0.00  0.00    +0.087 C 
BRANCH  20  21
ATOM     21  C   UNL     1       0.889   1.120  23.780  0.00  0.00    +0.226 C 
ATOM     22  O   UNL     1       1.241   1.726  24.217  0.00  0.00    -0.275 OA
ATOM     23  N   UNL     1       1.343   0.668  23.261  0.00  0.00    -0.274 N 
ATOM     24  C   UNL     1       2.150   0.821  23.179  0.00  0.00    +0.125 C 
ATOM     25  C   UNL     1       2.605   0.368  22.660  0.00  0.00    +0.164 C 
ATOM     26  O   UNL     1       2.253  -0.237  22.223  0.00  0.00    -0.350 OA
ATOM     27  C   UNL     1       1.447  -0.389  22.305  0.00  0.00    +0.164 C 
ATOM     28  C   UNL     1       0.992   0.063  22.824  0.00  0.00    +0.125 C 
ENDBRANCH  20  21
ENDBRANCH  19  20
ENDBRANCH  18  19
TORSDOF 5
ENDMDL
