MODEL 1
REMARK VINA RESULT:     -14.2      0.000      0.000
REMARK  Name = 
REMARK  3 active torsions:
REMARK  status: ('A' for Active; 'I' for Inactive)
REMARK    1  A    between atoms: C_2  and  C_5
REMARK    2  A    between atoms: C_9  and  C_11
REMARK    3  A    between atoms: C_26  and  C_28
REMARK                            x       y       z     vdW  Elec       q    Type
REMARK                         _______ _______ _______ _____ _____    ______ ____
ROOT
ATOM     11  C   UNL     1      -4.131  -0.634  24.569  0.00  0.00    +0.000 A 
ATOM     12  C   UNL     1      -3.564  -0.036  24.530  0.00  0.00    +0.006 A 
ATOM     13  C   UNL     1      -3.757   0.730  24.771  0.00  0.00    +0.069 A 
ATOM     14  C   UNL     1      -4.515   0.896  25.050  0.00  0.00    +0.078 A 
ATOM     15  N   UNL     1      -4.818   1.616  25.316  0.00  0.00    -0.178 NA
ATOM     16  C   UNL     1      -4.438   2.347  25.367  0.00  0.00    +0.265 C 
ATOM     17  O   UNL     1      -4.896   2.968  25.658  0.00  0.00    -0.271 OA
ATOM     18  C   UNL     1      -3.662   2.538  25.166  0.00  0.00    +0.174 C 
ATOM     19  C   UNL     1      -3.502   3.336  25.303  0.00  0.00    +0.123 C 
ATOM     20  N   UNL     1      -2.754   3.642  25.138  0.00  0.00    -0.272 N 
ATOM     21  C   UNL     1      -2.165   3.150  24.835  0.00  0.00    +0.115 C 
ATOM     22  C   UNL     1      -2.324   2.352  24.698  0.00  0.00    +0.116 C 
ATOM     23  N   UNL     1      -3.072   2.047  24.863  0.00  0.00    -0.266 N 
ATOM     24  C   UNL     1      -3.115   1.241  24.687  0.00  0.00    +0.251 C 
ATOM     25  O   UNL     1      -2.424   0.903  24.389  0.00  0.00    -0.270 OA
ATOM     26  C   UNL     1      -2.595   4.440  25.275  0.00  0.00    +0.249 C 
ATOM     27  O   UNL     1      -3.185   4.932  25.578  0.00  0.00    -0.270 OA
ATOM     34  C   UNL     1      -5.081   0.298  25.089  0.00  0.00    +0.017 A 
ATOM     35  C   UNL     1      -4.889  -0.468  24.848  0.00  0.00    +0.001 A 
ENDROOT
BRANCH  11   9
ATOM      5  C   UNL     1      -3.053  -2.520  24.356  0.00  0.00    +0.071 A 
ATOM      6  C   UNL     1      -3.556  -2.931  23.847  0.00  0.00    +0.004 A 
ATOM      7  C   UNL     1      -4.251  -2.576  23.579  0.00  0.00    -0.000 A 
ATOM      8  C   UNL     1      -4.443  -1.810  23.819  0.00  0.00    -0.000 A 
ATOM      9  C   UNL     1      -3.940  -1.400  24.328  0.00  0.00    -0.000 A 
ATOM     10  C   UNL     1      -3.244  -1.755  24.596  0.00  0.00    +0.004 A 
BRANCH   5   2
ATOM      1  F   UNL     1      -1.662  -3.229  24.891  0.00  0.00    -0.166 F 
ATOM      2  C   UNL     1      -2.358  -2.875  24.624  0.00  0.00    +0.419 C 
ATOM      3  F   UNL     1      -2.726  -3.058  25.339  0.00  0.00    -0.166 F 
ATOM      4  F   UNL     1      -1.989  -2.692  23.908  0.00  0.00    -0.166 F 
ENDBRANCH   5   2
ENDBRANCH  11   9
BRANCH  26  28
ATOM     28  C   UNL     1      -1.847   4.745  25.109  0.00  0.00    +0.054 A 
ATOM     29  C   UNL     1      -1.767   5.382  24.591  0.00  0.00    +0.005 A 
ATOM     30  C   UNL     1      -1.019   5.688  24.425  0.00  0.00    +0.000 A 
ATOM     31  C   UNL     1      -0.351   5.357  24.778  0.00  0.00    +0.000 A 
ATOM     32  C   UNL     1      -0.431   4.721  25.296  0.00  0.00    +0.000 A 
ATOM     33  C   UNL     1      -1.179   4.415  25.462  0.00  0.00    +0.005 A 
ENDBRANCH  26  28
TORSDOF 3
ENDMDL
MODEL 2
REMARK VINA RESULT:     -13.6      2.927      6.398
REMARK  Name = 
REMARK  3 active torsions:
REMARK  status: ('A' for Active; 'I' for Inactive)
REMARK    1  A    between atoms: C_2  and  C_5
REMARK    2  A    between atoms: C_9  and  C_11
REMARK    3  A    between atoms: C_26  and  C_28
REMARK                            x       y       z     vdW  Elec       q    Type
REMARK                         _______ _______ _______ _____ _____    ______ ____
ROOT
ATOM     11  C   UNL     1      -0.784   3.038  24.778  0.00  0.00    +0.000 A 
ATOM     12  C   UNL     1      -1.313   2.405  24.794  0.00  0.00    +0.006 A 
ATOM     13  C   UNL     1      -1.043   1.638  24.650  0.00  0.00    +0.069 A 
ATOM     14  C   UNL     1      -0.245   1.505  24.490  0.00  0.00    +0.078 A 
ATOM     15  N   UNL     1       0.135   0.790  24.333  0.00  0.00    -0.178 NA
ATOM     16  C   UNL     1      -0.188   0.032  24.296  0.00  0.00    +0.265 C 
ATOM     17  O   UNL     1       0.342  -0.576  24.125  0.00  0.00    -0.271 OA
ATOM     18  C   UNL     1      -0.973  -0.198  24.408  0.00  0.00    +0.174 C 
ATOM     19  C   UNL     1      -1.063  -1.014  24.323  0.00  0.00    +0.123 C 
ATOM     20  N   UNL     1      -1.806  -1.358  24.413  0.00  0.00    -0.272 N 
ATOM     21  C   UNL     1      -2.461  -0.888  24.589  0.00  0.00    +0.115 C 
ATOM     22  C   UNL     1      -2.371  -0.071  24.675  0.00  0.00    +0.116 C 
ATOM     23  N   UNL     1      -1.627   0.272  24.584  0.00  0.00    -0.266 N 
ATOM     24  C   UNL     1      -1.658   1.090  24.692  0.00  0.00    +0.251 C 
ATOM     25  O   UNL     1      -2.403   1.400  24.864  0.00  0.00    -0.270 OA
ATOM     26  C   UNL     1      -1.897  -2.174  24.328  0.00  0.00    +0.249 C 
ATOM     27  O   UNL     1      -1.242  -2.645  24.151  0.00  0.00    -0.270 OA
ATOM     34  C   UNL     1       0.284   2.138  24.474  0.00  0.00    +0.017 A 
ATOM     35  C   UNL     1       0.015   2.905  24.618  0.00  0.00    +0.001 A 
ENDROOT
BRANCH  11   9
ATOM      5  C   UNL     1      -2.048   4.689  25.440  0.00  0.00    +0.071 A 
ATOM      6  C   UNL     1      -1.592   5.337  25.210  0.00  0.00    +0.004 A 
ATOM      7  C   UNL     1      -0.866   5.218  24.836  0.00  0.00    -0.000 A 
ATOM      8  C   UNL     1      -0.596   4.452  24.692  0.00  0.00    -0.000 A 
ATOM      9  C   UNL     1      -1.053   3.804  24.922  0.00  0.00    -0.000 A 
ATOM     10  C   UNL     1      -1.779   3.923  25.296  0.00  0.00    +0.004 A 
BRANCH   5   2
ATOM      1  F   UNL     1      -3.499   4.926  26.190  0.00  0.00    -0.166 F 
ATOM      2  C   UNL     1      -2.774   4.808  25.814  0.00  0.00    +0.419 C 
ATOM      3  F   UNL     1      -3.148   4.839  25.080  0.00  0.00    -0.166 F 
ATOM      4  F   UNL     1      -2.399   4.776  26.550  0.00  0.00    -0.166 F 
ENDBRANCH   5   2
ENDBRANCH  11   9
BRANCH  26  28
ATOM     28  C   UNL     1      -2.640  -2.518  24.418  0.00  0.00    +0.054 A 
ATOM     29  C   UNL     1      -3.149  -2.577  23.771  0.00  0.00    +0.005 A 
ATOM     30  C   UNL     1      -3.894  -2.921  23.861  0.00  0.00    +0.000 A 
ATOM     31  C   UNL     1      -4.129  -3.207  24.598  0.00  0.00    +0.000 A 
ATOM     32  C   UNL     1      -3.621  -3.149  25.244  0.00  0.00    +0.000 A 
ATOM     33  C   UNL     1      -2.876  -2.804  25.155  0.00  0.00    +0.005 A 
ENDBRANCH  26  28
TORSDOF 3
ENDMDL
MODEL 3
REMARK VINA RESULT:     -13.2      1.797      2.674
REMARK  Name = 
REMARK  3 active torsions:
REMARK  status: ('A' for Active; 'I' for Inactive)
REMARK    1  A    between atoms: C_2  and  C_5
REMARK    2  A    between atoms: C_9  and  C_11
REMARK    3  A    between atoms: C_26  and  C_28
REMARK                            x       y       z     vdW  Elec       q    Type
REMARK                         _______ _______ _______ _____ _____    ______ ____
ROOT
ATOM     11  C   UNL     1      -1.989  -1.362  24.711  0.00  0.00    +0.000 A 
ATOM     12  C   UNL     1      -2.173  -0.564  24.805  0.00  0.00    +0.006 A 
ATOM     13  C   UNL     1      -1.578   0.005  24.744  0.00  0.00    +0.069 A 
ATOM     14  C   UNL     1      -0.801  -0.225  24.588  0.00  0.00    +0.078 A 
ATOM     15  N   UNL     1      -0.131   0.250  24.506  0.00  0.00    -0.178 NA
ATOM     16  C   UNL     1      -0.073   1.071  24.560  0.00  0.00    +0.265 C 
ATOM     17  O   UNL     1       0.683   1.384  24.450  0.00  0.00    -0.271 OA
ATOM     18  C   UNL     1      -0.670   1.621  24.708  0.00  0.00    +0.174 C 
ATOM     19  C   UNL     1      -0.375   2.392  24.715  0.00  0.00    +0.123 C 
ATOM     20  N   UNL     1      -0.883   3.026  24.855  0.00  0.00    -0.272 N 
ATOM     21  C   UNL     1      -1.685   2.891  24.987  0.00  0.00    +0.115 C 
ATOM     22  C   UNL     1      -1.981   2.120  24.979  0.00  0.00    +0.116 C 
ATOM     23  N   UNL     1      -1.472   1.486  24.840  0.00  0.00    -0.266 N 
ATOM     24  C   UNL     1      -1.877   0.766  24.856  0.00  0.00    +0.251 C 
ATOM     25  O   UNL     1      -2.687   0.814  25.003  0.00  0.00    -0.270 OA
ATOM     26  C   UNL     1      -0.588   3.797  24.862  0.00  0.00    +0.249 C 
ATOM     27  O   UNL     1       0.216   3.932  24.730  0.00  0.00    -0.270 OA
ATOM     34  C   UNL     1      -0.619  -1.023  24.494  0.00  0.00    +0.017 A 
ATOM     35  C   UNL     1      -1.213  -1.593  24.555  0.00  0.00    +0.001 A 
ENDROOT
BRANCH  11   9
ATOM      5  C   UNL     1      -3.788  -2.521  24.278  0.00  0.00    +0.071 A 
ATOM      6  C   UNL     1      -3.772  -3.070  24.893  0.00  0.00    +0.004 A 
ATOM      7  C   UNL     1      -3.161  -3.050  25.449  0.00  0.00    -0.000 A 
ATOM      8  C   UNL     1      -2.567  -2.480  25.387  0.00  0.00    -0.000 A 
ATOM      9  C   UNL     1      -2.583  -1.932  24.772  0.00  0.00    -0.000 A 
ATOM     10  C   UNL     1      -3.194  -1.952  24.217  0.00  0.00    +0.004 A 
BRANCH   5   2
ATOM      1  F   UNL     1      -5.008  -2.562  23.167  0.00  0.00    -0.166 F 
ATOM      2  C   UNL     1      -4.398  -2.541  23.723  0.00  0.00    +0.419 C 
ATOM      3  F   UNL     1      -4.694  -1.832  24.021  0.00  0.00    -0.166 F 
ATOM      4  F   UNL     1      -4.102  -3.252  23.424  0.00  0.00    -0.166 F 
ENDBRANCH   5   2
ENDBRANCH  11   9
BRANCH  26  28
ATOM     28  C   UNL     1      -1.096   4.431  25.001  0.00  0.00    +0.054 A 
ATOM     29  C   UNL     1      -1.083   5.088  24.501  0.00  0.00    +0.005 A 
ATOM     30  C   UNL     1      -1.592   5.723  24.640  0.00  0.00    +0.000 A 
ATOM     31  C   UNL     1      -2.113   5.701  25.279  0.00  0.00    +0.000 A 
ATOM     32  C   UNL     1      -2.126   5.045  25.779  0.00  0.00    +0.000 A 
ATOM     33  C   UNL     1      -1.617   4.410  25.640  0.00  0.00    +0.005 A 
ENDBRANCH  26  28
TORSDOF 3
ENDMDL
MODEL 4
REMARK VINA RESULT:     -12.5      2.445      5.852
REMARK  Name = 
REMARK  3 active torsions:
REMARK  status: ('A' for Active; 'I' for Inactive)
REMARK    1  A    between atoms: C_2  and  C_5
REMARK    2  A    between atoms: C_9  and  C_11
REMARK    3  A    between atoms: C_26  and  C_28
REMARK                            x       y       z     vdW  Elec       q    Type
REMARK                         _______ _______ _______ _____ _____    ______ ____
ROOT
ATOM     11  C   UNL     1      -2.980   3.798  24.931  0.00  0.00    +0.000 A 
ATOM     12  C   UNL     1      -2.790   2.996  24.892  0.00  0.00    +0.006 A 
ATOM     13  C   UNL     1      -3.390   2.433  24.820  0.00  0.00    +0.069 A 
ATOM     14  C   UNL     1      -4.178   2.674  24.787  0.00  0.00    +0.078 A 
ATOM     15  N   UNL     1      -4.855   2.207  24.716  0.00  0.00    -0.178 NA
ATOM     16  C   UNL     1      -4.911   1.385  24.660  0.00  0.00    +0.265 C 
ATOM     17  O   UNL     1      -5.675   1.082  24.594  0.00  0.00    -0.271 OA
ATOM     18  C   UNL     1      -4.303   0.828  24.662  0.00  0.00    +0.174 C 
ATOM     19  C   UNL     1      -4.598   0.060  24.595  0.00  0.00    +0.123 C 
ATOM     20  N   UNL     1      -4.079  -0.581  24.585  0.00  0.00    -0.272 N 
ATOM     21  C   UNL     1      -3.266  -0.456  24.643  0.00  0.00    +0.115 C 
ATOM     22  C   UNL     1      -2.971   0.312  24.710  0.00  0.00    +0.116 C 
ATOM     23  N   UNL     1      -3.490   0.953  24.719  0.00  0.00    -0.266 N 
ATOM     24  C   UNL     1      -3.083   1.668  24.789  0.00  0.00    +0.251 C 
ATOM     25  O   UNL     1      -2.262   1.610  24.836  0.00  0.00    -0.270 OA
ATOM     26  C   UNL     1      -4.374  -1.349  24.519  0.00  0.00    +0.249 C 
ATOM     27  O   UNL     1      -5.188  -1.474  24.461  0.00  0.00    -0.270 OA
ATOM     34  C   UNL     1      -4.368   3.475  24.826  0.00  0.00    +0.017 A 
ATOM     35  C   UNL     1      -3.768   4.038  24.899  0.00  0.00    +0.001 A 
ENDROOT
BRANCH  11   9
ATOM      5  C   UNL     1      -1.011   4.737  24.843  0.00  0.00    +0.071 A 
ATOM      6  C   UNL     1      -1.181   5.484  25.148  0.00  0.00    +0.004 A 
ATOM      7  C   UNL     1      -1.951   5.670  25.381  0.00  0.00    -0.000 A 
ATOM      8  C   UNL     1      -2.551   5.107  25.308  0.00  0.00    -0.000 A 
ATOM      9  C   UNL     1      -2.381   4.360  25.004  0.00  0.00    -0.000 A 
ATOM     10  C   UNL     1      -1.610   4.174  24.771  0.00  0.00    +0.004 A 
BRANCH   5   2
ATOM      1  F   UNL     1       0.528   4.365  24.378  0.00  0.00    -0.166 F 
ATOM      2  C   UNL     1      -0.242   4.551  24.610  0.00  0.00    +0.419 C 
ATOM      3  F   UNL     1      -0.354   4.966  23.906  0.00  0.00    -0.166 F 
ATOM      4  F   UNL     1      -0.129   4.136  25.315  0.00  0.00    -0.166 F 
ENDBRANCH   5   2
ENDBRANCH  11   9
BRANCH  26  28
ATOM     28  C   UNL     1      -3.856  -1.990  24.509  0.00  0.00    +0.054 A 
ATOM     29  C   UNL     1      -3.558  -2.290  25.218  0.00  0.00    +0.005 A 
ATOM     30  C   UNL     1      -3.039  -2.932  25.210  0.00  0.00    +0.000 A 
ATOM     31  C   UNL     1      -2.819  -3.274  24.492  0.00  0.00    +0.000 A 
ATOM     32  C   UNL     1      -3.117  -2.974  23.784  0.00  0.00    +0.000 A 
ATOM     33  C   UNL     1      -3.635  -2.333  23.792  0.00  0.00    +0.005 A 
ENDBRANCH  26  28
TORSDOF 3
ENDMDL
MODEL 5
REMARK VINA RESULT:     -11.7      3.534      4.933
REMARK  Name = 
REMARK  3 active torsions:
REMARK  status: ('A' for Active; 'I' for Inactive)
REMARK    1  A    between atoms: C_2  and  C_5
REMARK    2  A    between atoms: C_9  and  C_11
REMARK    3  A    between atoms: C_26  and  C_28
REMARK                            x       y       z     vdW  Elec       q    Type
REMARK                         _______ _______ _______ _____ _____    ______ ____
ROOT
ATOM     11  C   UNL     1      -4.101   0.807  25.068  0.00  0.00    +0.000 A 
ATOM     12  C   UNL     1      -3.378   0.951  24.698  0.00  0.00    +0.006 A 
ATOM     13  C   UNL     1      -2.785   0.376  24.716  0.00  0.00    +0.069 A 
ATOM     14  C   UNL     1      -2.917  -0.340  25.103  0.00  0.00    +0.078 A 
ATOM     15  N   UNL     1      -2.404  -0.982  25.185  0.00  0.00    -0.178 NA
ATOM     16  C   UNL     1      -1.634  -1.065  24.900  0.00  0.00    +0.265 C 
ATOM     17  O   UNL     1      -1.263  -1.780  25.076  0.00  0.00    -0.271 OA
ATOM     18  C   UNL     1      -1.186  -0.527  24.464  0.00  0.00    +0.174 C 
ATOM     19  C   UNL     1      -0.438  -0.829  24.290  0.00  0.00    +0.123 C 
ATOM     20  N   UNL     1       0.098  -0.377  23.857  0.00  0.00    -0.272 N 
ATOM     21  C   UNL     1      -0.113   0.377  23.596  0.00  0.00    +0.115 C 
ATOM     22  C   UNL     1      -0.861   0.679  23.770  0.00  0.00    +0.116 C 
ATOM     23  N   UNL     1      -1.397   0.227  24.204  0.00  0.00    -0.266 N 
ATOM     24  C   UNL     1      -2.109   0.629  24.316  0.00  0.00    +0.251 C 
ATOM     25  O   UNL     1      -2.150   1.383  23.985  0.00  0.00    -0.270 OA
ATOM     26  C   UNL     1       0.847  -0.678  23.683  0.00  0.00    +0.249 C 
ATOM     27  O   UNL     1       1.058  -1.433  23.943  0.00  0.00    -0.270 OA
ATOM     34  C   UNL     1      -3.640  -0.483  25.472  0.00  0.00    +0.017 A 
ATOM     35  C   UNL     1      -4.233   0.091  25.454  0.00  0.00    +0.001 A 
ENDROOT
BRANCH  11   9
ATOM      5  C   UNL     1      -5.123   2.724  25.286  0.00  0.00    +0.071 A 
ATOM      6  C   UNL     1      -5.878   2.530  25.017  0.00  0.00    +0.004 A 
ATOM      7  C   UNL     1      -6.041   1.761  24.764  0.00  0.00    -0.000 A 
ATOM      8  C   UNL     1      -5.448   1.187  24.782  0.00  0.00    -0.000 A 
ATOM      9  C   UNL     1      -4.694   1.381  25.051  0.00  0.00    -0.000 A 
ATOM     10  C   UNL     1      -4.530   2.150  25.303  0.00  0.00    +0.004 A 
BRANCH   5   2
ATOM      1  F   UNL     1      -4.797   4.261  25.792  0.00  0.00    -0.166 F 
ATOM      2  C   UNL     1      -4.960   3.492  25.538  0.00  0.00    +0.419 C 
ATOM      3  F   UNL     1      -4.775   3.708  24.764  0.00  0.00    -0.166 F 
ATOM      4  F   UNL     1      -5.144   3.277  26.314  0.00  0.00    -0.166 F 
ENDBRANCH   5   2
ENDBRANCH  11   9
BRANCH  26  28
ATOM     28  C   UNL     1       1.383  -0.226  23.249  0.00  0.00    +0.054 A 
ATOM     29  C   UNL     1       1.509  -0.390  22.450  0.00  0.00    +0.005 A 
ATOM     30  C   UNL     1       2.046   0.062  22.015  0.00  0.00    +0.000 A 
ATOM     31  C   UNL     1       2.455   0.678  22.380  0.00  0.00    +0.000 A 
ATOM     32  C   UNL     1       2.329   0.842  23.178  0.00  0.00    +0.000 A 
ATOM     33  C   UNL     1       1.793   0.390  23.613  0.00  0.00    +0.005 A 
ENDBRANCH  26  28
TORSDOF 3
ENDMDL
MODEL 6
REMARK VINA RESULT:     -11.2      3.780      4.868
REMARK  Name = 
REMARK  3 active torsions:
REMARK  status: ('A' for Active; 'I' for Inactive)
REMARK    1  A    between atoms: C_2  and  C_5
REMARK    2  A    between atoms: C_9  and  C_11
REMARK    3  A    between atoms: C_26  and  C_28
REMARK                            x       y       z     vdW  Elec       q    Type
REMARK                         _______ _______ _______ _____ _____    ______ ____
ROOT
ATOM     11  C   UNL     1       0.923  -0.186  23.239  0.00  0.00    +0.000 A 
ATOM     12  C   UNL     1       0.363   0.416  23.309  0.00  0.00    +0.006 A 
ATOM     13  C   UNL     1      -0.316   0.296  23.763  0.00  0.00    +0.069 A 
ATOM     14  C   UNL     1      -0.433  -0.426  24.146  0.00  0.00    +0.078 A 
ATOM     15  N   UNL     1      -1.067  -0.658  24.621  0.00  0.00    -0.178 NA
ATOM     16  C   UNL     1      -1.738  -0.226  24.832  0.00  0.00    +0.265 C 
ATOM     17  O   UNL     1      -2.276  -0.616  25.320  0.00  0.00    -0.271 OA
ATOM     18  C   UNL     1      -1.941   0.544  24.618  0.00  0.00    +0.174 C 
ATOM     19  C   UNL     1      -2.664   0.768  24.949  0.00  0.00    +0.123 C 
ATOM     20  N   UNL     1      -2.968   1.520  24.804  0.00  0.00    -0.272 N 
ATOM     21  C   UNL     1      -2.552   2.049  24.328  0.00  0.00    +0.115 C 
ATOM     22  C   UNL     1      -1.829   1.826  23.996  0.00  0.00    +0.116 C 
ATOM     23  N   UNL     1      -1.525   1.073  24.142  0.00  0.00    -0.266 N 
ATOM     24  C   UNL     1      -0.801   0.962  23.762  0.00  0.00    +0.251 C 
ATOM     25  O   UNL     1      -0.526   1.604  23.321  0.00  0.00    -0.270 OA
ATOM     26  C   UNL     1      -3.691   1.744  25.134  0.00  0.00    +0.249 C 
ATOM     27  O   UNL     1      -4.107   1.214  25.611  0.00  0.00    -0.270 OA
ATOM     34  C   UNL     1       0.127  -1.027  24.075  0.00  0.00    +0.017 A 
ATOM     35  C   UNL     1       0.805  -0.907  23.621  0.00  0.00    +0.001 A 
ENDROOT
BRANCH  11   9
ATOM      5  C   UNL     1       2.950   0.396  22.672  0.00  0.00    +0.071 A 
ATOM      6  C   UNL     1       2.960   0.173  21.878  0.00  0.00    +0.004 A 
ATOM      7  C   UNL     1       2.290  -0.169  21.537  0.00  0.00    -0.000 A 
ATOM      8  C   UNL     1       1.612  -0.289  21.991  0.00  0.00    -0.000 A 
ATOM      9  C   UNL     1       1.602  -0.066  22.785  0.00  0.00    -0.000 A 
ATOM     10  C   UNL     1       2.271   0.276  23.126  0.00  0.00    +0.004 A 
BRANCH   5   2
ATOM      1  F   UNL     1       4.287   1.080  23.355  0.00  0.00    -0.166 F 
ATOM      2  C   UNL     1       3.618   0.738  23.014  0.00  0.00    +0.419 C 
ATOM      3  F   UNL     1       3.271   1.483  22.947  0.00  0.00    -0.166 F 
ATOM      4  F   UNL     1       3.966  -0.008  23.080  0.00  0.00    -0.166 F 
ENDBRANCH   5   2
ENDBRANCH  11   9
BRANCH  26  28
ATOM     28  C   UNL     1      -3.995   2.496  24.989  0.00  0.00    +0.054 A 
ATOM     29  C   UNL     1      -3.843   3.112  25.516  0.00  0.00    +0.005 A 
ATOM     30  C   UNL     1      -4.147   3.865  25.371  0.00  0.00    +0.000 A 
ATOM     31  C   UNL     1      -4.605   4.002  24.698  0.00  0.00    +0.000 A 
ATOM     32  C   UNL     1      -4.758   3.386  24.171  0.00  0.00    +0.000 A 
ATOM     33  C   UNL     1      -4.453   2.633  24.317  0.00  0.00    +0.005 A 
ENDBRANCH  26  28
TORSDOF 3
ENDMDL
MODEL 7
REMARK VINA RESULT:     -11.1      4.271      6.293
REMARK  Name = 
REMARK  3 active torsions:
REMARK  status: ('A' for Active; 'I' for Inactive)
REMARK    1  A    between atoms: C_2  and  C_5
REMARK    2  A    between atoms: C_9  and  C_11
REMARK    3  A    between atoms: C_26  and  C_28
REMARK                            x       y       z     vdW  Elec       q    Type
REMARK                         _______ _______ _______ _____ _____    ______ ____
ROOT
ATOM     11  C   UNL     1       1.896   0.823  23.275  0.00  0.00    +0.000 A 
ATOM     12  C   UNL     1       1.294   0.263  23.345  0.00  0.00    +0.006 A 
ATOM     13  C   UNL     1       0.582   0.467  23.710  0.00  0.00    +0.069 A 
ATOM     14  C   UNL     1       0.474   1.230  24.005  0.00  0.00    +0.078 A 
ATOM     15  N   UNL     1      -0.188   1.544  24.386  0.00  0.00    -0.178 NA
ATOM     16  C   UNL     1      -0.903   1.174  24.565  0.00  0.00    +0.265 C 
ATOM     17  O   UNL     1      -1.461   1.641  24.953  0.00  0.00    -0.271 OA
ATOM     18  C   UNL     1      -1.133   0.397  24.409  0.00  0.00    +0.174 C 
ATOM     19  C   UNL     1      -1.898   0.249  24.682  0.00  0.00    +0.123 C 
ATOM     20  N   UNL     1      -2.234  -0.497  24.580  0.00  0.00    -0.272 N 
ATOM     21  C   UNL     1      -1.808  -1.095  24.205  0.00  0.00    +0.115 C 
ATOM     22  C   UNL     1      -1.042  -0.947  23.932  0.00  0.00    +0.116 C 
ATOM     23  N   UNL     1      -0.706  -0.201  24.034  0.00  0.00    -0.266 N 
ATOM     24  C   UNL     1       0.058  -0.169  23.723  0.00  0.00    +0.251 C 
ATOM     25  O   UNL     1       0.333  -0.867  23.380  0.00  0.00    -0.270 OA
ATOM     26  C   UNL     1      -2.999  -0.646  24.853  0.00  0.00    +0.249 C 
ATOM     27  O   UNL     1      -3.426  -0.047  25.228  0.00  0.00    -0.270 OA
ATOM     34  C   UNL     1       1.076   1.789  23.935  0.00  0.00    +0.017 A 
ATOM     35  C   UNL     1       1.787   1.586  23.569  0.00  0.00    +0.001 A 
ENDROOT
BRANCH  11   9
ATOM      5  C   UNL     1       4.027   0.466  22.965  0.00  0.00    +0.071 A 
ATOM      6  C   UNL     1       4.031   0.215  22.180  0.00  0.00    +0.004 A 
ATOM      7  C   UNL     1       3.322   0.166  21.759  0.00  0.00    -0.000 A 
ATOM      8  C   UNL     1       2.611   0.369  22.124  0.00  0.00    -0.000 A 
ATOM      9  C   UNL     1       2.607   0.620  22.909  0.00  0.00    -0.000 A 
ATOM     10  C   UNL     1       3.316   0.669  23.331  0.00  0.00    +0.004 A 
BRANCH   5   2
ATOM      1  F   UNL     1       5.443   0.565  23.807  0.00  0.00    -0.166 F 
ATOM      2  C   UNL     1       4.735   0.515  23.386  0.00  0.00    +0.419 C 
ATOM      3  F   UNL     1       4.676  -0.285  23.579  0.00  0.00    -0.166 F 
ATOM      4  F   UNL     1       4.794   1.316  23.193  0.00  0.00    -0.166 F 
ENDBRANCH   5   2
ENDBRANCH  11   9
BRANCH  26  28
ATOM     28  C   UNL     1      -3.335  -1.391  24.751  0.00  0.00    +0.054 A 
ATOM     29  C   UNL     1      -3.810  -1.543  24.093  0.00  0.00    +0.005 A 
ATOM     30  C   UNL     1      -4.147  -2.289  23.990  0.00  0.00    +0.000 A 
ATOM     31  C   UNL     1      -4.009  -2.883  24.545  0.00  0.00    +0.000 A 
ATOM     32  C   UNL     1      -3.535  -2.732  25.203  0.00  0.00    +0.000 A 
ATOM     33  C   UNL     1      -3.198  -1.986  25.305  0.00  0.00    +0.005 A 
ENDBRANCH  26  28
TORSDOF 3
ENDMDL
MODEL 8
REMARK VINA RESULT:     -11.0      4.495      5.586
REMARK  Name = 
REMARK  3 active torsions:
REMARK  status: ('A' for Active; 'I' for Inactive)
REMARK    1  A    between atoms: C_2  and  C_5
REMARK    2  A    between atoms: C_9  and  C_11
REMARK    3  A    between atoms: C_26  and  C_28
REMARK                            x       y       z     vdW  Elec       q    Type
REMARK                         _______ _______ _______ _____ _____    ______ ____
ROOT
ATOM     11  C   UNL     1       2.362   0.320  23.080  0.00  0.00    +0.000 A 
ATOM     12  C   UNL     1       1.913   0.922  23.422  0.00  0.00    +0.006 A 
ATOM     13  C   UNL     1       1.104   0.814  23.545  0.00  0.00    +0.069 A 
ATOM     14  C   UNL     1       0.745   0.105  23.324  0.00  0.00    +0.078 A 
ATOM     15  N   UNL     1      -0.048  -0.114  23.397  0.00  0.00    -0.178 NA
ATOM     16  C   UNL     1      -0.676   0.322  23.708  0.00  0.00    +0.265 C 
ATOM     17  O   UNL     1      -1.410  -0.054  23.703  0.00  0.00    -0.271 OA
ATOM     18  C   UNL     1      -0.666   1.085  24.022  0.00  0.00    +0.174 C 
ATOM     19  C   UNL     1      -1.418   1.317  24.274  0.00  0.00    +0.123 C 
ATOM     20  N   UNL     1      -1.529   2.063  24.606  0.00  0.00    -0.272 N 
ATOM     21  C   UNL     1      -0.890   2.578  24.688  0.00  0.00    +0.115 C 
ATOM     22  C   UNL     1      -0.138   2.346  24.437  0.00  0.00    +0.116 C 
ATOM     23  N   UNL     1      -0.028   1.600  24.104  0.00  0.00    -0.266 N 
ATOM     24  C   UNL     1       0.761   1.479  23.891  0.00  0.00    +0.251 C 
ATOM     25  O   UNL     1       1.273   2.107  24.046  0.00  0.00    -0.270 OA
ATOM     26  C   UNL     1      -2.280   2.294  24.858  0.00  0.00    +0.249 C 
ATOM     27  O   UNL     1      -2.920   1.779  24.775  0.00  0.00    -0.270 OA
ATOM     34  C   UNL     1       1.193  -0.496  22.982  0.00  0.00    +0.017 A 
ATOM     35  C   UNL     1       2.002  -0.389  22.860  0.00  0.00    +0.001 A 
ENDROOT
BRANCH  11   9
ATOM      5  C   UNL     1       4.523   0.211  23.366  0.00  0.00    +0.071 A 
ATOM      6  C   UNL     1       4.788   0.641  22.714  0.00  0.00    +0.004 A 
ATOM      7  C   UNL     1       4.244   0.964  22.183  0.00  0.00    -0.000 A 
ATOM      8  C   UNL     1       3.436   0.857  22.306  0.00  0.00    -0.000 A 
ATOM      9  C   UNL     1       3.170   0.427  22.958  0.00  0.00    -0.000 A 
ATOM     10  C   UNL     1       3.714   0.104  23.488  0.00  0.00    +0.004 A 
BRANCH   5   2
ATOM      1  F   UNL     1       5.610  -0.435  24.426  0.00  0.00    -0.166 F 
ATOM      2  C   UNL     1       5.066  -0.113  23.895  0.00  0.00    +0.419 C 
ATOM      3  F   UNL     1       4.920  -0.864  23.589  0.00  0.00    -0.166 F 
ATOM      4  F   UNL     1       5.213   0.639  24.203  0.00  0.00    -0.166 F 
ENDBRANCH   5   2
ENDBRANCH  11   9
BRANCH  26  28
ATOM     28  C   UNL     1      -2.392   3.041  25.190  0.00  0.00    +0.054 A 
ATOM     29  C   UNL     1      -2.604   3.678  24.711  0.00  0.00    +0.005 A 
ATOM     30  C   UNL     1      -2.715   4.425  25.044  0.00  0.00    +0.000 A 
ATOM     31  C   UNL     1      -2.615   4.534  25.855  0.00  0.00    +0.000 A 
ATOM     32  C   UNL     1      -2.402   3.897  26.334  0.00  0.00    +0.000 A 
ATOM     33  C   UNL     1      -2.291   3.150  26.001  0.00  0.00    +0.005 A 
ENDBRANCH  26  28
TORSDOF 3
ENDMDL
MODEL 9
REMARK VINA RESULT:     -10.9      4.100      5.494
REMARK  Name = 
REMARK  3 active torsions:
REMARK  status: ('A' for Active; 'I' for Inactive)
REMARK    1  A    between atoms: C_2  and  C_5
REMARK    2  A    between atoms: C_9  and  C_11
REMARK    3  A    between atoms: C_26  and  C_28
REMARK                            x       y       z     vdW  Elec       q    Type
REMARK                         _______ _______ _______ _____ _____    ______ ____
ROOT
ATOM     11  C   UNL     1      -2.715   1.745  24.674  0.00  0.00    +0.000 A 
ATOM     12  C   UNL     1      -1.952   1.820  24.370  0.00  0.00    +0.006 A 
ATOM     13  C   UNL     1      -1.482   1.148  24.266  0.00  0.00    +0.069 A 
ATOM     14  C   UNL     1      -1.777   0.404  24.467  0.00  0.00    +0.078 A 
ATOM     15  N   UNL     1      -1.403  -0.329  24.409  0.00  0.00    -0.178 NA
ATOM     16  C   UNL     1      -0.643  -0.499  24.135  0.00  0.00    +0.265 C 
ATOM     17  O   UNL     1      -0.429  -1.296  24.145  0.00  0.00    -0.271 OA
ATOM     18  C   UNL     1      -0.070   0.022  23.852  0.00  0.00    +0.174 C 
ATOM     19  C   UNL     1       0.618  -0.377  23.632  0.00  0.00    +0.123 C 
ATOM     20  N   UNL     1       1.262   0.044  23.334  0.00  0.00    -0.272 N 
ATOM     21  C   UNL     1       1.218   0.863  23.255  0.00  0.00    +0.115 C 
ATOM     22  C   UNL     1       0.529   1.263  23.475  0.00  0.00    +0.116 C 
ATOM     23  N   UNL     1      -0.114   0.841  23.773  0.00  0.00    -0.266 N 
ATOM     24  C   UNL     1      -0.743   1.343  23.958  0.00  0.00    +0.251 C 
ATOM     25  O   UNL     1      -0.615   2.145  23.814  0.00  0.00    -0.270 OA
ATOM     26  C   UNL     1       1.950  -0.355  23.115  0.00  0.00    +0.249 C 
ATOM     27  O   UNL     1       1.994  -1.176  23.194  0.00  0.00    -0.270 OA
ATOM     34  C   UNL     1      -2.540   0.331  24.771  0.00  0.00    +0.017 A 
ATOM     35  C   UNL     1      -3.009   1.001  24.875  0.00  0.00    +0.001 A 
ENDROOT
BRANCH  11   9
ATOM      5  C   UNL     1      -3.488   3.616  25.491  0.00  0.00    +0.071 A 
ATOM      6  C   UNL     1      -4.124   3.756  24.984  0.00  0.00    +0.004 A 
ATOM      7  C   UNL     1      -4.290   3.226  24.374  0.00  0.00    -0.000 A 
ATOM      8  C   UNL     1      -3.820   2.556  24.270  0.00  0.00    -0.000 A 
ATOM      9  C   UNL     1      -3.185   2.415  24.777  0.00  0.00    -0.000 A 
ATOM     10  C   UNL     1      -3.019   2.945  25.388  0.00  0.00    +0.004 A 
BRANCH   5   2
ATOM      1  F   UNL     1      -3.155   4.675  26.711  0.00  0.00    -0.166 F 
ATOM      2  C   UNL     1      -3.322   4.145  26.101  0.00  0.00    +0.419 C 
ATOM      3  F   UNL     1      -3.884   3.774  26.577  0.00  0.00    -0.166 F 
ATOM      4  F   UNL     1      -2.759   4.517  25.625  0.00  0.00    -0.166 F 
ENDBRANCH   5   2
ENDBRANCH  11   9
BRANCH  26  28
ATOM     28  C   UNL     1       2.593   0.066  22.816  0.00  0.00    +0.054 A 
ATOM     29  C   UNL     1       2.723   0.098  22.002  0.00  0.00    +0.005 A 
ATOM     30  C   UNL     1       3.367   0.519  21.703  0.00  0.00    +0.000 A 
ATOM     31  C   UNL     1       3.880   0.908  22.218  0.00  0.00    +0.000 A 
ATOM     32  C   UNL     1       3.750   0.875  23.032  0.00  0.00    +0.000 A 
ATOM     33  C   UNL     1       3.107   0.454  23.331  0.00  0.00    +0.005 A 
ENDBRANCH  26  28
TORSDOF 3
ENDMDL
MODEL 10
REMARK VINA RESULT:     -10.6      3.215      5.002
REMARK  Name = 
REMARK  3 active torsions:
REMARK  status: ('A' for Active; 'I' for Inactive)
REMARK    1  A    between atoms: C_2  and  C_5
REMARK    2  A    between atoms: C_9  and  C_11
REMARK    3  A    between atoms: C_26  and  C_28
REMARK                            x       y       z     vdW  Elec       q    Type
REMARK                         _______ _______ _______ _____ _____    ______ ____
ROOT
ATOM     11  C   UNL     1      -3.656   3.422  25.584  0.00  0.00    +0.000 A 
ATOM     12  C   UNL     1      -3.244   2.853  25.152  0.00  0.00    +0.006 A 
ATOM     13  C   UNL     1      -2.418   2.851  25.157  0.00  0.00    +0.069 A 
ATOM     14  C   UNL     1      -2.006   3.417  25.593  0.00  0.00    +0.078 A 
ATOM     15  N   UNL     1      -1.190   3.512  25.672  0.00  0.00    -0.178 NA
ATOM     16  C   UNL     1      -0.585   3.064  25.334  0.00  0.00    +0.265 C 
ATOM     17  O   UNL     1       0.182   3.301  25.521  0.00  0.00    -0.271 OA
ATOM     18  C   UNL     1      -0.646   2.411  24.834  0.00  0.00    +0.174 C 
ATOM     19  C   UNL     1       0.097   2.124  24.621  0.00  0.00    +0.123 C 
ATOM     20  N   UNL     1       0.159   1.471  24.122  0.00  0.00    -0.272 N 
ATOM     21  C   UNL     1      -0.521   1.103  23.836  0.00  0.00    +0.115 C 
ATOM     22  C   UNL     1      -1.266   1.390  24.049  0.00  0.00    +0.116 C 
ATOM     23  N   UNL     1      -1.327   2.044  24.549  0.00  0.00    -0.266 N 
ATOM     24  C   UNL     1      -2.116   2.240  24.692  0.00  0.00    +0.251 C 
ATOM     25  O   UNL     1      -2.677   1.761  24.322  0.00  0.00    -0.270 OA
ATOM     26  C   UNL     1       0.903   1.183  23.908  0.00  0.00    +0.249 C 
ATOM     27  O   UNL     1       1.584   1.551  24.194  0.00  0.00    -0.270 OA
ATOM     34  C   UNL     1      -2.419   3.986  26.024  0.00  0.00    +0.017 A 
ATOM     35  C   UNL     1      -3.244   3.989  26.020  0.00  0.00    +0.001 A 
ENDROOT
BRANCH  11   9
ATOM      5  C   UNL     1      -5.722   2.734  25.746  0.00  0.00    +0.071 A 
ATOM      6  C   UNL     1      -6.131   3.429  25.572  0.00  0.00    +0.004 A 
ATOM      7  C   UNL     1      -5.715   4.122  25.402  0.00  0.00    -0.000 A 
ATOM      8  C   UNL     1      -4.890   4.119  25.407  0.00  0.00    -0.000 A 
ATOM      9  C   UNL     1      -4.481   3.425  25.580  0.00  0.00    -0.000 A 
ATOM     10  C   UNL     1      -4.896   2.732  25.750  0.00  0.00    +0.004 A 
BRANCH   5   2
ATOM      1  F   UNL     1      -6.552   1.349  26.084  0.00  0.00    -0.166 F 
ATOM      2  C   UNL     1      -6.136   2.042  25.916  0.00  0.00    +0.419 C 
ATOM      3  F   UNL     1      -6.059   2.192  26.723  0.00  0.00    -0.166 F 
ATOM      4  F   UNL     1      -6.215   1.891  25.108  0.00  0.00    -0.166 F 
ENDBRANCH   5   2
ENDBRANCH  11   9
BRANCH  26  28
ATOM     28  C   UNL     1       0.965   0.530  23.409  0.00  0.00    +0.054 A 
ATOM     29  C   UNL     1       1.402   0.584  22.711  0.00  0.00    +0.005 A 
ATOM     30  C   UNL     1       1.464  -0.070  22.211  0.00  0.00    +0.000 A 
ATOM     31  C   UNL     1       1.089  -0.777  22.410  0.00  0.00    +0.000 A 
ATOM     32  C   UNL     1       0.653  -0.831  23.107  0.00  0.00    +0.000 A 
ATOM     33  C   UNL     1       0.591  -0.178  23.607  0.00  0.00    +0.005 A 
ENDBRANCH  26  28
TORSDOF 3
ENDMDL
