MODEL 1
REMARK VINA RESULT:      -6.4      0.000      0.000
REMARK  Name = 
REMARK  3 active torsions:
REMARK  status: ('A' for Active; 'I' for Inactive)
REMARK    1  A    between atoms: O_2  and  C_3
REMARK    2  A    between atoms: C_3  and  C_4
REMARK    3  A    between atoms: C_4  and  N_5
REMARK                            x       y       z     vdW  Elec       q    Type
REMARK                         _______ _______ _______ _____ _____    ______ ____
ROOT
ATOM      5  N   UNL     1      -3.947   0.284  24.230  0.00  0.00    -0.260 N 
ATOM      6  C   UNL     1      -4.533   0.468  24.782  0.00  0.00    +0.116 C 
ATOM      7  C   UNL     1      -4.584   1.289  24.835  0.00  0.00    +0.113 C 
ATOM      8  C   UNL     1      -5.063   1.784  25.289  0.00  0.00    +0.094 C 
ATOM      9  N   UNL     1      -4.988   2.603  25.224  0.00  0.00    -0.269 NA
ATOM     10  C   UNL     1      -5.467   3.098  25.678  0.00  0.00    +0.090 C 
ATOM     11  C   UNL     1      -4.435   2.927  24.706  0.00  0.00    +0.094 C 
ATOM     12  C   UNL     1      -3.955   2.433  24.252  0.00  0.00    +0.112 C 
ATOM     13  N   UNL     1      -4.030   1.613  24.317  0.00  0.00    -0.261 N 
ATOM     14  C   UNL     1      -3.637   0.992  23.943  0.00  0.00    +0.307 C 
ATOM     15  O   UNL     1      -3.038   1.066  23.380  0.00  0.00    -0.252 OA
ENDROOT
BRANCH   5   4
ATOM      4  C   UNL     1      -3.713  -0.474  24.005  0.00  0.00    +0.127 C 
BRANCH   4   3
ATOM      3  C   UNL     1      -4.013  -1.133  24.401  0.00  0.00    +0.164 C 
BRANCH   3   2
ATOM      1  C   UNL     1      -3.646  -2.509  24.513  0.00  0.00    +0.174 C 
ATOM      2  O   UNL     1      -3.943  -1.884  24.065  0.00  0.00    -0.349 OA
ENDBRANCH   3   2
ENDBRANCH   4   3
ENDBRANCH   5   4
TORSDOF 3
ENDMDL
MODEL 2
REMARK VINA RESULT:      -6.2      2.133      3.957
REMARK  Name = 
REMARK  3 active torsions:
REMARK  status: ('A' for Active; 'I' for Inactive)
REMARK    1  A    between atoms: O_2  and  C_3
REMARK    2  A    between atoms: C_3  and  C_4
REMARK    3  A    between atoms: C_4  and  N_5
REMARK                            x       y       z     vdW  Elec       q    Type
REMARK                         _______ _______ _______ _____ _____    ______ ____
ROOT
ATOM      5  N   UNL     1      -3.364   3.347  25.124  0.00  0.00    -0.260 N 
ATOM      6  C   UNL     1      -3.011   2.627  24.927  0.00  0.00    +0.116 C 
ATOM      7  C   UNL     1      -3.603   2.053  24.902  0.00  0.00    +0.113 C 
ATOM      8  C   UNL     1      -3.581   1.245  24.737  0.00  0.00    +0.094 C 
ATOM      9  N   UNL     1      -4.276   0.801  24.754  0.00  0.00    -0.269 NA
ATOM     10  C   UNL     1      -4.255  -0.007  24.590  0.00  0.00    +0.090 C 
ATOM     11  C   UNL     1      -4.993   1.166  24.936  0.00  0.00    +0.094 C 
ATOM     12  C   UNL     1      -5.016   1.974  25.101  0.00  0.00    +0.112 C 
ATOM     13  N   UNL     1      -4.320   2.417  25.084  0.00  0.00    -0.261 N 
ATOM     14  C   UNL     1      -4.172   3.217  25.221  0.00  0.00    +0.307 C 
ATOM     15  O   UNL     1      -4.735   3.787  25.420  0.00  0.00    -0.252 OA
ENDROOT
BRANCH   5   4
ATOM      4  C   UNL     1      -2.975   4.070  25.209  0.00  0.00    +0.127 C 
BRANCH   4   3
ATOM      3  C   UNL     1      -2.151   4.101  25.181  0.00  0.00    +0.164 C 
BRANCH   3   2
ATOM      1  C   UNL     1      -1.047   4.991  25.006  0.00  0.00    +0.174 C 
ATOM      2  O   UNL     1      -1.758   4.799  25.379  0.00  0.00    -0.349 OA
ENDBRANCH   3   2
ENDBRANCH   4   3
ENDBRANCH   5   4
TORSDOF 3
ENDMDL
MODEL 3
REMARK VINA RESULT:      -6.2      1.410      1.840
REMARK  Name = 
REMARK  3 active torsions:
REMARK  status: ('A' for Active; 'I' for Inactive)
REMARK    1  A    between atoms: O_2  and  C_3
REMARK    2  A    between atoms: C_3  and  C_4
REMARK    3  A    between atoms: C_4  and  N_5
REMARK                            x       y       z     vdW  Elec       q    Type
REMARK                         _______ _______ _______ _____ _____    ______ ____
ROOT
ATOM      5  N   UNL     1      -4.282   1.224  24.763  0.00  0.00    -0.260 N 
ATOM      6  C   UNL     1      -3.488   1.448  24.753  0.00  0.00    +0.116 C 
ATOM      7  C   UNL     1      -3.449   2.254  24.920  0.00  0.00    +0.113 C 
ATOM      8  C   UNL     1      -2.812   2.775  24.984  0.00  0.00    +0.094 C 
ATOM      9  N   UNL     1      -2.944   3.569  25.161  0.00  0.00    -0.269 NA
ATOM     10  C   UNL     1      -2.306   4.089  25.225  0.00  0.00    +0.090 C 
ATOM     11  C   UNL     1      -3.713   3.844  25.274  0.00  0.00    +0.094 C 
ATOM     12  C   UNL     1      -4.351   3.324  25.210  0.00  0.00    +0.112 C 
ATOM     13  N   UNL     1      -4.218   2.529  25.033  0.00  0.00    -0.261 N 
ATOM     14  C   UNL     1      -4.733   1.892  24.936  0.00  0.00    +0.307 C 
ATOM     15  O   UNL     1      -5.556   1.919  25.001  0.00  0.00    -0.252 OA
ENDROOT
BRANCH   5   4
ATOM      4  C   UNL     1      -4.574   0.465  24.623  0.00  0.00    +0.127 C 
BRANCH   4   3
ATOM      3  C   UNL     1      -4.053  -0.156  24.472  0.00  0.00    +0.164 C 
BRANCH   3   2
ATOM      1  C   UNL     1      -3.846  -1.552  24.249  0.00  0.00    +0.174 C 
ATOM      2  O   UNL     1      -4.345  -0.895  24.248  0.00  0.00    -0.349 OA
ENDBRANCH   3   2
ENDBRANCH   4   3
ENDBRANCH   5   4
TORSDOF 3
ENDMDL
MODEL 4
REMARK VINA RESULT:      -6.1      2.583      3.249
REMARK  Name = 
REMARK  3 active torsions:
REMARK  status: ('A' for Active; 'I' for Inactive)
REMARK    1  A    between atoms: O_2  and  C_3
REMARK    2  A    between atoms: C_3  and  C_4
REMARK    3  A    between atoms: C_4  and  N_5
REMARK                            x       y       z     vdW  Elec       q    Type
REMARK                         _______ _______ _______ _____ _____    ______ ____
ROOT
ATOM      5  N   UNL     1      -2.496   3.020  24.882  0.00  0.00    -0.260 N 
ATOM      6  C   UNL     1      -2.976   2.415  24.589  0.00  0.00    +0.116 C 
ATOM      7  C   UNL     1      -3.742   2.541  24.866  0.00  0.00    +0.113 C 
ATOM      8  C   UNL     1      -4.445   2.123  24.756  0.00  0.00    +0.094 C 
ATOM      9  N   UNL     1      -5.142   2.387  25.109  0.00  0.00    -0.269 NA
ATOM     10  C   UNL     1      -5.845   1.969  24.998  0.00  0.00    +0.090 C 
ATOM     11  C   UNL     1      -5.137   3.069  25.572  0.00  0.00    +0.094 C 
ATOM     12  C   UNL     1      -4.435   3.488  25.683  0.00  0.00    +0.112 C 
ATOM     13  N   UNL     1      -3.737   3.224  25.330  0.00  0.00    -0.261 N 
ATOM     14  C   UNL     1      -2.967   3.519  25.340  0.00  0.00    +0.307 C 
ATOM     15  O   UNL     1      -2.713   4.196  25.738  0.00  0.00    -0.252 OA
ENDROOT
BRANCH   5   4
ATOM      4  C   UNL     1      -1.688   3.109  24.742  0.00  0.00    +0.127 C 
BRANCH   4   3
ATOM      3  C   UNL     1      -1.217   2.446  24.605  0.00  0.00    +0.164 C 
BRANCH   3   2
ATOM      1  C   UNL     1       0.129   1.969  24.583  0.00  0.00    +0.174 C 
ATOM      2  O   UNL     1      -0.430   2.539  24.375  0.00  0.00    -0.349 OA
ENDBRANCH   3   2
ENDBRANCH   4   3
ENDBRANCH   5   4
TORSDOF 3
ENDMDL
MODEL 5
REMARK VINA RESULT:      -6.0      1.323      3.645
REMARK  Name = 
REMARK  3 active torsions:
REMARK  status: ('A' for Active; 'I' for Inactive)
REMARK    1  A    between atoms: O_2  and  C_3
REMARK    2  A    between atoms: C_3  and  C_4
REMARK    3  A    between atoms: C_4  and  N_5
REMARK                            x       y       z     vdW  Elec       q    Type
REMARK                         _______ _______ _______ _____ _____    ______ ____
ROOT
ATOM      5  N   UNL     1      -3.756   0.627  24.650  0.00  0.00    -0.260 N 
ATOM      6  C   UNL     1      -4.251  -0.012  24.487  0.00  0.00    +0.116 C 
ATOM      7  C   UNL     1      -3.798  -0.700  24.520  0.00  0.00    +0.113 C 
ATOM      8  C   UNL     1      -3.990  -1.495  24.406  0.00  0.00    +0.094 C 
ATOM      9  N   UNL     1      -3.408  -2.074  24.476  0.00  0.00    -0.269 NA
ATOM     10  C   UNL     1      -3.600  -2.869  24.362  0.00  0.00    +0.090 C 
ATOM     11  C   UNL     1      -2.633  -1.860  24.659  0.00  0.00    +0.094 C 
ATOM     12  C   UNL     1      -2.439  -1.067  24.773  0.00  0.00    +0.112 C 
ATOM     13  N   UNL     1      -3.022  -0.486  24.703  0.00  0.00    -0.261 N 
ATOM     14  C   UNL     1      -2.997   0.334  24.784  0.00  0.00    +0.307 C 
ATOM     15  O   UNL     1      -2.328   0.783  24.966  0.00  0.00    -0.252 OA
ENDROOT
BRANCH   5   4
ATOM      4  C   UNL     1      -3.981   1.421  24.676  0.00  0.00    +0.127 C 
BRANCH   4   3
ATOM      3  C   UNL     1      -4.746   1.626  24.904  0.00  0.00    +0.164 C 
BRANCH   3   2
ATOM      1  C   UNL     1      -5.518   2.725  25.391  0.00  0.00    +0.174 C 
ATOM      2  O   UNL     1      -5.004   2.406  24.830  0.00  0.00    -0.349 OA
ENDBRANCH   3   2
ENDBRANCH   4   3
ENDBRANCH   5   4
TORSDOF 3
ENDMDL
MODEL 6
REMARK VINA RESULT:      -6.0      1.377      1.868
REMARK  Name = 
REMARK  3 active torsions:
REMARK  status: ('A' for Active; 'I' for Inactive)
REMARK    1  A    between atoms: O_2  and  C_3
REMARK    2  A    between atoms: C_3  and  C_4
REMARK    3  A    between atoms: C_4  and  N_5
REMARK                            x       y       z     vdW  Elec       q    Type
REMARK                         _______ _______ _______ _____ _____    ______ ____
ROOT
ATOM      5  N   UNL     1      -3.324   0.850  24.529  0.00  0.00    -0.260 N 
ATOM      6  C   UNL     1      -3.229   1.655  24.683  0.00  0.00    +0.116 C 
ATOM      7  C   UNL     1      -3.964   1.961  24.896  0.00  0.00    +0.113 C 
ATOM      8  C   UNL     1      -4.206   2.721  25.108  0.00  0.00    +0.094 C 
ATOM      9  N   UNL     1      -4.995   2.866  25.297  0.00  0.00    -0.269 NA
ATOM     10  C   UNL     1      -5.237   3.626  25.509  0.00  0.00    +0.090 C 
ATOM     11  C   UNL     1      -5.544   2.250  25.276  0.00  0.00    +0.094 C 
ATOM     12  C   UNL     1      -5.304   1.490  25.064  0.00  0.00    +0.112 C 
ATOM     13  N   UNL     1      -4.513   1.346  24.874  0.00  0.00    -0.261 N 
ATOM     14  C   UNL     1      -4.117   0.659  24.648  0.00  0.00    +0.307 C 
ATOM     15  O   UNL     1      -4.455  -0.088  24.555  0.00  0.00    -0.252 OA
ENDROOT
BRANCH   5   4
ATOM      4  C   UNL     1      -2.728   0.328  24.298  0.00  0.00    +0.127 C 
BRANCH   4   3
ATOM      3  C   UNL     1      -1.949   0.458  24.535  0.00  0.00    +0.164 C 
BRANCH   3   2
ATOM      1  C   UNL     1      -0.619  -0.048  24.657  0.00  0.00    +0.174 C 
ATOM      2  O   UNL     1      -1.348  -0.041  24.271  0.00  0.00    -0.349 OA
ENDBRANCH   3   2
ENDBRANCH   4   3
ENDBRANCH   5   4
TORSDOF 3
ENDMDL
MODEL 7
REMARK VINA RESULT:      -5.9      1.783      3.785
REMARK  Name = 
REMARK  3 active torsions:
REMARK  status: ('A' for Active; 'I' for Inactive)
REMARK    1  A    between atoms: O_2  and  C_3
REMARK    2  A    between atoms: C_3  and  C_4
REMARK    3  A    between atoms: C_4  and  N_5
REMARK                            x       y       z     vdW  Elec       q    Type
REMARK                         _______ _______ _______ _____ _____    ______ ____
ROOT
ATOM      5  N   UNL     1      -3.341   2.524  24.727  0.00  0.00    -0.260 N 
ATOM      6  C   UNL     1      -2.781   1.921  24.796  0.00  0.00    +0.116 C 
ATOM      7  C   UNL     1      -3.181   1.201  24.804  0.00  0.00    +0.113 C 
ATOM      8  C   UNL     1      -2.916   0.422  24.862  0.00  0.00    +0.094 C 
ATOM      9  N   UNL     1      -3.457  -0.200  24.856  0.00  0.00    -0.269 NA
ATOM     10  C   UNL     1      -3.191  -0.979  24.914  0.00  0.00    +0.090 C 
ATOM     11  C   UNL     1      -4.264  -0.044  24.792  0.00  0.00    +0.094 C 
ATOM     12  C   UNL     1      -4.531   0.735  24.734  0.00  0.00    +0.112 C 
ATOM     13  N   UNL     1      -3.989   1.357  24.740  0.00  0.00    -0.261 N 
ATOM     14  C   UNL     1      -4.087   2.174  24.692  0.00  0.00    +0.307 C 
ATOM     15  O   UNL     1      -4.807   2.573  24.622  0.00  0.00    -0.252 OA
ENDROOT
BRANCH   5   4
ATOM      4  C   UNL     1      -3.182   3.333  24.697  0.00  0.00    +0.127 C 
BRANCH   4   3
ATOM      3  C   UNL     1      -2.469   3.625  24.992  0.00  0.00    +0.164 C 
BRANCH   3   2
ATOM      1  C   UNL     1      -1.587   4.724  25.226  0.00  0.00    +0.174 C 
ATOM      2  O   UNL     1      -2.326   4.437  24.998  0.00  0.00    -0.349 OA
ENDBRANCH   3   2
ENDBRANCH   4   3
ENDBRANCH   5   4
TORSDOF 3
ENDMDL
MODEL 8
REMARK VINA RESULT:      -5.8      3.067      4.307
REMARK  Name = 
REMARK  3 active torsions:
REMARK  status: ('A' for Active; 'I' for Inactive)
REMARK    1  A    between atoms: O_2  and  C_3
REMARK    2  A    between atoms: C_3  and  C_4
REMARK    3  A    between atoms: C_4  and  N_5
REMARK                            x       y       z     vdW  Elec       q    Type
REMARK                         _______ _______ _______ _____ _____    ______ ____
ROOT
ATOM      5  N   UNL     1      -1.163  -0.079  24.947  0.00  0.00    -0.260 N 
ATOM      6  C   UNL     1      -1.959   0.049  24.768  0.00  0.00    +0.116 C 
ATOM      7  C   UNL     1      -2.312  -0.685  24.641  0.00  0.00    +0.113 C 
ATOM      8  C   UNL     1      -3.085  -0.900  24.447  0.00  0.00    +0.094 C 
ATOM      9  N   UNL     1      -3.281  -1.695  24.353  0.00  0.00    -0.269 NA
ATOM     10  C   UNL     1      -4.053  -1.910  24.159  0.00  0.00    +0.090 C 
ATOM     11  C   UNL     1      -2.704  -2.277  24.454  0.00  0.00    +0.094 C 
ATOM     12  C   UNL     1      -1.931  -2.063  24.648  0.00  0.00    +0.112 C 
ATOM     13  N   UNL     1      -1.735  -1.266  24.742  0.00  0.00    -0.261 N 
ATOM     14  C   UNL     1      -1.026  -0.892  24.930  0.00  0.00    +0.307 C 
ATOM     15  O   UNL     1      -0.304  -1.265  25.077  0.00  0.00    -0.252 OA
ENDROOT
BRANCH   5   4
ATOM      4  C   UNL     1      -0.604   0.504  25.113  0.00  0.00    +0.127 C 
BRANCH   4   3
ATOM      3  C   UNL     1      -0.840   1.219  25.452  0.00  0.00    +0.164 C 
BRANCH   3   2
ATOM      1  C   UNL     1      -0.348   2.368  26.144  0.00  0.00    +0.174 C 
ATOM      2  O   UNL     1      -0.307   1.846  25.506  0.00  0.00    -0.349 OA
ENDBRANCH   3   2
ENDBRANCH   4   3
ENDBRANCH   5   4
TORSDOF 3
ENDMDL
MODEL 9
REMARK VINA RESULT:      -5.8      3.366      3.586
REMARK  Name = 
REMARK  3 active torsions:
REMARK  status: ('A' for Active; 'I' for Inactive)
REMARK    1  A    between atoms: O_2  and  C_3
REMARK    2  A    between atoms: C_3  and  C_4
REMARK    3  A    between atoms: C_4  and  N_5
REMARK                            x       y       z     vdW  Elec       q    Type
REMARK                         _______ _______ _______ _____ _____    ______ ____
ROOT
ATOM      5  N   UNL     1      -0.970  -0.533  24.739  0.00  0.00    -0.260 N 
ATOM      6  C   UNL     1      -1.243  -0.018  25.324  0.00  0.00    +0.116 C 
ATOM      7  C   UNL     1      -0.848   0.701  25.233  0.00  0.00    +0.113 C 
ATOM      8  C   UNL     1      -0.892   1.411  25.651  0.00  0.00    +0.094 C 
ATOM      9  N   UNL     1      -0.420   2.050  25.429  0.00  0.00    -0.269 NA
ATOM     10  C   UNL     1      -0.464   2.761  25.846  0.00  0.00    +0.090 C 
ATOM     11  C   UNL     1       0.096   1.979  24.789  0.00  0.00    +0.094 C 
ATOM     12  C   UNL     1       0.141   1.269  24.371  0.00  0.00    +0.112 C 
ATOM     13  N   UNL     1      -0.332   0.630  24.594  0.00  0.00    -0.261 N 
ATOM     14  C   UNL     1      -0.407  -0.133  24.289  0.00  0.00    +0.307 C 
ATOM     15  O   UNL     1       0.008  -0.441  23.645  0.00  0.00    -0.252 OA
ENDROOT
BRANCH   5   4
ATOM      4  C   UNL     1      -1.217  -1.312  24.627  0.00  0.00    +0.127 C 
BRANCH   4   3
ATOM      3  C   UNL     1      -1.992  -1.530  24.805  0.00  0.00    +0.164 C 
BRANCH   3   2
ATOM      1  C   UNL     1      -3.049  -2.489  24.736  0.00  0.00    +0.174 C 
ATOM      2  O   UNL     1      -2.249  -2.300  24.659  0.00  0.00    -0.349 OA
ENDBRANCH   3   2
ENDBRANCH   4   3
ENDBRANCH   5   4
TORSDOF 3
ENDMDL
MODEL 10
REMARK VINA RESULT:      -5.8      2.753      3.931
REMARK  Name = 
REMARK  3 active torsions:
REMARK  status: ('A' for Active; 'I' for Inactive)
REMARK    1  A    between atoms: O_2  and  C_3
REMARK    2  A    between atoms: C_3  and  C_4
REMARK    3  A    between atoms: C_4  and  N_5
REMARK                            x       y       z     vdW  Elec       q    Type
REMARK                         _______ _______ _______ _____ _____    ______ ____
ROOT
ATOM      5  N   UNL     1      -3.244   3.090  25.187  0.00  0.00    -0.260 N 
ATOM      6  C   UNL     1      -2.837   2.505  24.771  0.00  0.00    +0.116 C 
ATOM      7  C   UNL     1      -2.031   2.605  24.914  0.00  0.00    +0.113 C 
ATOM      8  C   UNL     1      -1.367   2.191  24.651  0.00  0.00    +0.094 C 
ATOM      9  N   UNL     1      -0.614   2.424  24.890  0.00  0.00    -0.269 NA
ATOM     10  C   UNL     1       0.050   2.010  24.627  0.00  0.00    +0.090 C 
ATOM     11  C   UNL     1      -0.522   3.071  25.394  0.00  0.00    +0.094 C 
ATOM     12  C   UNL     1      -1.185   3.485  25.658  0.00  0.00    +0.112 C 
ATOM     13  N   UNL     1      -1.940   3.252  25.418  0.00  0.00    -0.261 N 
ATOM     14  C   UNL     1      -2.689   3.552  25.586  0.00  0.00    +0.307 C 
ATOM     15  O   UNL     1      -2.855   4.200  26.070  0.00  0.00    -0.252 OA
ENDROOT
BRANCH   5   4
ATOM      4  C   UNL     1      -4.062   3.195  25.201  0.00  0.00    +0.127 C 
BRANCH   4   3
ATOM      3  C   UNL     1      -4.563   2.557  25.050  0.00  0.00    +0.164 C 
BRANCH   3   2
ATOM      1  C   UNL     1      -5.882   2.012  25.105  0.00  0.00    +0.174 C 
ATOM      2  O   UNL     1      -5.381   2.665  25.051  0.00  0.00    -0.349 OA
ENDBRANCH   3   2
ENDBRANCH   4   3
ENDBRANCH   5   4
TORSDOF 3
ENDMDL
