MODEL 1
REMARK VINA RESULT:     -12.6      0.000      0.000
REMARK  Name = 
REMARK  7 active torsions:
REMARK  status: ('A' for Active; 'I' for Inactive)
REMARK    1  A    between atoms: C_2  and  C_4
REMARK    2  A    between atoms: C_6  and  C_7
REMARK    3  A    between atoms: C_7  and  C_8
REMARK    4  A    between atoms: C_11  and  C_13
REMARK    5  A    between atoms: C_23  and  C_24
REMARK    6  A    between atoms: C_24  and  N_25
REMARK    7  A    between atoms: C_26  and  C_28
REMARK                            x       y       z     vdW  Elec       q    Type
REMARK                         _______ _______ _______ _____ _____    ______ ____
ROOT
ATOM      4  C   UNL     1      -3.575   1.568  23.895  0.00  0.00    +0.006 C 
ATOM      5  C   UNL     1      -3.697   2.307  24.240  0.00  0.00    +0.005 C 
ATOM      6  C   UNL     1      -4.281   2.404  24.813  0.00  0.00    +0.027 C 
ATOM     20  C   UNL     1      -4.744   1.761  25.043  0.00  0.00    -0.048 C 
ATOM     21  C   UNL     1      -5.329   1.858  25.617  0.00  0.00    +0.026 C 
ATOM     22  C   UNL     1      -4.622   1.021  24.699  0.00  0.00    -0.033 C 
ATOM     23  C   UNL     1      -4.039   0.924  24.125  0.00  0.00    +0.043 C 
ENDROOT
BRANCH   4   2
ATOM      1  C   UNL     1      -2.238   1.212  23.539  0.00  0.00    +0.000 C 
ATOM      2  C   UNL     1      -2.990   1.471  23.321  0.00  0.00    +0.000 C 
ATOM      3  C   UNL     1      -3.159   1.633  22.531  0.00  0.00    +0.000 C 
ENDBRANCH   4   2
BRANCH   6   7
ATOM      7  C   UNL     1      -4.403   3.144  25.158  0.00  0.00    +0.091 C 
BRANCH   7   8
ATOM      8  C   UNL     1      -3.761   3.576  25.445  0.00  0.00    +0.227 A 
ATOM      9  N   UNL     1      -3.635   3.793  26.231  0.00  0.00    -0.111 NA
ATOM     10  N   UNL     1      -2.928   4.218  26.267  0.00  0.00    -0.107 NA
ATOM     11  C   UNL     1      -2.619   4.265  25.504  0.00  0.00    +0.252 A 
ATOM     12  O   UNL     1      -3.133   3.868  24.996  0.00  0.00    -0.419 OA
BRANCH  11  13
ATOM     13  C   UNL     1      -1.918   4.642  25.287  0.00  0.00    +0.083 A 
ATOM     14  C   UNL     1      -1.932   5.431  25.047  0.00  0.00    +0.007 A 
ATOM     15  C   UNL     1      -1.231   5.808  24.830  0.00  0.00    +0.000 A 
ATOM     16  C   UNL     1      -0.517   5.397  24.854  0.00  0.00    +0.002 A 
ATOM     17  C   UNL     1      -0.503   4.607  25.094  0.00  0.00    +0.030 A 
ATOM     18  C   UNL     1      -1.204   4.230  25.311  0.00  0.00    +0.145 A 
ATOM     19  F   UNL     1      -1.190   3.441  25.551  0.00  0.00    -0.204 F 
ENDBRANCH  11  13
ENDBRANCH   7   8
ENDBRANCH   6   7
BRANCH  23  24
ATOM     24  C   UNL     1      -3.916   0.185  23.781  0.00  0.00    +0.120 C 
BRANCH  24  25
ATOM     25  N   UNL     1      -3.725  -0.464  24.252  0.00  0.00    -0.201 NA
ATOM     26  C   UNL     1      -3.887  -1.228  23.988  0.00  0.00    +0.265 C 
ATOM     27  O   UNL     1      -4.242  -1.344  23.252  0.00  0.00    -0.268 OA
BRANCH  26  28
ATOM     28  C   UNL     1      -3.695  -1.878  24.460  0.00  0.00    +0.058 A 
ATOM     29  C   UNL     1      -3.688  -2.636  24.135  0.00  0.00    +0.025 A 
ATOM     30  C   UNL     1      -3.497  -3.285  24.607  0.00  0.00    +0.099 A 
ATOM     31  N   UNL     1      -3.312  -3.176  25.404  0.00  0.00    -0.242 NA
ATOM     32  C   UNL     1      -3.320  -2.418  25.728  0.00  0.00    +0.099 A 
ATOM     33  C   UNL     1      -3.511  -1.769  25.257  0.00  0.00    +0.025 A 
ENDBRANCH  26  28
ENDBRANCH  24  25
ENDBRANCH  23  24
TORSDOF 7
ENDMDL
MODEL 2
REMARK VINA RESULT:     -11.8      2.932      4.517
REMARK  Name = 
REMARK  7 active torsions:
REMARK  status: ('A' for Active; 'I' for Inactive)
REMARK    1  A    between atoms: C_2  and  C_4
REMARK    2  A    between atoms: C_6  and  C_7
REMARK    3  A    between atoms: C_7  and  C_8
REMARK    4  A    between atoms: C_11  and  C_13
REMARK    5  A    between atoms: C_23  and  C_24
REMARK    6  A    between atoms: C_24  and  N_25
REMARK    7  A    between atoms: C_26  and  C_28
REMARK                            x       y       z     vdW  Elec       q    Type
REMARK                         _______ _______ _______ _____ _____    ______ ____
ROOT
ATOM      4  C   UNL     1      -1.332   1.015  24.844  0.00  0.00    +0.006 C 
ATOM      5  C   UNL     1      -1.743   1.672  25.126  0.00  0.00    +0.005 C 
ATOM      6  C   UNL     1      -1.477   2.432  24.948  0.00  0.00    +0.027 C 
ATOM     20  C   UNL     1      -0.801   2.536  24.488  0.00  0.00    -0.048 C 
ATOM     21  C   UNL     1      -0.535   3.296  24.309  0.00  0.00    +0.026 C 
ATOM     22  C   UNL     1      -0.390   1.878  24.205  0.00  0.00    -0.033 C 
ATOM     23  C   UNL     1      -0.655   1.118  24.383  0.00  0.00    +0.043 C 
ENDROOT
BRANCH   4   2
ATOM      1  C   UNL     1      -1.341  -0.121  25.711  0.00  0.00    +0.000 C 
ATOM      2  C   UNL     1      -1.598   0.254  25.022  0.00  0.00    +0.000 C 
ATOM      3  C   UNL     1      -2.120  -0.130  24.513  0.00  0.00    +0.000 C 
ENDBRANCH   4   2
BRANCH   6   7
ATOM      7  C   UNL     1      -1.889   3.090  25.230  0.00  0.00    +0.091 C 
BRANCH   7   8
ATOM      8  C   UNL     1      -2.689   3.183  25.054  0.00  0.00    +0.227 A 
ATOM      9  N   UNL     1      -3.009   3.731  24.527  0.00  0.00    -0.111 NA
ATOM     10  N   UNL     1      -3.828   3.631  24.521  0.00  0.00    -0.107 NA
ATOM     11  C   UNL     1      -4.015   3.021  25.044  0.00  0.00    +0.252 A 
ATOM     12  O   UNL     1      -3.311   2.744  25.374  0.00  0.00    -0.419 OA
BRANCH  11  13
ATOM     13  C   UNL     1      -4.772   2.738  25.209  0.00  0.00    +0.083 A 
ATOM     14  C   UNL     1      -5.174   3.004  25.879  0.00  0.00    +0.007 A 
ATOM     15  C   UNL     1      -5.931   2.721  26.044  0.00  0.00    +0.000 A 
ATOM     16  C   UNL     1      -6.285   2.172  25.540  0.00  0.00    +0.002 A 
ATOM     17  C   UNL     1      -5.882   1.906  24.871  0.00  0.00    +0.030 A 
ATOM     18  C   UNL     1      -5.126   2.189  24.706  0.00  0.00    +0.145 A 
ATOM     19  F   UNL     1      -4.723   1.923  24.036  0.00  0.00    -0.204 F 
ENDBRANCH  11  13
ENDBRANCH   7   8
ENDBRANCH   6   7
BRANCH  23  24
ATOM     24  C   UNL     1      -0.245   0.461  24.101  0.00  0.00    +0.120 C 
BRANCH  24  25
ATOM     25  N   UNL     1       0.436   0.563  23.646  0.00  0.00    -0.201 NA
ATOM     26  C   UNL     1       0.837  -0.095  23.351  0.00  0.00    +0.265 C 
ATOM     27  O   UNL     1       0.558  -0.855  23.511  0.00  0.00    -0.268 OA
BRANCH  26  28
ATOM     28  C   UNL     1       1.518   0.007  22.896  0.00  0.00    +0.058 A 
ATOM     29  C   UNL     1       1.536  -0.260  22.115  0.00  0.00    +0.025 A 
ATOM     30  C   UNL     1       2.216  -0.158  21.660  0.00  0.00    +0.099 A 
ATOM     31  N   UNL     1       2.879   0.211  21.986  0.00  0.00    -0.242 NA
ATOM     32  C   UNL     1       2.860   0.478  22.766  0.00  0.00    +0.099 A 
ATOM     33  C   UNL     1       2.180   0.376  23.221  0.00  0.00    +0.025 A 
ENDBRANCH  26  28
ENDBRANCH  24  25
ENDBRANCH  23  24
TORSDOF 7
ENDMDL
MODEL 3
REMARK VINA RESULT:     -11.2      2.911      5.439
REMARK  Name = 
REMARK  7 active torsions:
REMARK  status: ('A' for Active; 'I' for Inactive)
REMARK    1  A    between atoms: C_2  and  C_4
REMARK    2  A    between atoms: C_6  and  C_7
REMARK    3  A    between atoms: C_7  and  C_8
REMARK    4  A    between atoms: C_11  and  C_13
REMARK    5  A    between atoms: C_23  and  C_24
REMARK    6  A    between atoms: C_24  and  N_25
REMARK    7  A    between atoms: C_26  and  C_28
REMARK                            x       y       z     vdW  Elec       q    Type
REMARK                         _______ _______ _______ _____ _____    ______ ____
ROOT
ATOM      4  C   UNL     1      -1.247   1.620  24.923  0.00  0.00    +0.006 C 
ATOM      5  C   UNL     1      -2.070   1.570  24.887  0.00  0.00    +0.005 C 
ATOM      6  C   UNL     1      -2.453   1.598  24.159  0.00  0.00    +0.027 C 
ATOM     20  C   UNL     1      -2.015   1.676  23.464  0.00  0.00    -0.048 C 
ATOM     21  C   UNL     1      -2.400   1.704  22.735  0.00  0.00    +0.026 C 
ATOM     22  C   UNL     1      -1.192   1.726  23.499  0.00  0.00    -0.033 C 
ATOM     23  C   UNL     1      -0.808   1.697  24.228  0.00  0.00    +0.043 C 
ENDROOT
BRANCH   4   2
ATOM      1  C   UNL     1      -0.653   2.292  26.035  0.00  0.00    +0.000 C 
ATOM      2  C   UNL     1      -0.863   1.592  25.653  0.00  0.00    +0.000 C 
ATOM      3  C   UNL     1      -0.689   0.864  25.999  0.00  0.00    +0.000 C 
ENDBRANCH   4   2
BRANCH   6   7
ATOM      7  C   UNL     1      -3.277   1.548  24.124  0.00  0.00    +0.091 C 
BRANCH   7   8
ATOM      8  C   UNL     1      -3.659   0.858  24.364  0.00  0.00    +0.227 A 
ATOM      9  N   UNL     1      -4.341   0.817  24.827  0.00  0.00    -0.111 NA
ATOM     10  N   UNL     1      -4.530   0.021  24.933  0.00  0.00    -0.107 NA
ATOM     11  C   UNL     1      -3.965  -0.430  24.536  0.00  0.00    +0.252 A 
ATOM     12  O   UNL     1      -3.427   0.087  24.184  0.00  0.00    -0.419 OA
BRANCH  11  13
ATOM     13  C   UNL     1      -3.942  -1.254  24.497  0.00  0.00    +0.083 A 
ATOM     14  C   UNL     1      -4.259  -1.645  23.843  0.00  0.00    +0.007 A 
ATOM     15  C   UNL     1      -4.237  -2.468  23.804  0.00  0.00    +0.000 A 
ATOM     16  C   UNL     1      -3.897  -2.901  24.418  0.00  0.00    +0.002 A 
ATOM     17  C   UNL     1      -3.580  -2.510  25.072  0.00  0.00    +0.030 A 
ATOM     18  C   UNL     1      -3.603  -1.687  25.111  0.00  0.00    +0.145 A 
ATOM     19  F   UNL     1      -3.286  -1.296  25.766  0.00  0.00    -0.204 F 
ENDBRANCH  11  13
ENDBRANCH   7   8
ENDBRANCH   6   7
BRANCH  23  24
ATOM     24  C   UNL     1       0.014   1.747  24.264  0.00  0.00    +0.120 C 
BRANCH  24  25
ATOM     25  N   UNL     1       0.479   1.228  23.822  0.00  0.00    -0.201 NA
ATOM     26  C   UNL     1       1.263   1.419  23.654  0.00  0.00    +0.265 C 
ATOM     27  O   UNL     1       1.584   2.128  23.928  0.00  0.00    -0.268 OA
BRANCH  26  28
ATOM     28  C   UNL     1       1.729   0.899  23.211  0.00  0.00    +0.058 A 
ATOM     29  C   UNL     1       2.538   1.040  23.128  0.00  0.00    +0.025 A 
ATOM     30  C   UNL     1       3.002   0.521  22.686  0.00  0.00    +0.099 A 
ATOM     31  N   UNL     1       2.658  -0.138  22.327  0.00  0.00    -0.242 NA
ATOM     32  C   UNL     1       1.849  -0.277  22.410  0.00  0.00    +0.099 A 
ATOM     33  C   UNL     1       1.385   0.242  22.853  0.00  0.00    +0.025 A 
ENDBRANCH  26  28
ENDBRANCH  24  25
ENDBRANCH  23  24
TORSDOF 7
ENDMDL
MODEL 4
REMARK VINA RESULT:     -10.9      1.353      2.160
REMARK  Name = 
REMARK  7 active torsions:
REMARK  status: ('A' for Active; 'I' for Inactive)
REMARK    1  A    between atoms: C_2  and  C_4
REMARK    2  A    between atoms: C_6  and  C_7
REMARK    3  A    between atoms: C_7  and  C_8
REMARK    4  A    between atoms: C_11  and  C_13
REMARK    5  A    between atoms: C_23  and  C_24
REMARK    6  A    between atoms: C_24  and  N_25
REMARK    7  A    between atoms: C_26  and  C_28
REMARK                            x       y       z     vdW  Elec       q    Type
REMARK                         _______ _______ _______ _____ _____    ______ ____
ROOT
ATOM      4  C   UNL     1      -2.431   1.209  23.949  0.00  0.00    +0.006 C 
ATOM      5  C   UNL     1      -1.731   1.630  24.067  0.00  0.00    +0.005 C 
ATOM      6  C   UNL     1      -1.104   1.281  24.471  0.00  0.00    +0.027 C 
ATOM     20  C   UNL     1      -1.174   0.512  24.759  0.00  0.00    -0.048 C 
ATOM     21  C   UNL     1      -0.545   0.163  25.163  0.00  0.00    +0.026 C 
ATOM     22  C   UNL     1      -1.874   0.090  24.641  0.00  0.00    -0.033 C 
ATOM     23  C   UNL     1      -2.502   0.439  24.237  0.00  0.00    +0.043 C 
ENDROOT
BRANCH   4   2
ATOM      1  C   UNL     1      -3.691   1.883  23.965  0.00  0.00    +0.000 C 
ATOM      2  C   UNL     1      -3.060   1.558  23.544  0.00  0.00    +0.000 C 
ATOM      3  C   UNL     1      -3.057   1.582  22.720  0.00  0.00    +0.000 C 
ENDBRANCH   4   2
BRANCH   6   7
ATOM      7  C   UNL     1      -0.403   1.703  24.588  0.00  0.00    +0.091 C 
BRANCH   7   8
ATOM      8  C   UNL     1      -0.424   2.447  24.944  0.00  0.00    +0.227 A 
ATOM      9  N   UNL     1      -0.060   2.655  25.654  0.00  0.00    -0.111 NA
ATOM     10  N   UNL     1      -0.223   3.450  25.802  0.00  0.00    -0.107 NA
ATOM     11  C   UNL     1      -0.689   3.734  25.183  0.00  0.00    +0.252 A 
ATOM     12  O   UNL     1      -0.813   3.114  24.653  0.00  0.00    -0.419 OA
BRANCH  11  13
ATOM     13  C   UNL     1      -0.980   4.502  25.107  0.00  0.00    +0.083 A 
ATOM     14  C   UNL     1      -0.544   5.068  24.694  0.00  0.00    +0.007 A 
ATOM     15  C   UNL     1      -0.835   5.836  24.618  0.00  0.00    +0.000 A 
ATOM     16  C   UNL     1      -1.560   6.038  24.954  0.00  0.00    +0.002 A 
ATOM     17  C   UNL     1      -1.995   5.472  25.367  0.00  0.00    +0.030 A 
ATOM     18  C   UNL     1      -1.705   4.704  25.443  0.00  0.00    +0.145 A 
ATOM     19  F   UNL     1      -2.140   4.137  25.857  0.00  0.00    -0.204 F 
ENDBRANCH  11  13
ENDBRANCH   7   8
ENDBRANCH   6   7
BRANCH  23  24
ATOM     24  C   UNL     1      -3.202   0.018  24.120  0.00  0.00    +0.120 C 
BRANCH  24  25
ATOM     25  N   UNL     1      -3.195  -0.807  24.131  0.00  0.00    -0.201 NA
ATOM     26  C   UNL     1      -3.897  -1.223  24.245  0.00  0.00    +0.265 C 
ATOM     27  O   UNL     1      -4.608  -0.816  24.347  0.00  0.00    -0.268 OA
BRANCH  26  28
ATOM     28  C   UNL     1      -3.890  -2.049  24.257  0.00  0.00    +0.058 A 
ATOM     29  C   UNL     1      -4.244  -2.473  23.643  0.00  0.00    +0.025 A 
ATOM     30  C   UNL     1      -4.237  -3.298  23.655  0.00  0.00    +0.099 A 
ATOM     31  N   UNL     1      -3.877  -3.699  24.280  0.00  0.00    -0.242 NA
ATOM     32  C   UNL     1      -3.524  -3.274  24.893  0.00  0.00    +0.099 A 
ATOM     33  C   UNL     1      -3.531  -2.449  24.881  0.00  0.00    +0.025 A 
ENDBRANCH  26  28
ENDBRANCH  24  25
ENDBRANCH  23  24
TORSDOF 7
ENDMDL
MODEL 5
REMARK VINA RESULT:     -10.9      1.280      5.881
REMARK  Name = 
REMARK  7 active torsions:
REMARK  status: ('A' for Active; 'I' for Inactive)
REMARK    1  A    between atoms: C_2  and  C_4
REMARK    2  A    between atoms: C_6  and  C_7
REMARK    3  A    between atoms: C_7  and  C_8
REMARK    4  A    between atoms: C_11  and  C_13
REMARK    5  A    between atoms: C_23  and  C_24
REMARK    6  A    between atoms: C_24  and  N_25
REMARK    7  A    between atoms: C_26  and  C_28
REMARK                            x       y       z     vdW  Elec       q    Type
REMARK                         _______ _______ _______ _____ _____    ______ ____
ROOT
ATOM      4  C   UNL     1      -4.243   2.202  24.748  0.00  0.00    +0.006 C 
ATOM      5  C   UNL     1      -4.406   1.521  24.312  0.00  0.00    +0.005 C 
ATOM      6  C   UNL     1      -3.844   1.222  23.788  0.00  0.00    +0.027 C 
ATOM     20  C   UNL     1      -3.118   1.603  23.700  0.00  0.00    -0.048 C 
ATOM     21  C   UNL     1      -2.556   1.304  23.176  0.00  0.00    +0.026 C 
ATOM     22  C   UNL     1      -2.954   2.285  24.136  0.00  0.00    -0.033 C 
ATOM     23  C   UNL     1      -3.516   2.584  24.660  0.00  0.00    +0.043 C 
ENDROOT
BRANCH   4   2
ATOM      1  C   UNL     1      -5.324   3.094  25.026  0.00  0.00    +0.000 C 
ATOM      2  C   UNL     1      -4.805   2.502  25.272  0.00  0.00    +0.000 C 
ATOM      3  C   UNL     1      -4.848   2.209  26.042  0.00  0.00    +0.000 C 
ENDBRANCH   4   2
BRANCH   6   7
ATOM      7  C   UNL     1      -4.008   0.541  23.352  0.00  0.00    +0.091 C 
BRANCH   7   8
ATOM      8  C   UNL     1      -4.163  -0.170  23.740  0.00  0.00    +0.227 A 
ATOM      9  N   UNL     1      -4.909  -0.479  23.908  0.00  0.00    -0.111 NA
ATOM     10  N   UNL     1      -4.806  -1.198  24.300  0.00  0.00    -0.107 NA
ATOM     11  C   UNL     1      -3.996  -1.333  24.375  0.00  0.00    +0.252 A 
ATOM     12  O   UNL     1      -3.598  -0.699  24.029  0.00  0.00    -0.419 OA
BRANCH  11  13
ATOM     13  C   UNL     1      -3.645  -1.988  24.732  0.00  0.00    +0.083 A 
ATOM     14  C   UNL     1      -3.507  -2.673  24.293  0.00  0.00    +0.007 A 
ATOM     15  C   UNL     1      -3.156  -3.328  24.651  0.00  0.00    +0.000 A 
ATOM     16  C   UNL     1      -2.943  -3.299  25.447  0.00  0.00    +0.002 A 
ATOM     17  C   UNL     1      -3.081  -2.614  25.886  0.00  0.00    +0.030 A 
ATOM     18  C   UNL     1      -3.432  -1.959  25.528  0.00  0.00    +0.145 A 
ATOM     19  F   UNL     1      -3.570  -1.274  25.968  0.00  0.00    -0.204 F 
ENDBRANCH  11  13
ENDBRANCH   7   8
ENDBRANCH   6   7
BRANCH  23  24
ATOM     24  C   UNL     1      -3.353   3.265  25.096  0.00  0.00    +0.120 C 
BRANCH  24  25
ATOM     25  N   UNL     1      -2.725   3.754  24.879  0.00  0.00    -0.201 NA
ATOM     26  C   UNL     1      -2.354   4.224  25.446  0.00  0.00    +0.265 C 
ATOM     27  O   UNL     1      -2.611   4.206  26.230  0.00  0.00    -0.268 OA
BRANCH  26  28
ATOM     28  C   UNL     1      -1.726   4.714  25.228  0.00  0.00    +0.058 A 
ATOM     29  C   UNL     1      -0.976   4.392  25.104  0.00  0.00    +0.025 A 
ATOM     30  C   UNL     1      -0.348   4.881  24.887  0.00  0.00    +0.099 A 
ATOM     31  N   UNL     1      -0.470   5.692  24.794  0.00  0.00    -0.242 NA
ATOM     32  C   UNL     1      -1.219   6.013  24.918  0.00  0.00    +0.099 A 
ATOM     33  C   UNL     1      -1.847   5.524  25.136  0.00  0.00    +0.025 A 
ENDBRANCH  26  28
ENDBRANCH  24  25
ENDBRANCH  23  24
TORSDOF 7
ENDMDL
MODEL 6
REMARK VINA RESULT:     -10.8      2.297      6.165
REMARK  Name = 
REMARK  7 active torsions:
REMARK  status: ('A' for Active; 'I' for Inactive)
REMARK    1  A    between atoms: C_2  and  C_4
REMARK    2  A    between atoms: C_6  and  C_7
REMARK    3  A    between atoms: C_7  and  C_8
REMARK    4  A    between atoms: C_11  and  C_13
REMARK    5  A    between atoms: C_23  and  C_24
REMARK    6  A    between atoms: C_24  and  N_25
REMARK    7  A    between atoms: C_26  and  C_28
REMARK                            x       y       z     vdW  Elec       q    Type
REMARK                         _______ _______ _______ _____ _____    ______ ____
ROOT
ATOM      4  C   UNL     1      -0.206   0.604  24.289  0.00  0.00    +0.006 C 
ATOM      5  C   UNL     1      -0.332  -0.177  24.521  0.00  0.00    +0.005 C 
ATOM      6  C   UNL     1      -0.684  -0.339  25.248  0.00  0.00    +0.027 C 
ATOM     20  C   UNL     1      -0.910   0.279  25.745  0.00  0.00    -0.048 C 
ATOM     21  C   UNL     1      -1.262   0.116  26.473  0.00  0.00    +0.026 C 
ATOM     22  C   UNL     1      -0.784   1.061  25.513  0.00  0.00    -0.033 C 
ATOM     23  C   UNL     1      -0.433   1.224  24.785  0.00  0.00    +0.043 C 
ENDROOT
BRANCH   4   2
ATOM      1  C   UNL     1       0.966   0.841  23.507  0.00  0.00    +0.000 C 
ATOM      2  C   UNL     1       0.146   0.767  23.560  0.00  0.00    +0.000 C 
ATOM      3  C   UNL     1      -0.322   0.856  22.887  0.00  0.00    +0.000 C 
ENDBRANCH   4   2
BRANCH   6   7
ATOM      7  C   UNL     1      -0.809  -1.122  25.481  0.00  0.00    +0.091 C 
BRANCH   7   8
ATOM      8  C   UNL     1      -1.303  -1.610  25.035  0.00  0.00    +0.227 A 
ATOM      9  N   UNL     1      -1.063  -2.247  24.569  0.00  0.00    -0.111 NA
ATOM     10  N   UNL     1      -1.735  -2.578  24.223  0.00  0.00    -0.107 NA
ATOM     11  C   UNL     1      -2.391  -2.146  24.476  0.00  0.00    +0.252 A 
ATOM     12  O   UNL     1      -2.124  -1.547  24.978  0.00  0.00    -0.419 OA
BRANCH  11  13
ATOM     13  C   UNL     1      -3.175  -2.286  24.264  0.00  0.00    +0.083 A 
ATOM     14  C   UNL     1      -3.513  -3.027  24.400  0.00  0.00    +0.007 A 
ATOM     15  C   UNL     1      -4.297  -3.168  24.188  0.00  0.00    +0.000 A 
ATOM     16  C   UNL     1      -4.744  -2.569  23.841  0.00  0.00    +0.002 A 
ATOM     17  C   UNL     1      -4.407  -1.828  23.704  0.00  0.00    +0.030 A 
ATOM     18  C   UNL     1      -3.623  -1.688  23.916  0.00  0.00    +0.145 A 
ATOM     19  F   UNL     1      -3.285  -0.947  23.779  0.00  0.00    -0.204 F 
ENDBRANCH  11  13
ENDBRANCH   7   8
ENDBRANCH   6   7
BRANCH  23  24
ATOM     24  C   UNL     1      -0.307   2.005  24.553  0.00  0.00    +0.120 C 
BRANCH  24  25
ATOM     25  N   UNL     1      -0.808   2.602  24.823  0.00  0.00    -0.201 NA
ATOM     26  C   UNL     1      -0.614   3.393  24.692  0.00  0.00    +0.265 C 
ATOM     27  O   UNL     1       0.080   3.588  24.291  0.00  0.00    -0.268 OA
BRANCH  26  28
ATOM     28  C   UNL     1      -1.116   3.991  24.963  0.00  0.00    +0.058 A 
ATOM     29  C   UNL     1      -1.821   3.796  25.344  0.00  0.00    +0.025 A 
ATOM     30  C   UNL     1      -2.322   4.393  25.615  0.00  0.00    +0.099 A 
ATOM     31  N   UNL     1      -2.117   5.185  25.503  0.00  0.00    -0.242 NA
ATOM     32  C   UNL     1      -1.412   5.379  25.122  0.00  0.00    +0.099 A 
ATOM     33  C   UNL     1      -0.911   4.782  24.852  0.00  0.00    +0.025 A 
ENDBRANCH  26  28
ENDBRANCH  24  25
ENDBRANCH  23  24
TORSDOF 7
ENDMDL
MODEL 7
REMARK VINA RESULT:     -10.7      2.153      3.552
REMARK  Name = 
REMARK  7 active torsions:
REMARK  status: ('A' for Active; 'I' for Inactive)
REMARK    1  A    between atoms: C_2  and  C_4
REMARK    2  A    between atoms: C_6  and  C_7
REMARK    3  A    between atoms: C_7  and  C_8
REMARK    4  A    between atoms: C_11  and  C_13
REMARK    5  A    between atoms: C_23  and  C_24
REMARK    6  A    between atoms: C_24  and  N_25
REMARK    7  A    between atoms: C_26  and  C_28
REMARK                            x       y       z     vdW  Elec       q    Type
REMARK                         _______ _______ _______ _____ _____    ______ ____
ROOT
ATOM      4  C   UNL     1      -1.319   2.197  24.513  0.00  0.00    +0.006 C 
ATOM      5  C   UNL     1      -1.887   2.762  24.318  0.00  0.00    +0.005 C 
ATOM      6  C   UNL     1      -2.379   2.645  23.668  0.00  0.00    +0.027 C 
ATOM     20  C   UNL     1      -2.304   1.963  23.210  0.00  0.00    -0.048 C 
ATOM     21  C   UNL     1      -2.797   1.846  22.559  0.00  0.00    +0.026 C 
ATOM     22  C   UNL     1      -1.736   1.397  23.405  0.00  0.00    -0.033 C 
ATOM     23  C   UNL     1      -1.244   1.513  24.056  0.00  0.00    +0.043 C 
ENDROOT
BRANCH   4   2
ATOM      1  C   UNL     1      -0.075   2.638  25.059  0.00  0.00    +0.000 C 
ATOM      2  C   UNL     1      -0.826   2.313  25.164  0.00  0.00    +0.000 C 
ATOM      3  C   UNL     1      -1.084   2.106  25.919  0.00  0.00    +0.000 C 
ENDBRANCH   4   2
BRANCH   6   7
ATOM      7  C   UNL     1      -2.947   3.212  23.473  0.00  0.00    +0.091 C 
BRANCH   7   8
ATOM      8  C   UNL     1      -3.603   3.323  23.961  0.00  0.00    +0.227 A 
ATOM      9  N   UNL     1      -3.899   4.049  24.217  0.00  0.00    -0.111 NA
ATOM     10  N   UNL     1      -4.557   3.903  24.694  0.00  0.00    -0.107 NA
ATOM     11  C   UNL     1      -4.667   3.086  24.732  0.00  0.00    +0.252 A 
ATOM     12  O   UNL     1      -4.078   2.728  24.279  0.00  0.00    -0.419 OA
BRANCH  11  13
ATOM     13  C   UNL     1      -5.262   2.696  25.149  0.00  0.00    +0.083 A 
ATOM     14  C   UNL     1      -5.804   2.221  24.747  0.00  0.00    +0.007 A 
ATOM     15  C   UNL     1      -6.399   1.831  25.164  0.00  0.00    +0.000 A 
ATOM     16  C   UNL     1      -6.453   1.915  25.982  0.00  0.00    +0.002 A 
ATOM     17  C   UNL     1      -5.911   2.390  26.385  0.00  0.00    +0.030 A 
ATOM     18  C   UNL     1      -5.316   2.780  25.967  0.00  0.00    +0.145 A 
ATOM     19  F   UNL     1      -4.773   3.255  26.370  0.00  0.00    -0.204 F 
ENDBRANCH  11  13
ENDBRANCH   7   8
ENDBRANCH   6   7
BRANCH  23  24
ATOM     24  C   UNL     1      -0.676   0.948  24.250  0.00  0.00    +0.120 C 
BRANCH  24  25
ATOM     25  N   UNL     1      -0.909   0.192  24.484  0.00  0.00    -0.201 NA
ATOM     26  C   UNL     1      -0.433  -0.458  24.310  0.00  0.00    +0.265 C 
ATOM     27  O   UNL     1       0.277  -0.354  23.902  0.00  0.00    -0.268 OA
BRANCH  26  28
ATOM     28  C   UNL     1      -0.666  -1.216  24.543  0.00  0.00    +0.058 A 
ATOM     29  C   UNL     1      -1.241  -1.621  24.112  0.00  0.00    +0.025 A 
ATOM     30  C   UNL     1      -1.474  -2.377  24.345  0.00  0.00    +0.099 A 
ATOM     31  N   UNL     1      -1.132  -2.728  25.010  0.00  0.00    -0.242 NA
ATOM     32  C   UNL     1      -0.558  -2.322  25.440  0.00  0.00    +0.099 A 
ATOM     33  C   UNL     1      -0.325  -1.565  25.207  0.00  0.00    +0.025 A 
ENDBRANCH  26  28
ENDBRANCH  24  25
ENDBRANCH  23  24
TORSDOF 7
ENDMDL
MODEL 8
REMARK VINA RESULT:     -10.6      0.858      1.680
REMARK  Name = 
REMARK  7 active torsions:
REMARK  status: ('A' for Active; 'I' for Inactive)
REMARK    1  A    between atoms: C_2  and  C_4
REMARK    2  A    between atoms: C_6  and  C_7
REMARK    3  A    between atoms: C_7  and  C_8
REMARK    4  A    between atoms: C_11  and  C_13
REMARK    5  A    between atoms: C_23  and  C_24
REMARK    6  A    between atoms: C_24  and  N_25
REMARK    7  A    between atoms: C_26  and  C_28
REMARK                            x       y       z     vdW  Elec       q    Type
REMARK                         _______ _______ _______ _____ _____    ______ ____
ROOT
ATOM      4  C   UNL     1      -4.752   1.290  24.694  0.00  0.00    +0.006 C 
ATOM      5  C   UNL     1      -4.621   2.079  24.492  0.00  0.00    +0.005 C 
ATOM      6  C   UNL     1      -4.096   2.268  23.887  0.00  0.00    +0.027 C 
ATOM     20  C   UNL     1      -3.700   1.669  23.481  0.00  0.00    -0.048 C 
ATOM     21  C   UNL     1      -3.174   1.858  22.875  0.00  0.00    +0.026 C 
ATOM     22  C   UNL     1      -3.830   0.879  23.683  0.00  0.00    -0.033 C 
ATOM     23  C   UNL     1      -4.356   0.690  24.289  0.00  0.00    +0.043 C 
ENDROOT
BRANCH   4   2
ATOM      1  C   UNL     1      -6.090   1.081  25.151  0.00  0.00    +0.000 C 
ATOM      2  C   UNL     1      -5.278   1.100  25.301  0.00  0.00    +0.000 C 
ATOM      3  C   UNL     1      -4.993   0.931  26.056  0.00  0.00    +0.000 C 
ENDBRANCH   4   2
BRANCH   6   7
ATOM      7  C   UNL     1      -3.965   3.058  23.685  0.00  0.00    +0.091 C 
BRANCH   7   8
ATOM      8  C   UNL     1      -3.507   3.539  24.174  0.00  0.00    +0.227 A 
ATOM      9  N   UNL     1      -3.791   4.066  24.741  0.00  0.00    -0.111 NA
ATOM     10  N   UNL     1      -3.143   4.429  25.100  0.00  0.00    -0.107 NA
ATOM     11  C   UNL     1      -2.458   4.127  24.754  0.00  0.00    +0.252 A 
ATOM     12  O   UNL     1      -2.682   3.576  24.182  0.00  0.00    -0.419 OA
BRANCH  11  13
ATOM     13  C   UNL     1      -1.684   4.338  24.947  0.00  0.00    +0.083 A 
ATOM     14  C   UNL     1      -1.389   5.075  24.721  0.00  0.00    +0.007 A 
ATOM     15  C   UNL     1      -0.615   5.285  24.913  0.00  0.00    +0.000 A 
ATOM     16  C   UNL     1      -0.137   4.760  25.331  0.00  0.00    +0.002 A 
ATOM     17  C   UNL     1      -0.431   4.023  25.558  0.00  0.00    +0.030 A 
ATOM     18  C   UNL     1      -1.205   3.813  25.365  0.00  0.00    +0.145 A 
ATOM     19  F   UNL     1      -1.500   3.076  25.591  0.00  0.00    -0.204 F 
ENDBRANCH  11  13
ENDBRANCH   7   8
ENDBRANCH   6   7
BRANCH  23  24
ATOM     24  C   UNL     1      -4.487  -0.099  24.491  0.00  0.00    +0.120 C 
BRANCH  24  25
ATOM     25  N   UNL     1      -3.852  -0.624  24.540  0.00  0.00    -0.201 NA
ATOM     26  C   UNL     1      -3.965  -1.424  24.377  0.00  0.00    +0.265 C 
ATOM     27  O   UNL     1      -4.713  -1.701  24.165  0.00  0.00    -0.268 OA
BRANCH  26  28
ATOM     28  C   UNL     1      -3.329  -1.949  24.426  0.00  0.00    +0.058 A 
ATOM     29  C   UNL     1      -2.586  -1.676  24.659  0.00  0.00    +0.025 A 
ATOM     30  C   UNL     1      -1.952  -2.201  24.707  0.00  0.00    +0.099 A 
ATOM     31  N   UNL     1      -2.060  -2.998  24.523  0.00  0.00    -0.242 NA
ATOM     32  C   UNL     1      -2.803  -3.270  24.291  0.00  0.00    +0.099 A 
ATOM     33  C   UNL     1      -3.438  -2.746  24.242  0.00  0.00    +0.025 A 
ENDBRANCH  26  28
ENDBRANCH  24  25
ENDBRANCH  23  24
TORSDOF 7
ENDMDL
MODEL 9
REMARK VINA RESULT:     -10.6      2.119      5.829
REMARK  Name = 
REMARK  7 active torsions:
REMARK  status: ('A' for Active; 'I' for Inactive)
REMARK    1  A    between atoms: C_2  and  C_4
REMARK    2  A    between atoms: C_6  and  C_7
REMARK    3  A    between atoms: C_7  and  C_8
REMARK    4  A    between atoms: C_11  and  C_13
REMARK    5  A    between atoms: C_23  and  C_24
REMARK    6  A    between atoms: C_24  and  N_25
REMARK    7  A    between atoms: C_26  and  C_28
REMARK                            x       y       z     vdW  Elec       q    Type
REMARK                         _______ _______ _______ _____ _____    ______ ____
ROOT
ATOM      4  C   UNL     1      -0.615   1.878  25.247  0.00  0.00    +0.006 C 
ATOM      5  C   UNL     1      -0.315   1.154  24.988  0.00  0.00    +0.005 C 
ATOM      6  C   UNL     1      -0.545   0.850  24.258  0.00  0.00    +0.027 C 
ATOM     20  C   UNL     1      -1.075   1.269  23.784  0.00  0.00    -0.048 C 
ATOM     21  C   UNL     1      -1.305   0.965  23.053  0.00  0.00    +0.026 C 
ATOM     22  C   UNL     1      -1.375   1.993  24.043  0.00  0.00    -0.033 C 
ATOM     23  C   UNL     1      -1.145   2.297  24.774  0.00  0.00    +0.043 C 
ENDROOT
BRANCH   4   2
ATOM      1  C   UNL     1       0.224   2.739  26.020  0.00  0.00    +0.000 C 
ATOM      2  C   UNL     1      -0.384   2.182  25.979  0.00  0.00    +0.000 C 
ATOM      3  C   UNL     1      -0.762   1.931  26.667  0.00  0.00    +0.000 C 
ENDBRANCH   4   2
BRANCH   6   7
ATOM      7  C   UNL     1      -0.245   0.126  23.999  0.00  0.00    +0.091 C 
BRANCH   7   8
ATOM      8  C   UNL     1      -0.543  -0.578  24.308  0.00  0.00    +0.227 A 
ATOM      9  N   UNL     1      -0.107  -1.157  24.703  0.00  0.00    -0.111 NA
ATOM     10  N   UNL     1      -0.624  -1.764  24.916  0.00  0.00    -0.107 NA
ATOM     11  C   UNL     1      -1.379  -1.561  24.652  0.00  0.00    +0.252 A 
ATOM     12  O   UNL     1      -1.329  -0.828  24.276  0.00  0.00    -0.419 OA
BRANCH  11  13
ATOM     13  C   UNL     1      -2.063  -2.011  24.747  0.00  0.00    +0.083 A 
ATOM     14  C   UNL     1      -2.206  -2.654  24.250  0.00  0.00    +0.007 A 
ATOM     15  C   UNL     1      -2.891  -3.104  24.344  0.00  0.00    +0.000 A 
ATOM     16  C   UNL     1      -3.432  -2.912  24.936  0.00  0.00    +0.002 A 
ATOM     17  C   UNL     1      -3.290  -2.269  25.433  0.00  0.00    +0.030 A 
ATOM     18  C   UNL     1      -2.605  -1.819  25.338  0.00  0.00    +0.145 A 
ATOM     19  F   UNL     1      -2.462  -1.176  25.835  0.00  0.00    -0.204 F 
ENDBRANCH  11  13
ENDBRANCH   7   8
ENDBRANCH   6   7
BRANCH  23  24
ATOM     24  C   UNL     1      -1.445   3.021  25.033  0.00  0.00    +0.120 C 
BRANCH  24  25
ATOM     25  N   UNL     1      -2.257   3.117  25.140  0.00  0.00    -0.201 NA
ATOM     26  C   UNL     1      -2.592   3.869  25.101  0.00  0.00    +0.265 C 
ATOM     27  O   UNL     1      -2.115   4.527  24.955  0.00  0.00    -0.268 OA
BRANCH  26  28
ATOM     28  C   UNL     1      -3.405   3.965  25.209  0.00  0.00    +0.058 A 
ATOM     29  C   UNL     1      -3.725   3.952  25.970  0.00  0.00    +0.025 A 
ATOM     30  C   UNL     1      -4.537   4.048  26.077  0.00  0.00    +0.099 A 
ATOM     31  N   UNL     1      -5.030   4.157  25.424  0.00  0.00    -0.242 NA
ATOM     32  C   UNL     1      -4.709   4.171  24.664  0.00  0.00    +0.099 A 
ATOM     33  C   UNL     1      -3.897   4.075  24.556  0.00  0.00    +0.025 A 
ENDBRANCH  26  28
ENDBRANCH  24  25
ENDBRANCH  23  24
TORSDOF 7
ENDMDL
MODEL 10
REMARK VINA RESULT:     -10.6      2.152      5.388
REMARK  Name = 
REMARK  7 active torsions:
REMARK  status: ('A' for Active; 'I' for Inactive)
REMARK    1  A    between atoms: C_2  and  C_4
REMARK    2  A    between atoms: C_6  and  C_7
REMARK    3  A    between atoms: C_7  and  C_8
REMARK    4  A    between atoms: C_11  and  C_13
REMARK    5  A    between atoms: C_23  and  C_24
REMARK    6  A    between atoms: C_24  and  N_25
REMARK    7  A    between atoms: C_26  and  C_28
REMARK                            x       y       z     vdW  Elec       q    Type
REMARK                         _______ _______ _______ _____ _____    ______ ____
ROOT
ATOM      4  C   UNL     1      -1.237   2.721  24.830  0.00  0.00    +0.006 C 
ATOM      5  C   UNL     1      -0.780   2.217  24.364  0.00  0.00    +0.005 C 
ATOM      6  C   UNL     1      -1.104   1.871  23.690  0.00  0.00    +0.027 C 
ATOM     20  C   UNL     1      -1.886   2.029  23.480  0.00  0.00    -0.048 C 
ATOM     21  C   UNL     1      -2.210   1.683  22.805  0.00  0.00    +0.026 C 
ATOM     22  C   UNL     1      -2.344   2.534  23.946  0.00  0.00    -0.033 C 
ATOM     23  C   UNL     1      -2.020   2.879  24.620  0.00  0.00    +0.043 C 
ENDROOT
BRANCH   4   2
ATOM      1  C   UNL     1      -0.882   2.642  26.212  0.00  0.00    +0.000 C 
ATOM      2  C   UNL     1      -0.913   3.067  25.505  0.00  0.00    +0.000 C 
ATOM      3  C   UNL     1      -0.620   3.837  25.473  0.00  0.00    +0.000 C 
ENDBRANCH   4   2
BRANCH   6   7
ATOM      7  C   UNL     1      -0.646   1.366  23.224  0.00  0.00    +0.091 C 
BRANCH   7   8
ATOM      8  C   UNL     1      -0.446   0.616  23.502  0.00  0.00    +0.227 A 
ATOM      9  N   UNL     1       0.304   0.275  23.482  0.00  0.00    -0.111 NA
ATOM     10  N   UNL     1       0.252  -0.478  23.817  0.00  0.00    -0.107 NA
ATOM     11  C   UNL     1      -0.531  -0.602  24.045  0.00  0.00    +0.252 A 
ATOM     12  O   UNL     1      -0.963   0.074  23.850  0.00  0.00    -0.419 OA
BRANCH  11  13
ATOM     13  C   UNL     1      -0.830  -1.282  24.404  0.00  0.00    +0.083 A 
ATOM     14  C   UNL     1      -1.196  -1.863  23.946  0.00  0.00    +0.007 A 
ATOM     15  C   UNL     1      -1.495  -2.542  24.305  0.00  0.00    +0.000 A 
ATOM     16  C   UNL     1      -1.428  -2.641  25.121  0.00  0.00    +0.002 A 
ATOM     17  C   UNL     1      -1.062  -2.060  25.578  0.00  0.00    +0.030 A 
ATOM     18  C   UNL     1      -0.763  -1.381  25.220  0.00  0.00    +0.145 A 
ATOM     19  F   UNL     1      -0.397  -0.800  25.678  0.00  0.00    -0.204 F 
ENDBRANCH  11  13
ENDBRANCH   7   8
ENDBRANCH   6   7
BRANCH  23  24
ATOM     24  C   UNL     1      -2.477   3.384  25.086  0.00  0.00    +0.120 C 
BRANCH  24  25
ATOM     25  N   UNL     1      -3.294   3.281  25.127  0.00  0.00    -0.201 NA
ATOM     26  C   UNL     1      -3.745   3.755  25.629  0.00  0.00    +0.265 C 
ATOM     27  O   UNL     1      -3.379   4.333  26.090  0.00  0.00    -0.268 OA
BRANCH  26  28
ATOM     28  C   UNL     1      -4.563   3.652  25.670  0.00  0.00    +0.058 A 
ATOM     29  C   UNL     1      -4.876   2.934  25.931  0.00  0.00    +0.025 A 
ATOM     30  C   UNL     1      -5.693   2.831  25.972  0.00  0.00    +0.099 A 
ATOM     31  N   UNL     1      -6.198   3.445  25.752  0.00  0.00    -0.242 NA
ATOM     32  C   UNL     1      -5.885   4.163  25.491  0.00  0.00    +0.099 A 
ATOM     33  C   UNL     1      -5.068   4.266  25.450  0.00  0.00    +0.025 A 
ENDBRANCH  26  28
ENDBRANCH  24  25
ENDBRANCH  23  24
TORSDOF 7
ENDMDL
