MODEL 1
REMARK VINA RESULT:     -10.2      0.000      0.000
REMARK  Name = 
REMARK  5 active torsions:
REMARK  status: ('A' for Active; 'I' for Inactive)
REMARK    1  A    between atoms: C_2  and  N_3
REMARK    2  A    between atoms: C_2  and  C_23
REMARK    3  A    between atoms: C_4  and  C_6
REMARK    4  A    between atoms: C_8  and  N_9
REMARK    5  A    between atoms: C_10  and  C_12
REMARK                            x       y       z     vdW  Elec       q    Type
REMARK                         _______ _______ _______ _____ _____    ______ ____
ROOT
ATOM      6  C   UNL     1      -4.309   1.208  24.652  0.00  0.00    +0.033 C 
ATOM      7  C   UNL     1      -3.761   1.824  24.616  0.00  0.00    -0.002 C 
ATOM      8  C   UNL     1      -3.991   2.593  24.808  0.00  0.00    +0.150 C 
ATOM     18  C   UNL     1      -4.770   2.745  25.037  0.00  0.00    +0.206 C 
ATOM     19  O   UNL     1      -5.000   3.513  25.229  0.00  0.00    -0.218 OA
ATOM     20  C   UNL     1      -5.317   2.129  25.073  0.00  0.00    +0.189 C 
ATOM     21  O   UNL     1      -6.095   2.281  25.301  0.00  0.00    -0.220 OA
ATOM     22  C   UNL     1      -5.086   1.360  24.880  0.00  0.00    +0.066 C 
ENDROOT
BRANCH   6   4
ATOM      3  N   UNL     1      -4.026  -0.135  25.049  0.00  0.00    -0.194 NA
ATOM      4  C   UNL     1      -4.078   0.440  24.460  0.00  0.00    +0.261 C 
ATOM      5  O   UNL     1      -3.899   0.247  23.677  0.00  0.00    -0.269 OA
BRANCH   3   2
ATOM      1  C   UNL     1      -4.015  -1.232  24.131  0.00  0.00    +0.033 C 
ATOM      2  C   UNL     1      -3.795  -0.904  24.857  0.00  0.00    +0.175 C 
BRANCH   2  23
ATOM     23  C   UNL     1      -3.345  -1.345  25.389  0.00  0.00    +0.281 C 
ATOM     24  N   UNL     1      -2.710  -1.795  25.117  0.00  0.00    -0.086 NA
ATOM     25  O   UNL     1      -3.530  -1.336  26.192  0.00  0.00    -0.270 OA
ENDBRANCH   2  23
ENDBRANCH   3   2
ENDBRANCH   6   4
BRANCH   8   9
ATOM      9  N   UNL     1      -3.445   3.208  24.772  0.00  0.00    -0.199 NA
ATOM     10  C   UNL     1      -2.756   3.176  25.227  0.00  0.00    +0.258 C 
ATOM     11  O   UNL     1      -2.616   2.527  25.716  0.00  0.00    -0.272 OA
BRANCH  10  12
ATOM     12  C   UNL     1      -2.208   3.792  25.191  0.00  0.00    +0.153 C 
ATOM     13  C   UNL     1      -1.450   3.748  24.868  0.00  0.00    +0.061 C 
ATOM     14  C   UNL     1      -1.096   4.490  24.949  0.00  0.00    +0.171 C 
ATOM     15  O   UNL     1      -0.336   4.693  24.701  0.00  0.00    -0.222 OA
ATOM     16  C   UNL     1      -1.635   4.990  25.322  0.00  0.00    +0.122 C 
ATOM     17  N   UNL     1      -2.323   4.559  25.471  0.00  0.00    -0.207 NA
ENDBRANCH  10  12
ENDBRANCH   8   9
TORSDOF 5
ENDMDL
MODEL 2
REMARK VINA RESULT:     -10.1      1.127      4.353
REMARK  Name = 
REMARK  5 active torsions:
REMARK  status: ('A' for Active; 'I' for Inactive)
REMARK    1  A    between atoms: C_2  and  N_3
REMARK    2  A    between atoms: C_2  and  C_23
REMARK    3  A    between atoms: C_4  and  C_6
REMARK    4  A    between atoms: C_8  and  N_9
REMARK    5  A    between atoms: C_10  and  C_12
REMARK                            x       y       z     vdW  Elec       q    Type
REMARK                         _______ _______ _______ _____ _____    ______ ____
ROOT
ATOM      6  C   UNL     1      -3.855   2.883  25.110  0.00  0.00    +0.033 C 
ATOM      7  C   UNL     1      -3.864   2.105  24.834  0.00  0.00    -0.002 C 
ATOM      8  C   UNL     1      -4.529   1.633  24.953  0.00  0.00    +0.150 C 
ATOM     18  C   UNL     1      -5.186   1.938  25.350  0.00  0.00    +0.206 C 
ATOM     19  O   UNL     1      -5.851   1.465  25.469  0.00  0.00    -0.218 OA
ATOM     20  C   UNL     1      -5.177   2.715  25.626  0.00  0.00    +0.189 C 
ATOM     21  O   UNL     1      -5.833   3.020  26.021  0.00  0.00    -0.220 OA
ATOM     22  C   UNL     1      -4.511   3.187  25.505  0.00  0.00    +0.066 C 
ENDROOT
BRANCH   6   4
ATOM      3  N   UNL     1      -2.556   3.318  25.517  0.00  0.00    -0.194 NA
ATOM      4  C   UNL     1      -3.189   3.354  24.990  0.00  0.00    +0.261 C 
ATOM      5  O   UNL     1      -3.157   3.864  24.340  0.00  0.00    -0.269 OA
BRANCH   3   2
ATOM      1  C   UNL     1      -1.978   4.571  25.142  0.00  0.00    +0.033 C 
ATOM      2  C   UNL     1      -1.890   3.790  25.398  0.00  0.00    +0.175 C 
BRANCH   2  23
ATOM     23  C   UNL     1      -1.137   3.484  25.533  0.00  0.00    +0.281 C 
ATOM     24  N   UNL     1      -0.537   3.603  24.980  0.00  0.00    -0.086 NA
ATOM     25  O   UNL     1      -0.983   3.057  26.222  0.00  0.00    -0.270 OA
ENDBRANCH   2  23
ENDBRANCH   3   2
ENDBRANCH   6   4
BRANCH   8   9
ATOM      9  N   UNL     1      -4.539   0.856  24.678  0.00  0.00    -0.199 NA
ATOM     10  C   UNL     1      -3.961   0.322  24.928  0.00  0.00    +0.258 C 
ATOM     11  O   UNL     1      -3.374   0.567  25.454  0.00  0.00    -0.272 OA
BRANCH  10  12
ATOM     12  C   UNL     1      -3.970  -0.455  24.652  0.00  0.00    +0.153 C 
ATOM     13  C   UNL     1      -3.741  -1.124  25.078  0.00  0.00    +0.061 C 
ATOM     14  C   UNL     1      -3.840  -1.783  24.591  0.00  0.00    +0.171 C 
ATOM     15  O   UNL     1      -3.677  -2.565  24.795  0.00  0.00    -0.222 OA
ATOM     16  C   UNL     1      -4.129  -1.522  23.864  0.00  0.00    +0.122 C 
ATOM     17  N   UNL     1      -4.210  -0.701  23.902  0.00  0.00    -0.207 NA
ENDBRANCH  10  12
ENDBRANCH   8   9
TORSDOF 5
ENDMDL
MODEL 3
REMARK VINA RESULT:      -9.6      2.053      3.018
REMARK  Name = 
REMARK  5 active torsions:
REMARK  status: ('A' for Active; 'I' for Inactive)
REMARK    1  A    between atoms: C_2  and  N_3
REMARK    2  A    between atoms: C_2  and  C_23
REMARK    3  A    between atoms: C_4  and  C_6
REMARK    4  A    between atoms: C_8  and  N_9
REMARK    5  A    between atoms: C_10  and  C_12
REMARK                            x       y       z     vdW  Elec       q    Type
REMARK                         _______ _______ _______ _____ _____    ______ ____
ROOT
ATOM      6  C   UNL     1      -1.615  -0.203  24.976  0.00  0.00    +0.033 C 
ATOM      7  C   UNL     1      -1.652   0.588  25.204  0.00  0.00    -0.002 C 
ATOM      8  C   UNL     1      -1.061   1.114  24.972  0.00  0.00    +0.150 C 
ATOM     18  C   UNL     1      -0.430   0.847  24.510  0.00  0.00    +0.206 C 
ATOM     19  O   UNL     1       0.161   1.373  24.278  0.00  0.00    -0.218 OA
ATOM     20  C   UNL     1      -0.393   0.055  24.282  0.00  0.00    +0.189 C 
ATOM     21  O   UNL     1       0.237  -0.211  23.821  0.00  0.00    -0.220 OA
ATOM     22  C   UNL     1      -0.985  -0.470  24.515  0.00  0.00    +0.066 C 
ENDROOT
BRANCH   6   4
ATOM      3  N   UNL     1      -2.726  -1.040  24.649  0.00  0.00    -0.194 NA
ATOM      4  C   UNL     1      -2.206  -0.728  25.209  0.00  0.00    +0.261 C 
ATOM      5  O   UNL     1      -2.279  -0.942  26.003  0.00  0.00    -0.269 OA
BRANCH   3   2
ATOM      1  C   UNL     1      -3.509  -1.645  25.681  0.00  0.00    +0.033 C 
ATOM      2  C   UNL     1      -3.319  -1.565  24.881  0.00  0.00    +0.175 C 
BRANCH   2  23
ATOM     23  C   UNL     1      -3.721  -2.010  24.316  0.00  0.00    +0.281 C 
ATOM     24  N   UNL     1      -4.292  -1.653  23.839  0.00  0.00    -0.086 NA
ATOM     25  O   UNL     1      -3.553  -2.813  24.227  0.00  0.00    -0.270 OA
ENDBRANCH   2  23
ENDBRANCH   3   2
ENDBRANCH   6   4
BRANCH   8   9
ATOM      9  N   UNL     1      -1.098   1.905  25.200  0.00  0.00    -0.199 NA
ATOM     10  C   UNL     1      -1.706   2.388  24.918  0.00  0.00    +0.258 C 
ATOM     11  O   UNL     1      -2.274   2.078  24.407  0.00  0.00    -0.272 OA
BRANCH  10  12
ATOM     12  C   UNL     1      -1.743   3.179  25.146  0.00  0.00    +0.153 C 
ATOM     13  C   UNL     1      -1.308   3.800  24.819  0.00  0.00    +0.061 C 
ATOM     14  C   UNL     1      -1.519   4.494  25.213  0.00  0.00    +0.171 C 
ATOM     15  O   UNL     1      -1.217   5.247  25.062  0.00  0.00    -0.222 OA
ATOM     16  C   UNL     1      -2.084   4.303  25.782  0.00  0.00    +0.122 C 
ATOM     17  N   UNL     1      -2.223   3.490  25.741  0.00  0.00    -0.207 NA
ENDBRANCH  10  12
ENDBRANCH   8   9
TORSDOF 5
ENDMDL
MODEL 4
REMARK VINA RESULT:      -9.4      1.965      4.174
REMARK  Name = 
REMARK  5 active torsions:
REMARK  status: ('A' for Active; 'I' for Inactive)
REMARK    1  A    between atoms: C_2  and  N_3
REMARK    2  A    between atoms: C_2  and  C_23
REMARK    3  A    between atoms: C_4  and  C_6
REMARK    4  A    between atoms: C_8  and  N_9
REMARK    5  A    between atoms: C_10  and  C_12
REMARK                            x       y       z     vdW  Elec       q    Type
REMARK                         _______ _______ _______ _____ _____    ______ ____
ROOT
ATOM      6  C   UNL     1      -2.730   3.336  25.087  0.00  0.00    +0.033 C 
ATOM      7  C   UNL     1      -2.400   2.580  25.109  0.00  0.00    -0.002 C 
ATOM      8  C   UNL     1      -1.589   2.487  25.224  0.00  0.00    +0.150 C 
ATOM     18  C   UNL     1      -1.106   3.150  25.317  0.00  0.00    +0.206 C 
ATOM     19  O   UNL     1      -0.295   3.057  25.431  0.00  0.00    -0.218 OA
ATOM     20  C   UNL     1      -1.436   3.906  25.294  0.00  0.00    +0.189 C 
ATOM     21  O   UNL     1      -0.954   4.569  25.386  0.00  0.00    -0.220 OA
ATOM     22  C   UNL     1      -2.248   3.998  25.179  0.00  0.00    +0.066 C 
ENDROOT
BRANCH   6   4
ATOM      3  N   UNL     1      -4.073   3.142  25.534  0.00  0.00    -0.194 NA
ATOM      4  C   UNL     1      -3.541   3.428  24.972  0.00  0.00    +0.261 C 
ATOM      5  O   UNL     1      -3.821   3.807  24.293  0.00  0.00    -0.269 OA
BRANCH   3   2
ATOM      1  C   UNL     1      -5.168   3.856  24.955  0.00  0.00    +0.033 C 
ATOM      2  C   UNL     1      -4.885   3.234  25.419  0.00  0.00    +0.175 C 
BRANCH   2  23
ATOM     23  C   UNL     1      -5.414   2.707  25.768  0.00  0.00    +0.281 C 
ATOM     24  N   UNL     1      -5.727   2.084  25.327  0.00  0.00    -0.086 NA
ATOM     25  O   UNL     1      -5.630   2.801  26.558  0.00  0.00    -0.270 OA
ENDBRANCH   2  23
ENDBRANCH   3   2
ENDBRANCH   6   4
BRANCH   8   9
ATOM      9  N   UNL     1      -1.259   1.732  25.247  0.00  0.00    -0.199 NA
ATOM     10  C   UNL     1      -1.318   1.235  24.590  0.00  0.00    +0.258 C 
ATOM     11  O   UNL     1      -1.706   1.496  23.911  0.00  0.00    -0.272 OA
BRANCH  10  12
ATOM     12  C   UNL     1      -0.988   0.479  24.613  0.00  0.00    +0.153 C 
ATOM     13  C   UNL     1      -1.145  -0.101  25.178  0.00  0.00    +0.061 C 
ATOM     14  C   UNL     1      -0.697  -0.769  24.989  0.00  0.00    +0.171 C 
ATOM     15  O   UNL     1      -0.686  -1.479  25.408  0.00  0.00    -0.222 OA
ATOM     16  C   UNL     1      -0.264  -0.600  24.308  0.00  0.00    +0.122 C 
ATOM     17  N   UNL     1      -0.443   0.171  24.076  0.00  0.00    -0.207 NA
ENDBRANCH  10  12
ENDBRANCH   8   9
TORSDOF 5
ENDMDL
MODEL 5
REMARK VINA RESULT:      -9.4      2.134      3.610
REMARK  Name = 
REMARK  5 active torsions:
REMARK  status: ('A' for Active; 'I' for Inactive)
REMARK    1  A    between atoms: C_2  and  N_3
REMARK    2  A    between atoms: C_2  and  C_23
REMARK    3  A    between atoms: C_4  and  C_6
REMARK    4  A    between atoms: C_8  and  N_9
REMARK    5  A    between atoms: C_10  and  C_12
REMARK                            x       y       z     vdW  Elec       q    Type
REMARK                         _______ _______ _______ _____ _____    ______ ____
ROOT
ATOM      6  C   UNL     1      -2.774  -0.872  24.724  0.00  0.00    +0.033 C 
ATOM      7  C   UNL     1      -3.218  -0.229  24.988  0.00  0.00    -0.002 C 
ATOM      8  C   UNL     1      -4.026  -0.191  24.828  0.00  0.00    +0.150 C 
ATOM     18  C   UNL     1      -4.391  -0.798  24.404  0.00  0.00    +0.206 C 
ATOM     19  O   UNL     1      -5.200  -0.760  24.244  0.00  0.00    -0.218 OA
ATOM     20  C   UNL     1      -3.948  -1.441  24.139  0.00  0.00    +0.189 C 
ATOM     21  O   UNL     1      -4.312  -2.047  23.715  0.00  0.00    -0.220 OA
ATOM     22  C   UNL     1      -3.139  -1.478  24.300  0.00  0.00    +0.066 C 
ENDROOT
BRANCH   6   4
ATOM      3  N   UNL     1      -1.423  -0.609  24.340  0.00  0.00    -0.194 NA
ATOM      4  C   UNL     1      -1.966  -0.909  24.883  0.00  0.00    +0.261 C 
ATOM      5  O   UNL     1      -1.700  -1.247  25.589  0.00  0.00    -0.269 OA
BRANCH   3   2
ATOM      1  C   UNL     1      -0.330  -1.171  25.070  0.00  0.00    +0.033 C 
ATOM      2  C   UNL     1      -0.614  -0.646  24.499  0.00  0.00    +0.175 C 
BRANCH   2  23
ATOM     23  C   UNL     1      -0.090  -0.159  24.090  0.00  0.00    +0.281 C 
ATOM     24  N   UNL     1       0.378  -0.471  23.488  0.00  0.00    -0.086 NA
ATOM     25  O   UNL     1      -0.034   0.641  24.283  0.00  0.00    -0.270 OA
ENDBRANCH   2  23
ENDBRANCH   3   2
ENDBRANCH   6   4
BRANCH   8   9
ATOM      9  N   UNL     1      -4.469   0.451  25.093  0.00  0.00    -0.199 NA
ATOM     10  C   UNL     1      -4.338   1.202  24.774  0.00  0.00    +0.258 C 
ATOM     11  O   UNL     1      -3.764   1.308  24.192  0.00  0.00    -0.272 OA
BRANCH  10  12
ATOM     12  C   UNL     1      -4.782   1.845  25.039  0.00  0.00    +0.153 C 
ATOM     13  C   UNL     1      -4.522   2.627  25.086  0.00  0.00    +0.061 C 
ATOM     14  C   UNL     1      -5.143   3.085  25.379  0.00  0.00    +0.171 C 
ATOM     15  O   UNL     1      -5.123   3.899  25.514  0.00  0.00    -0.222 OA
ATOM     16  C   UNL     1      -5.786   2.587  25.513  0.00  0.00    +0.122 C 
ATOM     17  N   UNL     1      -5.563   1.820  25.303  0.00  0.00    -0.207 NA
ENDBRANCH  10  12
ENDBRANCH   8   9
TORSDOF 5
ENDMDL
MODEL 6
REMARK VINA RESULT:      -9.4      1.995      5.193
REMARK  Name = 
REMARK  5 active torsions:
REMARK  status: ('A' for Active; 'I' for Inactive)
REMARK    1  A    between atoms: C_2  and  N_3
REMARK    2  A    between atoms: C_2  and  C_23
REMARK    3  A    between atoms: C_4  and  C_6
REMARK    4  A    between atoms: C_8  and  N_9
REMARK    5  A    between atoms: C_10  and  C_12
REMARK                            x       y       z     vdW  Elec       q    Type
REMARK                         _______ _______ _______ _____ _____    ______ ____
ROOT
ATOM      6  C   UNL     1      -1.220   2.187  25.005  0.00  0.00    +0.033 C 
ATOM      7  C   UNL     1      -1.519   1.432  24.858  0.00  0.00    -0.002 C 
ATOM      8  C   UNL     1      -1.044   0.862  24.500  0.00  0.00    +0.150 C 
ATOM     18  C   UNL     1      -0.267   1.046  24.288  0.00  0.00    +0.206 C 
ATOM     19  O   UNL     1       0.209   0.476  23.929  0.00  0.00    -0.218 OA
ATOM     20  C   UNL     1       0.032   1.801  24.435  0.00  0.00    +0.189 C 
ATOM     21  O   UNL     1       0.808   1.985  24.224  0.00  0.00    -0.220 OA
ATOM     22  C   UNL     1      -0.445   2.371  24.794  0.00  0.00    +0.066 C 
ENDROOT
BRANCH   6   4
ATOM      3  N   UNL     1      -2.368   3.037  24.976  0.00  0.00    -0.194 NA
ATOM      4  C   UNL     1      -1.696   2.756  25.364  0.00  0.00    +0.261 C 
ATOM      5  O   UNL     1      -1.501   3.046  26.112  0.00  0.00    -0.269 OA
BRANCH   3   2
ATOM      1  C   UNL     1      -2.547   4.062  25.956  0.00  0.00    +0.033 C 
ATOM      2  C   UNL     1      -2.845   3.608  25.334  0.00  0.00    +0.175 C 
BRANCH   2  23
ATOM     23  C   UNL     1      -3.618   3.723  25.072  0.00  0.00    +0.281 C 
ATOM     24  N   UNL     1      -4.250   3.598  25.585  0.00  0.00    -0.086 NA
ATOM     25  O   UNL     1      -3.758   3.965  24.296  0.00  0.00    -0.270 OA
ENDBRANCH   2  23
ENDBRANCH   3   2
ENDBRANCH   6   4
BRANCH   8   9
ATOM      9  N   UNL     1      -1.343   0.108  24.353  0.00  0.00    -0.199 NA
ATOM     10  C   UNL     1      -1.557  -0.381  24.982  0.00  0.00    +0.258 C 
ATOM     11  O   UNL     1      -1.471  -0.115  25.758  0.00  0.00    -0.272 OA
BRANCH  10  12
ATOM     12  C   UNL     1      -1.856  -1.136  24.835  0.00  0.00    +0.153 C 
ATOM     13  C   UNL     1      -2.655  -1.342  24.799  0.00  0.00    +0.061 C 
ATOM     14  C   UNL     1      -2.702  -2.151  24.639  0.00  0.00    +0.171 C 
ATOM     15  O   UNL     1      -3.396  -2.588  24.557  0.00  0.00    -0.222 OA
ATOM     16  C   UNL     1      -1.933  -2.444  24.577  0.00  0.00    +0.122 C 
ATOM     17  N   UNL     1      -1.411  -1.816  24.698  0.00  0.00    -0.207 NA
ENDBRANCH  10  12
ENDBRANCH   8   9
TORSDOF 5
ENDMDL
MODEL 7
REMARK VINA RESULT:      -8.9     16.036     18.947
REMARK  Name = 
REMARK  5 active torsions:
REMARK  status: ('A' for Active; 'I' for Inactive)
REMARK    1  A    between atoms: C_2  and  N_3
REMARK    2  A    between atoms: C_2  and  C_23
REMARK    3  A    between atoms: C_4  and  C_6
REMARK    4  A    between atoms: C_8  and  N_9
REMARK    5  A    between atoms: C_10  and  C_12
REMARK                            x       y       z     vdW  Elec       q    Type
REMARK                         _______ _______ _______ _____ _____    ______ ____
ROOT
ATOM      6  C   UNL     1      14.281   7.405  18.847  0.00  0.00    +0.033 C 
ATOM      7  C   UNL     1      13.690   7.189  19.381  0.00  0.00    -0.002 C 
ATOM      8  C   UNL     1      12.902   7.167  19.138  0.00  0.00    +0.150 C 
ATOM     18  C   UNL     1      12.705   7.363  18.361  0.00  0.00    +0.206 C 
ATOM     19  O   UNL     1      11.917   7.341  18.118  0.00  0.00    -0.218 OA
ATOM     20  C   UNL     1      13.296   7.580  17.827  0.00  0.00    +0.189 C 
ATOM     21  O   UNL     1      13.098   7.775  17.051  0.00  0.00    -0.220 OA
ATOM     22  C   UNL     1      14.083   7.601  18.071  0.00  0.00    +0.066 C 
ENDROOT
BRANCH   6   4
ATOM      3  N   UNL     1      15.504   6.728  19.141  0.00  0.00    -0.194 NA
ATOM      4  C   UNL     1      15.068   7.427  19.091  0.00  0.00    +0.261 C 
ATOM      5  O   UNL     1      15.421   8.148  19.285  0.00  0.00    -0.269 OA
BRANCH   3   2
ATOM      1  C   UNL     1      16.594   7.426  19.748  0.00  0.00    +0.033 C 
ATOM      2  C   UNL     1      16.292   6.748  19.385  0.00  0.00    +0.175 C 
BRANCH   2  23
ATOM     23  C   UNL     1      16.779   6.094  19.265  0.00  0.00    +0.281 C 
ATOM     24  N   UNL     1      17.340   5.888  19.833  0.00  0.00    -0.086 NA
ATOM     25  O   UNL     1      16.704   5.645  18.577  0.00  0.00    -0.270 OA
ENDBRANCH   2  23
ENDBRANCH   3   2
ENDBRANCH   6   4
BRANCH   8   9
ATOM      9  N   UNL     1      12.312   6.951  19.671  0.00  0.00    -0.199 NA
ATOM     10  C   UNL     1      12.209   7.378  20.370  0.00  0.00    +0.258 C 
ATOM     11  O   UNL     1      12.697   8.023  20.534  0.00  0.00    -0.272 OA
BRANCH  10  12
ATOM     12  C   UNL     1      11.618   7.162  20.903  0.00  0.00    +0.153 C 
ATOM     13  C   UNL     1      11.179   7.676  21.376  0.00  0.00    +0.061 C 
ATOM     14  C   UNL     1      10.652   7.225  21.823  0.00  0.00    +0.171 C 
ATOM     15  O   UNL     1      10.107   7.516  22.369  0.00  0.00    -0.222 OA
ATOM     16  C   UNL     1      10.766   6.432  21.626  0.00  0.00    +0.122 C 
ATOM     17  N   UNL     1      11.363   6.393  21.058  0.00  0.00    -0.207 NA
ENDBRANCH  10  12
ENDBRANCH   8   9
TORSDOF 5
ENDMDL
MODEL 8
REMARK VINA RESULT:      -8.6     15.852     18.704
REMARK  Name = 
REMARK  5 active torsions:
REMARK  status: ('A' for Active; 'I' for Inactive)
REMARK    1  A    between atoms: C_2  and  N_3
REMARK    2  A    between atoms: C_2  and  C_23
REMARK    3  A    between atoms: C_4  and  C_6
REMARK    4  A    between atoms: C_8  and  N_9
REMARK    5  A    between atoms: C_10  and  C_12
REMARK                            x       y       z     vdW  Elec       q    Type
REMARK                         _______ _______ _______ _____ _____    ______ ____
ROOT
ATOM      6  C   UNL     1      12.295   7.988  19.252  0.00  0.00    +0.033 C 
ATOM      7  C   UNL     1      13.104   7.852  19.343  0.00  0.00    -0.002 C 
ATOM      8  C   UNL     1      13.557   7.610  18.697  0.00  0.00    +0.150 C 
ATOM     18  C   UNL     1      13.201   7.506  17.960  0.00  0.00    +0.206 C 
ATOM     19  O   UNL     1      13.654   7.264  17.314  0.00  0.00    -0.218 OA
ATOM     20  C   UNL     1      12.392   7.643  17.869  0.00  0.00    +0.189 C 
ATOM     21  O   UNL     1      12.037   7.538  17.132  0.00  0.00    -0.220 OA
ATOM     22  C   UNL     1      11.940   7.884  18.516  0.00  0.00    +0.066 C 
ENDROOT
BRANCH   6   4
ATOM      3  N   UNL     1      11.457   7.669  20.364  0.00  0.00    -0.194 NA
ATOM      4  C   UNL     1      11.843   8.230  19.898  0.00  0.00    +0.261 C 
ATOM      5  O   UNL     1      11.777   9.033  20.078  0.00  0.00    -0.269 OA
BRANCH   3   2
ATOM      1  C   UNL     1      10.822   8.709  21.112  0.00  0.00    +0.033 C 
ATOM      2  C   UNL     1      11.005   7.910  21.011  0.00  0.00    +0.175 C 
BRANCH   2  23
ATOM     23  C   UNL     1      10.734   7.354  21.556  0.00  0.00    +0.281 C 
ATOM     24  N   UNL     1      10.518   7.592  22.315  0.00  0.00    -0.086 NA
ATOM     25  O   UNL     1      10.680   6.559  21.342  0.00  0.00    -0.270 OA
ENDBRANCH   2  23
ENDBRANCH   3   2
ENDBRANCH   6   4
BRANCH   8   9
ATOM      9  N   UNL     1      14.364   7.473  18.788  0.00  0.00    -0.199 NA
ATOM     10  C   UNL     1      14.630   6.917  19.337  0.00  0.00    +0.258 C 
ATOM     11  O   UNL     1      14.086   6.498  19.795  0.00  0.00    -0.272 OA
BRANCH  10  12
ATOM     12  C   UNL     1      15.439   6.780  19.428  0.00  0.00    +0.153 C 
ATOM     13  C   UNL     1      15.965   7.250  19.856  0.00  0.00    +0.061 C 
ATOM     14  C   UNL     1      16.715   6.910  19.799  0.00  0.00    +0.171 C 
ATOM     15  O   UNL     1      17.405   7.198  20.145  0.00  0.00    -0.222 OA
ATOM     16  C   UNL     1      16.652   6.230  19.336  0.00  0.00    +0.122 C 
ATOM     17  N   UNL     1      15.863   6.150  19.106  0.00  0.00    -0.207 NA
ENDBRANCH  10  12
ENDBRANCH   8   9
TORSDOF 5
ENDMDL
MODEL 9
REMARK VINA RESULT:      -8.4     17.304     19.046
REMARK  Name = 
REMARK  5 active torsions:
REMARK  status: ('A' for Active; 'I' for Inactive)
REMARK    1  A    between atoms: C_2  and  N_3
REMARK    2  A    between atoms: C_2  and  C_23
REMARK    3  A    between atoms: C_4  and  C_6
REMARK    4  A    between atoms: C_8  and  N_9
REMARK    5  A    between atoms: C_10  and  C_12
REMARK                            x       y       z     vdW  Elec       q    Type
REMARK                         _______ _______ _______ _____ _____    ______ ____
ROOT
ATOM      6  C   UNL     1      13.939   7.142  19.913  0.00  0.00    +0.033 C 
ATOM      7  C   UNL     1      13.492   7.333  19.246  0.00  0.00    -0.002 C 
ATOM      8  C   UNL     1      12.674   7.224  19.253  0.00  0.00    +0.150 C 
ATOM     18  C   UNL     1      12.303   6.925  19.928  0.00  0.00    +0.206 C 
ATOM     19  O   UNL     1      11.486   6.817  19.935  0.00  0.00    -0.218 OA
ATOM     20  C   UNL     1      12.751   6.735  20.594  0.00  0.00    +0.189 C 
ATOM     21  O   UNL     1      12.381   6.436  21.268  0.00  0.00    -0.220 OA
ATOM     22  C   UNL     1      13.569   6.844  20.586  0.00  0.00    +0.066 C 
ENDROOT
BRANCH   6   4
ATOM      3  N   UNL     1      15.244   6.696  19.537  0.00  0.00    -0.194 NA
ATOM      4  C   UNL     1      14.756   7.251  19.905  0.00  0.00    +0.261 C 
ATOM      5  O   UNL     1      15.088   7.916  20.266  0.00  0.00    -0.269 OA
BRANCH   3   2
ATOM      1  C   UNL     1      16.386   7.513  19.802  0.00  0.00    +0.033 C 
ATOM      2  C   UNL     1      16.062   6.804  19.529  0.00  0.00    +0.175 C 
BRANCH   2  23
ATOM     23  C   UNL     1      16.555   6.206  19.249  0.00  0.00    +0.281 C 
ATOM     24  N   UNL     1      17.268   6.047  19.630  0.00  0.00    -0.086 NA
ATOM     25  O   UNL     1      16.334   5.765  18.587  0.00  0.00    -0.270 OA
ENDBRANCH   2  23
ENDBRANCH   3   2
ENDBRANCH   6   4
BRANCH   8   9
ATOM      9  N   UNL     1      12.227   7.414  18.587  0.00  0.00    -0.199 NA
ATOM     10  C   UNL     1      12.167   8.200  18.341  0.00  0.00    +0.258 C 
ATOM     11  O   UNL     1      12.555   8.794  18.761  0.00  0.00    -0.272 OA
BRANCH  10  12
ATOM     12  C   UNL     1      11.720   8.390  17.674  0.00  0.00    +0.153 C 
ATOM     13  C   UNL     1      12.014   8.675  16.957  0.00  0.00    +0.061 C 
ATOM     14  C   UNL     1      11.376   8.790  16.447  0.00  0.00    +0.171 C 
ATOM     15  O   UNL     1      11.418   9.070  15.673  0.00  0.00    -0.222 OA
ATOM     16  C   UNL     1      10.687   8.576  16.848  0.00  0.00    +0.122 C 
ATOM     17  N   UNL     1      10.900   8.329  17.607  0.00  0.00    -0.207 NA
ENDBRANCH  10  12
ENDBRANCH   8   9
TORSDOF 5
ENDMDL
MODEL 10
REMARK VINA RESULT:      -8.0     16.045     19.107
REMARK  Name = 
REMARK  5 active torsions:
REMARK  status: ('A' for Active; 'I' for Inactive)
REMARK    1  A    between atoms: C_2  and  N_3
REMARK    2  A    between atoms: C_2  and  C_23
REMARK    3  A    between atoms: C_4  and  C_6
REMARK    4  A    between atoms: C_8  and  N_9
REMARK    5  A    between atoms: C_10  and  C_12
REMARK                            x       y       z     vdW  Elec       q    Type
REMARK                         _______ _______ _______ _____ _____    ______ ____
ROOT
ATOM      6  C   UNL     1      14.487   7.703  18.866  0.00  0.00    +0.033 C 
ATOM      7  C   UNL     1      13.859   7.661  19.400  0.00  0.00    -0.002 C 
ATOM      8  C   UNL     1      13.910   7.168  20.059  0.00  0.00    +0.150 C 
ATOM     18  C   UNL     1      14.589   6.716  20.184  0.00  0.00    +0.206 C 
ATOM     19  O   UNL     1      14.640   6.223  20.843  0.00  0.00    -0.218 OA
ATOM     20  C   UNL     1      15.217   6.758  19.651  0.00  0.00    +0.189 C 
ATOM     21  O   UNL     1      15.896   6.307  19.776  0.00  0.00    -0.220 OA
ATOM     22  C   UNL     1      15.165   7.252  18.991  0.00  0.00    +0.066 C 
ENDROOT
BRANCH   6   4
ATOM      3  N   UNL     1      14.053   7.935  17.524  0.00  0.00    -0.194 NA
ATOM      4  C   UNL     1      14.435   8.196  18.207  0.00  0.00    +0.261 C 
ATOM      5  O   UNL     1      14.766   8.953  18.231  0.00  0.00    -0.269 OA
BRANCH   3   2
ATOM      1  C   UNL     1      14.487   9.094  16.808  0.00  0.00    +0.033 C 
ATOM      2  C   UNL     1      14.001   8.429  16.865  0.00  0.00    +0.175 C 
BRANCH   2  23
ATOM     23  C   UNL     1      13.464   8.258  16.263  0.00  0.00    +0.281 C 
ATOM     24  N   UNL     1      13.737   8.049  15.514  0.00  0.00    -0.086 NA
ATOM     25  O   UNL     1      12.653   8.297  16.410  0.00  0.00    -0.270 OA
ENDBRANCH   2  23
ENDBRANCH   3   2
ENDBRANCH   6   4
BRANCH   8   9
ATOM      9  N   UNL     1      13.283   7.126  20.592  0.00  0.00    -0.199 NA
ATOM     10  C   UNL     1      12.537   6.881  20.334  0.00  0.00    +0.258 C 
ATOM     11  O   UNL     1      12.421   6.680  19.543  0.00  0.00    -0.272 OA
BRANCH  10  12
ATOM     12  C   UNL     1      11.909   6.839  20.868  0.00  0.00    +0.153 C 
ATOM     13  C   UNL     1      11.603   7.467  21.307  0.00  0.00    +0.061 C 
ATOM     14  C   UNL     1      10.982   7.178  21.767  0.00  0.00    +0.171 C 
ATOM     15  O   UNL     1      10.520   7.618  22.290  0.00  0.00    -0.222 OA
ATOM     16  C   UNL     1      10.904   6.371  21.612  0.00  0.00    +0.122 C 
ATOM     17  N   UNL     1      11.478   6.162  21.056  0.00  0.00    -0.207 NA
ENDBRANCH  10  12
ENDBRANCH   8   9
TORSDOF 5
ENDMDL
