MODEL 1
REMARK VINA RESULT:     -13.0      0.000      0.000
REMARK  Name = 
REMARK  5 active torsions:
REMARK  status: ('A' for Active; 'I' for Inactive)
REMARK    1  A    between atoms: O_2  and  C_3
REMARK    2  A    between atoms: C_6  and  C_9
REMARK    3  A    between atoms: C_15  and  N_16
REMARK    4  A    between atoms: N_16  and  C_17
REMARK    5  A    between atoms: C_17  and  C_18
REMARK                            x       y       z     vdW  Elec       q    Type
REMARK                         _______ _______ _______ _____ _____    ______ ____
ROOT
ATOM      9  C   UNL     1      -3.595   2.752  24.926  0.00  0.00    +0.044 C 
ATOM     10  C   UNL     1      -4.033   3.436  25.073  0.00  0.00    +0.041 C 
ATOM     11  C   UNL     1      -4.815   3.212  25.215  0.00  0.00    +0.184 C 
ATOM     12  O   UNL     1      -5.441   3.720  25.386  0.00  0.00    -0.220 OA
ATOM     13  C   UNL     1      -4.859   2.390  25.157  0.00  0.00    +0.198 C 
ATOM     14  O   UNL     1      -5.537   1.932  25.259  0.00  0.00    -0.219 OA
ATOM     15  C   UNL     1      -4.105   2.106  24.978  0.00  0.00    +0.110 C 
ENDROOT
BRANCH   9   6
ATOM      3  C   UNL     1      -1.173   2.658  24.420  0.00  0.00    +0.139 A 
ATOM      4  C   UNL     1      -1.429   2.765  25.197  0.00  0.00    +0.037 A 
ATOM      5  C   UNL     1      -2.236   2.797  25.366  0.00  0.00    -0.001 A 
ATOM      6  C   UNL     1      -2.788   2.721  24.757  0.00  0.00    -0.021 A 
ATOM      7  C   UNL     1      -2.532   2.614  23.980  0.00  0.00    -0.001 A 
ATOM      8  C   UNL     1      -1.725   2.582  23.812  0.00  0.00    +0.037 A 
BRANCH   3   2
ATOM      1  C   UNL     1       0.072   1.958  24.456  0.00  0.00    +0.252 C 
ATOM      2  O   UNL     1      -0.367   2.627  24.252  0.00  0.00    -0.471 OA
ENDBRANCH   3   2
ENDBRANCH   9   6
BRANCH  15  16
ATOM     16  N   UNL     1      -3.896   1.315  24.871  0.00  0.00    -0.212 NA
BRANCH  16  17
ATOM     17  C   UNL     1      -4.391   0.717  25.148  0.00  0.00    +0.117 C 
BRANCH  17  18
ATOM     18  C   UNL     1      -4.141  -0.069  25.124  0.00  0.00    +0.014 A 
ATOM     19  C   UNL     1      -4.318  -0.539  24.470  0.00  0.00    +0.000 A 
ATOM     20  C   UNL     1      -4.068  -1.325  24.445  0.00  0.00    +0.017 A 
ATOM     21  C   UNL     1      -3.641  -1.642  25.077  0.00  0.00    +0.081 A 
ATOM     22  C   UNL     1      -3.392  -2.427  25.054  0.00  0.00    +0.019 A 
ATOM     23  C   UNL     1      -3.568  -2.896  24.399  0.00  0.00    +0.002 A 
ATOM     24  C   UNL     1      -3.995  -2.580  23.767  0.00  0.00    +0.000 A 
ATOM     25  C   UNL     1      -4.245  -1.794  23.791  0.00  0.00    +0.001 A 
ATOM     26  N   UNL     1      -3.465  -1.172  25.732  0.00  0.00    -0.244 NA
ATOM     27  C   UNL     1      -3.714  -0.385  25.756  0.00  0.00    +0.096 A 
ENDBRANCH  17  18
ENDBRANCH  16  17
ENDBRANCH  15  16
TORSDOF 5
ENDMDL
MODEL 2
REMARK VINA RESULT:     -11.8      1.028      2.918
REMARK  Name = 
REMARK  5 active torsions:
REMARK  status: ('A' for Active; 'I' for Inactive)
REMARK    1  A    between atoms: O_2  and  C_3
REMARK    2  A    between atoms: C_6  and  C_9
REMARK    3  A    between atoms: C_15  and  N_16
REMARK    4  A    between atoms: N_16  and  C_17
REMARK    5  A    between atoms: C_17  and  C_18
REMARK                            x       y       z     vdW  Elec       q    Type
REMARK                         _______ _______ _______ _____ _____    ______ ____
ROOT
ATOM      9  C   UNL     1      -2.168   3.086  24.812  0.00  0.00    +0.044 C 
ATOM     10  C   UNL     1      -1.604   3.658  24.624  0.00  0.00    +0.041 C 
ATOM     11  C   UNL     1      -0.881   3.274  24.511  0.00  0.00    +0.184 C 
ATOM     12  O   UNL     1      -0.167   3.636  24.313  0.00  0.00    -0.220 OA
ATOM     13  C   UNL     1      -1.000   2.467  24.629  0.00  0.00    +0.198 C 
ATOM     14  O   UNL     1      -0.425   1.878  24.572  0.00  0.00    -0.219 OA
ATOM     15  C   UNL     1      -1.796   2.351  24.816  0.00  0.00    +0.110 C 
ENDROOT
BRANCH   9   6
ATOM      3  C   UNL     1      -4.562   3.507  25.284  0.00  0.00    +0.139 A 
ATOM      4  C   UNL     1      -4.312   3.367  24.511  0.00  0.00    +0.037 A 
ATOM      5  C   UNL     1      -3.514   3.227  24.353  0.00  0.00    -0.001 A 
ATOM      6  C   UNL     1      -2.966   3.227  24.970  0.00  0.00    -0.021 A 
ATOM      7  C   UNL     1      -3.216   3.367  25.743  0.00  0.00    -0.001 A 
ATOM      8  C   UNL     1      -4.014   3.507  25.901  0.00  0.00    +0.037 A 
BRANCH   3   2
ATOM      1  C   UNL     1      -5.844   3.031  25.698  0.00  0.00    +0.252 C 
ATOM      2  O   UNL     1      -5.359   3.648  25.441  0.00  0.00    -0.471 OA
ENDBRANCH   3   2
ENDBRANCH   9   6
BRANCH  15  16
ATOM     16  N   UNL     1      -2.156   1.626  24.978  0.00  0.00    -0.212 NA
BRANCH  16  17
ATOM     17  C   UNL     1      -1.854   0.933  24.650  0.00  0.00    +0.117 C 
BRANCH  17  18
ATOM     18  C   UNL     1      -2.237   0.214  24.779  0.00  0.00    +0.014 A 
ATOM     19  C   UNL     1      -2.819  -0.044  24.255  0.00  0.00    +0.000 A 
ATOM     20  C   UNL     1      -3.203  -0.763  24.384  0.00  0.00    +0.017 A 
ATOM     21  C   UNL     1      -3.004  -1.225  25.039  0.00  0.00    +0.081 A 
ATOM     22  C   UNL     1      -3.387  -1.943  25.169  0.00  0.00    +0.019 A 
ATOM     23  C   UNL     1      -3.968  -2.201  24.644  0.00  0.00    +0.002 A 
ATOM     24  C   UNL     1      -4.167  -1.739  23.989  0.00  0.00    +0.000 A 
ATOM     25  C   UNL     1      -3.784  -1.021  23.860  0.00  0.00    +0.001 A 
ATOM     26  N   UNL     1      -2.421  -0.966  25.564  0.00  0.00    -0.244 NA
ATOM     27  C   UNL     1      -2.038  -0.247  25.435  0.00  0.00    +0.096 A 
ENDBRANCH  17  18
ENDBRANCH  16  17
ENDBRANCH  15  16
TORSDOF 5
ENDMDL
MODEL 3
REMARK VINA RESULT:     -11.8      1.355      4.172
REMARK  Name = 
REMARK  5 active torsions:
REMARK  status: ('A' for Active; 'I' for Inactive)
REMARK    1  A    between atoms: O_2  and  C_3
REMARK    2  A    between atoms: C_6  and  C_9
REMARK    3  A    between atoms: C_15  and  N_16
REMARK    4  A    between atoms: N_16  and  C_17
REMARK    5  A    between atoms: C_17  and  C_18
REMARK                            x       y       z     vdW  Elec       q    Type
REMARK                         _______ _______ _______ _____ _____    ______ ____
ROOT
ATOM      9  C   UNL     1      -4.697   0.662  24.824  0.00  0.00    +0.044 C 
ATOM     10  C   UNL     1      -5.493   0.813  24.983  0.00  0.00    +0.041 C 
ATOM     11  C   UNL     1      -5.614   1.628  24.923  0.00  0.00    +0.184 C 
ATOM     12  O   UNL     1      -6.330   2.021  25.038  0.00  0.00    -0.220 OA
ATOM     13  C   UNL     1      -4.894   1.979  24.726  0.00  0.00    +0.198 C 
ATOM     14  O   UNL     1      -4.763   2.785  24.610  0.00  0.00    -0.219 OA
ATOM     15  C   UNL     1      -4.328   1.382  24.665  0.00  0.00    +0.110 C 
ENDROOT
BRANCH   9   6
ATOM      3  C   UNL     1      -3.612  -1.563  24.824  0.00  0.00    +0.139 A 
ATOM      4  C   UNL     1      -3.942  -1.265  24.130  0.00  0.00    +0.037 A 
ATOM      5  C   UNL     1      -4.304  -0.523  24.129  0.00  0.00    -0.001 A 
ATOM      6  C   UNL     1      -4.336  -0.079  24.825  0.00  0.00    -0.021 A 
ATOM      7  C   UNL     1      -4.006  -0.378  25.519  0.00  0.00    -0.001 A 
ATOM      8  C   UNL     1      -3.644  -1.120  25.519  0.00  0.00    +0.037 A 
BRANCH   3   2
ATOM      1  C   UNL     1      -2.494  -2.395  24.507  0.00  0.00    +0.252 C 
ATOM      2  O   UNL     1      -3.251  -2.304  24.824  0.00  0.00    -0.471 OA
ENDBRANCH   3   2
ENDBRANCH   9   6
BRANCH  15  16
ATOM     16  N   UNL     1      -3.531   1.486  24.478  0.00  0.00    -0.212 NA
BRANCH  16  17
ATOM     17  C   UNL     1      -3.167   2.213  24.613  0.00  0.00    +0.117 C 
BRANCH  17  18
ATOM     18  C   UNL     1      -2.344   2.266  24.628  0.00  0.00    +0.014 A 
ATOM     19  C   UNL     1      -1.949   2.363  25.346  0.00  0.00    +0.000 A 
ATOM     20  C   UNL     1      -1.125   2.416  25.361  0.00  0.00    +0.017 A 
ATOM     21  C   UNL     1      -0.696   2.372  24.656  0.00  0.00    +0.081 A 
ATOM     22  C   UNL     1       0.126   2.425  24.671  0.00  0.00    +0.019 A 
ATOM     23  C   UNL     1       0.521   2.522  25.388  0.00  0.00    +0.002 A 
ATOM     24  C   UNL     1       0.092   2.566  26.092  0.00  0.00    +0.000 A 
ATOM     25  C   UNL     1      -0.731   2.513  26.078  0.00  0.00    +0.001 A 
ATOM     26  N   UNL     1      -1.092   2.275  23.938  0.00  0.00    -0.244 NA
ATOM     27  C   UNL     1      -1.915   2.222  23.923  0.00  0.00    +0.096 A 
ENDBRANCH  17  18
ENDBRANCH  16  17
ENDBRANCH  15  16
TORSDOF 5
ENDMDL
MODEL 4
REMARK VINA RESULT:     -11.6      2.140      3.528
REMARK  Name = 
REMARK  5 active torsions:
REMARK  status: ('A' for Active; 'I' for Inactive)
REMARK    1  A    between atoms: O_2  and  C_3
REMARK    2  A    between atoms: C_6  and  C_9
REMARK    3  A    between atoms: C_15  and  N_16
REMARK    4  A    between atoms: N_16  and  C_17
REMARK    5  A    between atoms: C_17  and  C_18
REMARK                            x       y       z     vdW  Elec       q    Type
REMARK                         _______ _______ _______ _____ _____    ______ ____
ROOT
ATOM      9  C   UNL     1      -2.587   3.745  24.940  0.00  0.00    +0.044 C 
ATOM     10  C   UNL     1      -2.480   4.545  25.108  0.00  0.00    +0.041 C 
ATOM     11  C   UNL     1      -1.668   4.689  25.158  0.00  0.00    +0.184 C 
ATOM     12  O   UNL     1      -1.313   5.416  25.317  0.00  0.00    -0.220 OA
ATOM     13  C   UNL     1      -1.275   3.977  25.020  0.00  0.00    +0.198 C 
ATOM     14  O   UNL     1      -0.457   3.867  25.017  0.00  0.00    -0.219 OA
ATOM     15  C   UNL     1      -1.843   3.394  24.885  0.00  0.00    +0.110 C 
ENDROOT
BRANCH   9   6
ATOM      3  C   UNL     1      -4.762   2.598  24.651  0.00  0.00    +0.139 A 
ATOM      4  C   UNL     1      -4.475   2.755  25.408  0.00  0.00    +0.037 A 
ATOM      5  C   UNL     1      -3.750   3.137  25.505  0.00  0.00    -0.001 A 
ATOM      6  C   UNL     1      -3.312   3.363  24.844  0.00  0.00    -0.021 A 
ATOM      7  C   UNL     1      -3.599   3.206  24.086  0.00  0.00    -0.001 A 
ATOM      8  C   UNL     1      -4.324   2.824  23.990  0.00  0.00    +0.037 A 
BRANCH   3   2
ATOM      1  C   UNL     1      -5.944   2.026  25.215  0.00  0.00    +0.252 C 
ATOM      2  O   UNL     1      -5.487   2.217  24.555  0.00  0.00    -0.471 OA
ENDBRANCH   3   2
ENDBRANCH   9   6
BRANCH  15  16
ATOM     16  N   UNL     1      -1.693   2.598  24.724  0.00  0.00    -0.212 NA
BRANCH  16  17
ATOM     17  C   UNL     1      -1.005   2.242  25.006  0.00  0.00    +0.117 C 
BRANCH  17  18
ATOM     18  C   UNL     1      -0.872   1.439  24.873  0.00  0.00    +0.014 A 
ATOM     19  C   UNL     1      -1.146   0.880  25.415  0.00  0.00    +0.000 A 
ATOM     20  C   UNL     1      -1.013   0.077  25.283  0.00  0.00    +0.017 A 
ATOM     21  C   UNL     1      -0.605  -0.169  24.608  0.00  0.00    +0.081 A 
ATOM     22  C   UNL     1      -0.473  -0.971  24.476  0.00  0.00    +0.019 A 
ATOM     23  C   UNL     1      -0.746  -1.529  25.017  0.00  0.00    +0.002 A 
ATOM     24  C   UNL     1      -1.153  -1.284  25.693  0.00  0.00    +0.000 A 
ATOM     25  C   UNL     1      -1.286  -0.481  25.825  0.00  0.00    +0.001 A 
ATOM     26  N   UNL     1      -0.332   0.390  24.066  0.00  0.00    -0.244 NA
ATOM     27  C   UNL     1      -0.465   1.194  24.198  0.00  0.00    +0.096 A 
ENDBRANCH  17  18
ENDBRANCH  16  17
ENDBRANCH  15  16
TORSDOF 5
ENDMDL
