MODEL 1
REMARK VINA RESULT:     -12.4      0.000      0.000
REMARK  Name = 
REMARK  7 active torsions:
REMARK  status: ('A' for Active; 'I' for Inactive)
REMARK    1  A    between atoms: C_2  and  C_4
REMARK    2  A    between atoms: C_6  and  C_7
REMARK    3  A    between atoms: C_7  and  C_8
REMARK    4  A    between atoms: C_11  and  C_13
REMARK    5  A    between atoms: C_23  and  C_24
REMARK    6  A    between atoms: C_24  and  N_25
REMARK    7  A    between atoms: C_28  and  C_31
REMARK                            x       y       z     vdW  Elec       q    Type
REMARK                         _______ _______ _______ _____ _____    ______ ____
ROOT
ATOM      4  C   UNL     1      -3.326   1.611  23.610  0.00  0.00    +0.006 C 
ATOM      5  C   UNL     1      -3.541   2.296  24.017  0.00  0.00    +0.005 C 
ATOM      6  C   UNL     1      -4.079   2.252  24.642  0.00  0.00    +0.027 C 
ATOM     20  C   UNL     1      -4.401   1.524  24.858  0.00  0.00    -0.048 C 
ATOM     21  C   UNL     1      -4.939   1.481  25.482  0.00  0.00    +0.026 C 
ATOM     22  C   UNL     1      -4.186   0.840  24.450  0.00  0.00    -0.034 C 
ATOM     23  C   UNL     1      -3.649   0.884  23.827  0.00  0.00    +0.037 C 
ENDROOT
BRANCH   4   2
ATOM      1  C   UNL     1      -3.053   1.845  22.227  0.00  0.00    +0.000 C 
ATOM      2  C   UNL     1      -2.788   1.656  22.986  0.00  0.00    +0.000 C 
ATOM      3  C   UNL     1      -1.988   1.511  23.120  0.00  0.00    +0.000 C 
ENDBRANCH   4   2
BRANCH   6   7
ATOM      7  C   UNL     1      -4.294   2.937  25.049  0.00  0.00    +0.091 C 
BRANCH   7   8
ATOM      8  C   UNL     1      -3.713   3.432  25.358  0.00  0.00    +0.227 A 
ATOM      9  N   UNL     1      -3.666   3.695  26.139  0.00  0.00    -0.111 NA
ATOM     10  N   UNL     1      -2.999   4.178  26.206  0.00  0.00    -0.107 NA
ATOM     11  C   UNL     1      -2.635   4.213  25.466  0.00  0.00    +0.252 A 
ATOM     12  O   UNL     1      -3.076   3.752  24.943  0.00  0.00    -0.419 OA
BRANCH  11  13
ATOM     13  C   UNL     1      -1.951   4.635  25.282  0.00  0.00    +0.083 A 
ATOM     14  C   UNL     1      -2.002   5.425  25.051  0.00  0.00    +0.007 A 
ATOM     15  C   UNL     1      -1.318   5.848  24.867  0.00  0.00    +0.000 A 
ATOM     16  C   UNL     1      -0.581   5.478  24.914  0.00  0.00    +0.002 A 
ATOM     17  C   UNL     1      -0.528   4.689  25.144  0.00  0.00    +0.030 A 
ATOM     18  C   UNL     1      -1.214   4.267  25.329  0.00  0.00    +0.145 A 
ATOM     19  F   UNL     1      -1.162   3.477  25.559  0.00  0.00    -0.204 F 
ENDBRANCH  11  13
ENDBRANCH   7   8
ENDBRANCH   6   7
BRANCH  23  24
ATOM     24  C   UNL     1      -3.433   0.200  23.419  0.00  0.00    +0.076 C 
BRANCH  24  25
ATOM     25  N   UNL     1      -3.455  -0.532  23.801  0.00  0.00    -0.272 NA
ATOM     26  C   UNL     1      -4.097  -1.038  23.687  0.00  0.00    +0.073 C 
ATOM     27  C   UNL     1      -4.118  -1.769  24.068  0.00  0.00    +0.027 C 
ATOM     28  C   UNL     1      -3.497  -1.995  24.564  0.00  0.00    +0.083 C 
ATOM     29  C   UNL     1      -2.856  -1.488  24.678  0.00  0.00    +0.027 C 
ATOM     30  C   UNL     1      -2.835  -0.757  24.296  0.00  0.00    +0.073 C 
BRANCH  28  31
ATOM     31  C   UNL     1      -3.519  -2.725  24.945  0.00  0.00    +0.260 C 
ATOM     32  N   UNL     1      -3.592  -3.419  24.504  0.00  0.00    -0.088 NA
ATOM     33  O   UNL     1      -3.467  -2.763  25.768  0.00  0.00    -0.272 OA
ENDBRANCH  28  31
ENDBRANCH  24  25
ENDBRANCH  23  24
TORSDOF 7
ENDMDL
MODEL 2
REMARK VINA RESULT:     -12.1      0.913      1.757
REMARK  Name = 
REMARK  7 active torsions:
REMARK  status: ('A' for Active; 'I' for Inactive)
REMARK    1  A    between atoms: C_2  and  C_4
REMARK    2  A    between atoms: C_6  and  C_7
REMARK    3  A    between atoms: C_7  and  C_8
REMARK    4  A    between atoms: C_11  and  C_13
REMARK    5  A    between atoms: C_23  and  C_24
REMARK    6  A    between atoms: C_24  and  N_25
REMARK    7  A    between atoms: C_28  and  C_31
REMARK                            x       y       z     vdW  Elec       q    Type
REMARK                         _______ _______ _______ _____ _____    ______ ____
ROOT
ATOM      4  C   UNL     1      -4.971   1.468  24.800  0.00  0.00    +0.006 C 
ATOM      5  C   UNL     1      -4.726   2.180  24.462  0.00  0.00    +0.005 C 
ATOM      6  C   UNL     1      -4.109   2.185  23.914  0.00  0.00    +0.027 C 
ATOM     20  C   UNL     1      -3.737   1.479  23.705  0.00  0.00    -0.048 C 
ATOM     21  C   UNL     1      -3.120   1.485  23.158  0.00  0.00    +0.026 C 
ATOM     22  C   UNL     1      -3.983   0.768  24.043  0.00  0.00    -0.034 C 
ATOM     23  C   UNL     1      -4.599   0.762  24.590  0.00  0.00    +0.037 C 
ENDROOT
BRANCH   4   2
ATOM      1  C   UNL     1      -6.368   1.382  25.088  0.00  0.00    +0.000 C 
ATOM      2  C   UNL     1      -5.588   1.464  25.347  0.00  0.00    +0.000 C 
ATOM      3  C   UNL     1      -5.427   1.541  26.151  0.00  0.00    +0.000 C 
ENDBRANCH   4   2
BRANCH   6   7
ATOM      7  C   UNL     1      -3.864   2.897  23.576  0.00  0.00    +0.091 C 
BRANCH   7   8
ATOM      8  C   UNL     1      -3.443   3.444  24.026  0.00  0.00    +0.227 A 
ATOM      9  N   UNL     1      -3.766   4.079  24.443  0.00  0.00    -0.111 NA
ATOM     10  N   UNL     1      -3.147   4.481  24.814  0.00  0.00    -0.107 NA
ATOM     11  C   UNL     1      -2.443   4.094  24.626  0.00  0.00    +0.252 A 
ATOM     12  O   UNL     1      -2.626   3.453  24.139  0.00  0.00    -0.419 OA
BRANCH  11  13
ATOM     13  C   UNL     1      -1.689   4.309  24.880  0.00  0.00    +0.083 A 
ATOM     14  C   UNL     1      -1.352   5.016  24.620  0.00  0.00    +0.007 A 
ATOM     15  C   UNL     1      -0.597   5.233  24.873  0.00  0.00    +0.000 A 
ATOM     16  C   UNL     1      -0.179   4.741  25.387  0.00  0.00    +0.002 A 
ATOM     17  C   UNL     1      -0.514   4.034  25.647  0.00  0.00    +0.030 A 
ATOM     18  C   UNL     1      -1.270   3.819  25.393  0.00  0.00    +0.145 A 
ATOM     19  F   UNL     1      -1.605   3.112  25.653  0.00  0.00    -0.204 F 
ENDBRANCH  11  13
ENDBRANCH   7   8
ENDBRANCH   6   7
BRANCH  23  24
ATOM     24  C   UNL     1      -4.845   0.052  24.928  0.00  0.00    +0.076 C 
BRANCH  24  25
ATOM     25  N   UNL     1      -4.388  -0.630  24.833  0.00  0.00    -0.272 NA
ATOM     26  C   UNL     1      -4.506  -1.117  24.178  0.00  0.00    +0.073 C 
ATOM     27  C   UNL     1      -4.050  -1.798  24.083  0.00  0.00    +0.027 C 
ATOM     28  C   UNL     1      -3.475  -1.992  24.644  0.00  0.00    +0.083 C 
ATOM     29  C   UNL     1      -3.358  -1.504  25.299  0.00  0.00    +0.027 C 
ATOM     30  C   UNL     1      -3.814  -0.823  25.393  0.00  0.00    +0.073 C 
BRANCH  28  31
ATOM     31  C   UNL     1      -3.019  -2.671  24.549  0.00  0.00    +0.260 C 
ATOM     32  N   UNL     1      -2.205  -2.609  24.429  0.00  0.00    -0.088 NA
ATOM     33  O   UNL     1      -3.376  -3.415  24.575  0.00  0.00    -0.272 OA
ENDBRANCH  28  31
ENDBRANCH  24  25
ENDBRANCH  23  24
TORSDOF 7
ENDMDL
MODEL 3
REMARK VINA RESULT:     -11.7      1.887      5.320
REMARK  Name = 
REMARK  7 active torsions:
REMARK  status: ('A' for Active; 'I' for Inactive)
REMARK    1  A    between atoms: C_2  and  C_4
REMARK    2  A    between atoms: C_6  and  C_7
REMARK    3  A    between atoms: C_7  and  C_8
REMARK    4  A    between atoms: C_11  and  C_13
REMARK    5  A    between atoms: C_23  and  C_24
REMARK    6  A    between atoms: C_24  and  N_25
REMARK    7  A    between atoms: C_28  and  C_31
REMARK                            x       y       z     vdW  Elec       q    Type
REMARK                         _______ _______ _______ _____ _____    ______ ____
ROOT
ATOM      4  C   UNL     1      -1.333   2.679  24.866  0.00  0.00    +0.006 C 
ATOM      5  C   UNL     1      -1.019   1.992  24.535  0.00  0.00    +0.005 C 
ATOM      6  C   UNL     1      -1.429   1.598  23.936  0.00  0.00    +0.027 C 
ATOM     20  C   UNL     1      -2.153   1.892  23.669  0.00  0.00    -0.048 C 
ATOM     21  C   UNL     1      -2.562   1.499  23.072  0.00  0.00    +0.026 C 
ATOM     22  C   UNL     1      -2.466   2.579  24.002  0.00  0.00    -0.034 C 
ATOM     23  C   UNL     1      -2.057   2.972  24.600  0.00  0.00    +0.037 C 
ENDROOT
BRANCH   4   2
ATOM      1  C   UNL     1      -0.556   3.794  25.306  0.00  0.00    +0.000 C 
ATOM      2  C   UNL     1      -0.923   3.072  25.464  0.00  0.00    +0.000 C 
ATOM      3  C   UNL     1      -0.880   2.743  26.219  0.00  0.00    +0.000 C 
ENDBRANCH   4   2
BRANCH   6   7
ATOM      7  C   UNL     1      -1.115   0.911  23.605  0.00  0.00    +0.091 C 
BRANCH   7   8
ATOM      8  C   UNL     1      -1.184   0.193  24.003  0.00  0.00    +0.227 A 
ATOM      9  N   UNL     1      -0.565  -0.233  24.344  0.00  0.00    -0.111 NA
ATOM     10  N   UNL     1      -0.881  -0.916  24.682  0.00  0.00    -0.107 NA
ATOM     11  C   UNL     1      -1.696  -0.913  24.549  0.00  0.00    +0.252 A 
ATOM     12  O   UNL     1      -1.882  -0.227  24.129  0.00  0.00    -0.419 OA
BRANCH  11  13
ATOM     13  C   UNL     1      -2.230  -1.492  24.793  0.00  0.00    +0.083 A 
ATOM     14  C   UNL     1      -2.299  -2.195  24.366  0.00  0.00    +0.007 A 
ATOM     15  C   UNL     1      -2.833  -2.775  24.609  0.00  0.00    +0.000 A 
ATOM     16  C   UNL     1      -3.298  -2.652  25.280  0.00  0.00    +0.002 A 
ATOM     17  C   UNL     1      -3.229  -1.950  25.707  0.00  0.00    +0.030 A 
ATOM     18  C   UNL     1      -2.694  -1.369  25.463  0.00  0.00    +0.145 A 
ATOM     19  F   UNL     1      -2.626  -0.667  25.890  0.00  0.00    -0.204 F 
ENDBRANCH  11  13
ENDBRANCH   7   8
ENDBRANCH   6   7
BRANCH  23  24
ATOM     24  C   UNL     1      -2.370   3.659  24.931  0.00  0.00    +0.076 C 
BRANCH  24  25
ATOM     25  N   UNL     1      -3.177   3.705  25.099  0.00  0.00    -0.272 NA
ATOM     26  C   UNL     1      -3.462   3.447  25.829  0.00  0.00    +0.073 C 
ATOM     27  C   UNL     1      -4.269   3.493  25.996  0.00  0.00    +0.027 C 
ATOM     28  C   UNL     1      -4.790   3.798  25.433  0.00  0.00    +0.083 C 
ATOM     29  C   UNL     1      -4.504   4.056  24.704  0.00  0.00    +0.027 C 
ATOM     30  C   UNL     1      -3.698   4.010  24.537  0.00  0.00    +0.073 C 
BRANCH  28  31
ATOM     31  C   UNL     1      -5.596   3.844  25.600  0.00  0.00    +0.260 C 
ATOM     32  N   UNL     1      -6.029   3.155  25.742  0.00  0.00    -0.088 NA
ATOM     33  O   UNL     1      -5.971   4.578  25.626  0.00  0.00    -0.272 OA
ENDBRANCH  28  31
ENDBRANCH  24  25
ENDBRANCH  23  24
TORSDOF 7
ENDMDL
MODEL 4
REMARK VINA RESULT:     -11.6      1.469      5.368
REMARK  Name = 
REMARK  7 active torsions:
REMARK  status: ('A' for Active; 'I' for Inactive)
REMARK    1  A    between atoms: C_2  and  C_4
REMARK    2  A    between atoms: C_6  and  C_7
REMARK    3  A    between atoms: C_7  and  C_8
REMARK    4  A    between atoms: C_11  and  C_13
REMARK    5  A    between atoms: C_23  and  C_24
REMARK    6  A    between atoms: C_24  and  N_25
REMARK    7  A    between atoms: C_28  and  C_31
REMARK                            x       y       z     vdW  Elec       q    Type
REMARK                         _______ _______ _______ _____ _____    ______ ____
ROOT
ATOM      4  C   UNL     1      -4.782   1.763  24.920  0.00  0.00    +0.006 C 
ATOM      5  C   UNL     1      -4.738   1.007  24.595  0.00  0.00    +0.005 C 
ATOM      6  C   UNL     1      -4.156   0.832  24.036  0.00  0.00    +0.027 C 
ATOM     20  C   UNL     1      -3.618   1.413  23.804  0.00  0.00    -0.048 C 
ATOM     21  C   UNL     1      -3.037   1.238  23.247  0.00  0.00    +0.026 C 
ATOM     22  C   UNL     1      -3.663   2.169  24.131  0.00  0.00    -0.034 C 
ATOM     23  C   UNL     1      -4.245   2.344  24.689  0.00  0.00    +0.037 C 
ENDROOT
BRANCH   4   2
ATOM      1  C   UNL     1      -5.251   1.731  26.270  0.00  0.00    +0.000 C 
ATOM      2  C   UNL     1      -5.364   1.937  25.478  0.00  0.00    +0.000 C 
ATOM      3  C   UNL     1      -6.058   2.317  25.246  0.00  0.00    +0.000 C 
ENDBRANCH   4   2
BRANCH   6   7
ATOM      7  C   UNL     1      -4.112   0.075  23.710  0.00  0.00    +0.091 C 
BRANCH   7   8
ATOM      8  C   UNL     1      -3.746  -0.533  24.128  0.00  0.00    +0.227 A 
ATOM      9  N   UNL     1      -4.128  -1.130  24.551  0.00  0.00    -0.111 NA
ATOM     10  N   UNL     1      -3.551  -1.619  24.881  0.00  0.00    -0.107 NA
ATOM     11  C   UNL     1      -2.812  -1.324  24.662  0.00  0.00    +0.252 A 
ATOM     12  O   UNL     1      -2.933  -0.654  24.196  0.00  0.00    -0.419 OA
BRANCH  11  13
ATOM     13  C   UNL     1      -2.081  -1.644  24.871  0.00  0.00    +0.083 A 
ATOM     14  C   UNL     1      -1.799  -2.317  24.485  0.00  0.00    +0.007 A 
ATOM     15  C   UNL     1      -1.068  -2.637  24.693  0.00  0.00    +0.000 A 
ATOM     16  C   UNL     1      -0.618  -2.284  25.288  0.00  0.00    +0.002 A 
ATOM     17  C   UNL     1      -0.899  -1.611  25.675  0.00  0.00    +0.030 A 
ATOM     18  C   UNL     1      -1.631  -1.291  25.465  0.00  0.00    +0.145 A 
ATOM     19  F   UNL     1      -1.912  -0.619  25.851  0.00  0.00    -0.204 F 
ENDBRANCH  11  13
ENDBRANCH   7   8
ENDBRANCH   6   7
BRANCH  23  24
ATOM     24  C   UNL     1      -4.289   3.100  25.015  0.00  0.00    +0.076 C 
BRANCH  24  25
ATOM     25  N   UNL     1      -3.612   3.572  25.058  0.00  0.00    -0.272 NA
ATOM     26  C   UNL     1      -3.431   4.090  24.442  0.00  0.00    +0.073 C 
ATOM     27  C   UNL     1      -2.755   4.561  24.486  0.00  0.00    +0.027 C 
ATOM     28  C   UNL     1      -2.260   4.513  25.145  0.00  0.00    +0.083 C 
ATOM     29  C   UNL     1      -2.442   3.995  25.760  0.00  0.00    +0.027 C 
ATOM     30  C   UNL     1      -3.118   3.524  25.717  0.00  0.00    +0.073 C 
BRANCH  28  31
ATOM     31  C   UNL     1      -1.585   4.984  25.188  0.00  0.00    +0.260 C 
ATOM     32  N   UNL     1      -0.838   4.642  25.105  0.00  0.00    -0.088 NA
ATOM     33  O   UNL     1      -1.655   5.796  25.314  0.00  0.00    -0.272 OA
ENDBRANCH  28  31
ENDBRANCH  24  25
ENDBRANCH  23  24
TORSDOF 7
ENDMDL
MODEL 5
REMARK VINA RESULT:     -11.6      2.153      3.551
REMARK  Name = 
REMARK  7 active torsions:
REMARK  status: ('A' for Active; 'I' for Inactive)
REMARK    1  A    between atoms: C_2  and  C_4
REMARK    2  A    between atoms: C_6  and  C_7
REMARK    3  A    between atoms: C_7  and  C_8
REMARK    4  A    between atoms: C_11  and  C_13
REMARK    5  A    between atoms: C_23  and  C_24
REMARK    6  A    between atoms: C_24  and  N_25
REMARK    7  A    between atoms: C_28  and  C_31
REMARK                            x       y       z     vdW  Elec       q    Type
REMARK                         _______ _______ _______ _____ _____    ______ ____
ROOT
ATOM      4  C   UNL     1      -1.279   2.463  24.689  0.00  0.00    +0.006 C 
ATOM      5  C   UNL     1      -1.907   2.893  24.369  0.00  0.00    +0.005 C 
ATOM      6  C   UNL     1      -2.365   2.566  23.765  0.00  0.00    +0.027 C 
ATOM     20  C   UNL     1      -2.195   1.811  23.480  0.00  0.00    -0.048 C 
ATOM     21  C   UNL     1      -2.652   1.485  22.877  0.00  0.00    +0.026 C 
ATOM     22  C   UNL     1      -1.567   1.382  23.800  0.00  0.00    -0.034 C 
ATOM     23  C   UNL     1      -1.109   1.707  24.404  0.00  0.00    +0.037 C 
ENDROOT
BRANCH   4   2
ATOM      1  C   UNL     1      -0.086   3.119  25.119  0.00  0.00    +0.000 C 
ATOM      2  C   UNL     1      -0.822   2.789  25.292  0.00  0.00    +0.000 C 
ATOM      3  C   UNL     1      -1.100   2.786  26.068  0.00  0.00    +0.000 C 
ENDBRANCH   4   2
BRANCH   6   7
ATOM      7  C   UNL     1      -2.992   2.996  23.446  0.00  0.00    +0.091 C 
BRANCH   7   8
ATOM      8  C   UNL     1      -3.663   3.145  23.900  0.00  0.00    +0.227 A 
ATOM      9  N   UNL     1      -3.997   3.887  24.043  0.00  0.00    -0.111 NA
ATOM     10  N   UNL     1      -4.660   3.779  24.523  0.00  0.00    -0.107 NA
ATOM     11  C   UNL     1      -4.735   2.972  24.677  0.00  0.00    +0.252 A 
ATOM     12  O   UNL     1      -4.119   2.581  24.291  0.00  0.00    -0.419 OA
BRANCH  11  13
ATOM     13  C   UNL     1      -5.323   2.619  25.135  0.00  0.00    +0.083 A 
ATOM     14  C   UNL     1      -5.881   2.125  24.781  0.00  0.00    +0.007 A 
ATOM     15  C   UNL     1      -6.470   1.771  25.238  0.00  0.00    +0.000 A 
ATOM     16  C   UNL     1      -6.499   1.911  26.051  0.00  0.00    +0.002 A 
ATOM     17  C   UNL     1      -5.941   2.404  26.406  0.00  0.00    +0.030 A 
ATOM     18  C   UNL     1      -5.353   2.758  25.947  0.00  0.00    +0.145 A 
ATOM     19  F   UNL     1      -4.795   3.251  26.302  0.00  0.00    -0.204 F 
ENDBRANCH  11  13
ENDBRANCH   7   8
ENDBRANCH   6   7
BRANCH  23  24
ATOM     24  C   UNL     1      -0.482   1.278  24.723  0.00  0.00    +0.076 C 
BRANCH  24  25
ATOM     25  N   UNL     1      -0.539   0.458  24.799  0.00  0.00    -0.272 NA
ATOM     26  C   UNL     1      -0.952   0.131  25.435  0.00  0.00    +0.073 C 
ATOM     27  C   UNL     1      -1.009  -0.689  25.511  0.00  0.00    +0.027 C 
ATOM     28  C   UNL     1      -0.654  -1.181  24.951  0.00  0.00    +0.083 C 
ATOM     29  C   UNL     1      -0.242  -0.853  24.316  0.00  0.00    +0.027 C 
ATOM     30  C   UNL     1      -0.185  -0.033  24.240  0.00  0.00    +0.073 C 
BRANCH  28  31
ATOM     31  C   UNL     1      -0.711  -2.000  25.027  0.00  0.00    +0.260 C 
ATOM     32  N   UNL     1      -1.350  -2.402  24.693  0.00  0.00    -0.088 NA
ATOM     33  O   UNL     1      -0.130  -2.418  25.436  0.00  0.00    -0.272 OA
ENDBRANCH  28  31
ENDBRANCH  24  25
ENDBRANCH  23  24
TORSDOF 7
ENDMDL
MODEL 6
REMARK VINA RESULT:     -11.2      1.372      2.031
REMARK  Name = 
REMARK  7 active torsions:
REMARK  status: ('A' for Active; 'I' for Inactive)
REMARK    1  A    between atoms: C_2  and  C_4
REMARK    2  A    between atoms: C_6  and  C_7
REMARK    3  A    between atoms: C_7  and  C_8
REMARK    4  A    between atoms: C_11  and  C_13
REMARK    5  A    between atoms: C_23  and  C_24
REMARK    6  A    between atoms: C_24  and  N_25
REMARK    7  A    between atoms: C_28  and  C_31
REMARK                            x       y       z     vdW  Elec       q    Type
REMARK                         _______ _______ _______ _____ _____    ______ ____
ROOT
ATOM      4  C   UNL     1      -3.038   1.195  24.728  0.00  0.00    +0.006 C 
ATOM      5  C   UNL     1      -2.312   1.586  24.713  0.00  0.00    +0.005 C 
ATOM      6  C   UNL     1      -1.614   1.164  24.838  0.00  0.00    +0.027 C 
ATOM     20  C   UNL     1      -1.642   0.352  24.979  0.00  0.00    -0.048 C 
ATOM     21  C   UNL     1      -0.945  -0.070  25.104  0.00  0.00    +0.026 C 
ATOM     22  C   UNL     1      -2.369  -0.039  24.994  0.00  0.00    -0.034 C 
ATOM     23  C   UNL     1      -3.067   0.383  24.868  0.00  0.00    +0.037 C 
ENDROOT
BRANCH   4   2
ATOM      1  C   UNL     1      -3.944   1.851  23.839  0.00  0.00    +0.000 C 
ATOM      2  C   UNL     1      -3.736   1.617  24.603  0.00  0.00    +0.000 C 
ATOM      3  C   UNL     1      -4.224   1.806  25.239  0.00  0.00    +0.000 C 
ENDBRANCH   4   2
BRANCH   6   7
ATOM      7  C   UNL     1      -0.888   1.555  24.823  0.00  0.00    +0.091 C 
BRANCH   7   8
ATOM      8  C   UNL     1      -0.822   2.316  25.134  0.00  0.00    +0.227 A 
ATOM      9  N   UNL     1      -0.506   2.513  25.871  0.00  0.00    -0.111 NA
ATOM     10  N   UNL     1      -0.550   3.333  25.956  0.00  0.00    -0.107 NA
ATOM     11  C   UNL     1      -0.893   3.642  25.272  0.00  0.00    +0.252 A 
ATOM     12  O   UNL     1      -1.061   3.013  24.765  0.00  0.00    -0.419 OA
BRANCH  11  13
ATOM     13  C   UNL     1      -1.042   4.439  25.122  0.00  0.00    +0.083 A 
ATOM     14  C   UNL     1      -0.511   4.880  24.669  0.00  0.00    +0.007 A 
ATOM     15  C   UNL     1      -0.659   5.677  24.518  0.00  0.00    +0.000 A 
ATOM     16  C   UNL     1      -1.339   6.034  24.822  0.00  0.00    +0.002 A 
ATOM     17  C   UNL     1      -1.869   5.595  25.275  0.00  0.00    +0.030 A 
ATOM     18  C   UNL     1      -1.720   4.796  25.425  0.00  0.00    +0.145 A 
ATOM     19  F   UNL     1      -2.251   4.357  25.878  0.00  0.00    -0.204 F 
ENDBRANCH  11  13
ENDBRANCH   7   8
ENDBRANCH   6   7
BRANCH  23  24
ATOM     24  C   UNL     1      -3.793  -0.008  24.883  0.00  0.00    +0.076 C 
BRANCH  24  25
ATOM     25  N   UNL     1      -3.834  -0.811  24.693  0.00  0.00    -0.272 NA
ATOM     26  C   UNL     1      -4.022  -1.043  23.924  0.00  0.00    +0.073 C 
ATOM     27  C   UNL     1      -4.063  -1.844  23.734  0.00  0.00    +0.027 C 
ATOM     28  C   UNL     1      -3.916  -2.414  24.313  0.00  0.00    +0.083 C 
ATOM     29  C   UNL     1      -3.727  -2.181  25.082  0.00  0.00    +0.027 C 
ATOM     30  C   UNL     1      -3.686  -1.379  25.272  0.00  0.00    +0.073 C 
BRANCH  28  31
ATOM     31  C   UNL     1      -3.957  -3.215  24.124  0.00  0.00    +0.260 C 
ATOM     32  N   UNL     1      -3.413  -3.745  24.448  0.00  0.00    -0.088 NA
ATOM     33  O   UNL     1      -4.541  -3.488  23.609  0.00  0.00    -0.272 OA
ENDBRANCH  28  31
ENDBRANCH  24  25
ENDBRANCH  23  24
TORSDOF 7
ENDMDL
MODEL 7
REMARK VINA RESULT:     -11.0      2.145      5.939
REMARK  Name = 
REMARK  7 active torsions:
REMARK  status: ('A' for Active; 'I' for Inactive)
REMARK    1  A    between atoms: C_2  and  C_4
REMARK    2  A    between atoms: C_6  and  C_7
REMARK    3  A    between atoms: C_7  and  C_8
REMARK    4  A    between atoms: C_11  and  C_13
REMARK    5  A    between atoms: C_23  and  C_24
REMARK    6  A    between atoms: C_24  and  N_25
REMARK    7  A    between atoms: C_28  and  C_31
REMARK                            x       y       z     vdW  Elec       q    Type
REMARK                         _______ _______ _______ _____ _____    ______ ____
ROOT
ATOM      4  C   UNL     1      -0.071   0.557  24.232  0.00  0.00    +0.006 C 
ATOM      5  C   UNL     1      -0.260  -0.183  24.545  0.00  0.00    +0.005 C 
ATOM      6  C   UNL     1      -0.684  -0.235  25.252  0.00  0.00    +0.027 C 
ATOM     20  C   UNL     1      -0.919   0.452  25.644  0.00  0.00    -0.048 C 
ATOM     21  C   UNL     1      -1.343   0.399  26.349  0.00  0.00    +0.026 C 
ATOM     22  C   UNL     1      -0.730   1.191  25.330  0.00  0.00    -0.034 C 
ATOM     23  C   UNL     1      -0.306   1.244  24.625  0.00  0.00    +0.037 C 
ENDROOT
BRANCH   4   2
ATOM      1  C   UNL     1       1.170   0.724  23.545  0.00  0.00    +0.000 C 
ATOM      2  C   UNL     1       0.353   0.609  23.527  0.00  0.00    +0.000 C 
ATOM      3  C   UNL     1      -0.039   0.545  22.805  0.00  0.00    +0.000 C 
ENDBRANCH   4   2
BRANCH   6   7
ATOM      7  C   UNL     1      -0.873  -0.975  25.565  0.00  0.00    +0.091 C 
BRANCH   7   8
ATOM      8  C   UNL     1      -1.344  -1.496  25.135  0.00  0.00    +0.227 A 
ATOM      9  N   UNL     1      -1.085  -2.178  24.749  0.00  0.00    -0.111 NA
ATOM     10  N   UNL     1      -1.739  -2.532  24.390  0.00  0.00    -0.107 NA
ATOM     11  C   UNL     1      -2.402  -2.069  24.555  0.00  0.00    +0.252 A 
ATOM     12  O   UNL     1      -2.158  -1.429  25.015  0.00  0.00    -0.419 OA
BRANCH  11  13
ATOM     13  C   UNL     1      -3.173  -2.219  24.304  0.00  0.00    +0.083 A 
ATOM     14  C   UNL     1      -3.506  -2.966  24.416  0.00  0.00    +0.007 A 
ATOM     15  C   UNL     1      -4.277  -3.117  24.166  0.00  0.00    +0.000 A 
ATOM     16  C   UNL     1      -4.716  -2.520  23.802  0.00  0.00    +0.002 A 
ATOM     17  C   UNL     1      -4.384  -1.774  23.689  0.00  0.00    +0.030 A 
ATOM     18  C   UNL     1      -3.612  -1.623  23.941  0.00  0.00    +0.145 A 
ATOM     19  F   UNL     1      -3.281  -0.877  23.828  0.00  0.00    -0.204 F 
ENDBRANCH  11  13
ENDBRANCH   7   8
ENDBRANCH   6   7
BRANCH  23  24
ATOM     24  C   UNL     1      -0.117   1.982  24.311  0.00  0.00    +0.076 C 
BRANCH  24  25
ATOM     25  N   UNL     1      -0.522   2.655  24.567  0.00  0.00    -0.272 NA
ATOM     26  C   UNL     1      -1.244   2.857  24.223  0.00  0.00    +0.073 C 
ATOM     27  C   UNL     1      -1.648   3.530  24.479  0.00  0.00    +0.027 C 
ATOM     28  C   UNL     1      -1.330   3.999  25.079  0.00  0.00    +0.083 C 
ATOM     29  C   UNL     1      -0.608   3.796  25.422  0.00  0.00    +0.027 C 
ATOM     30  C   UNL     1      -0.204   3.124  25.166  0.00  0.00    +0.073 C 
BRANCH  28  31
ATOM     31  C   UNL     1      -1.734   4.671  25.334  0.00  0.00    +0.260 C 
ATOM     32  N   UNL     1      -2.449   4.593  25.741  0.00  0.00    -0.088 NA
ATOM     33  O   UNL     1      -1.425   5.421  25.184  0.00  0.00    -0.272 OA
ENDBRANCH  28  31
ENDBRANCH  24  25
ENDBRANCH  23  24
TORSDOF 7
ENDMDL
MODEL 8
REMARK VINA RESULT:     -10.9      1.823      5.834
REMARK  Name = 
REMARK  7 active torsions:
REMARK  status: ('A' for Active; 'I' for Inactive)
REMARK    1  A    between atoms: C_2  and  C_4
REMARK    2  A    between atoms: C_6  and  C_7
REMARK    3  A    between atoms: C_7  and  C_8
REMARK    4  A    between atoms: C_11  and  C_13
REMARK    5  A    between atoms: C_23  and  C_24
REMARK    6  A    between atoms: C_24  and  N_25
REMARK    7  A    between atoms: C_28  and  C_31
REMARK                            x       y       z     vdW  Elec       q    Type
REMARK                         _______ _______ _______ _____ _____    ______ ____
ROOT
ATOM      4  C   UNL     1      -1.579   1.189  24.360  0.00  0.00    +0.006 C 
ATOM      5  C   UNL     1      -2.220   0.780  24.041  0.00  0.00    +0.005 C 
ATOM      6  C   UNL     1      -2.893   1.194  23.799  0.00  0.00    +0.027 C 
ATOM     20  C   UNL     1      -2.924   2.014  23.877  0.00  0.00    -0.048 C 
ATOM     21  C   UNL     1      -3.595   2.427  23.636  0.00  0.00    +0.026 C 
ATOM     22  C   UNL     1      -2.281   2.422  24.197  0.00  0.00    -0.034 C 
ATOM     23  C   UNL     1      -1.609   2.010  24.438  0.00  0.00    +0.037 C 
ENDROOT
BRANCH   4   2
ATOM      1  C   UNL     1      -0.831   0.536  25.388  0.00  0.00    +0.000 C 
ATOM      2  C   UNL     1      -0.907   0.776  24.601  0.00  0.00    +0.000 C 
ATOM      3  C   UNL     1      -0.312   0.602  24.058  0.00  0.00    +0.000 C 
ENDBRANCH   4   2
BRANCH   6   7
ATOM      7  C   UNL     1      -3.535   0.785  23.480  0.00  0.00    +0.091 C 
BRANCH   7   8
ATOM      8  C   UNL     1      -3.824   0.112  23.857  0.00  0.00    +0.227 A 
ATOM      9  N   UNL     1      -4.478   0.081  24.361  0.00  0.00    -0.111 NA
ATOM     10  N   UNL     1      -4.569  -0.700  24.612  0.00  0.00    -0.107 NA
ATOM     11  C   UNL     1      -3.973  -1.151  24.264  0.00  0.00    +0.252 A 
ATOM     12  O   UNL     1      -3.512  -0.649  23.798  0.00  0.00    -0.419 OA
BRANCH  11  13
ATOM     13  C   UNL     1      -3.856  -1.961  24.365  0.00  0.00    +0.083 A 
ATOM     14  C   UNL     1      -4.097  -2.489  23.778  0.00  0.00    +0.007 A 
ATOM     15  C   UNL     1      -3.982  -3.299  23.877  0.00  0.00    +0.000 A 
ATOM     16  C   UNL     1      -3.624  -3.583  24.565  0.00  0.00    +0.002 A 
ATOM     17  C   UNL     1      -3.382  -3.056  25.153  0.00  0.00    +0.030 A 
ATOM     18  C   UNL     1      -3.499  -2.245  25.052  0.00  0.00    +0.145 A 
ATOM     19  F   UNL     1      -3.258  -1.718  25.639  0.00  0.00    -0.204 F 
ENDBRANCH  11  13
ENDBRANCH   7   8
ENDBRANCH   6   7
BRANCH  23  24
ATOM     24  C   UNL     1      -0.968   2.417  24.758  0.00  0.00    +0.076 C 
BRANCH  24  25
ATOM     25  N   UNL     1      -0.986   3.241  24.809  0.00  0.00    -0.272 NA
ATOM     26  C   UNL     1      -0.663   3.699  24.203  0.00  0.00    +0.073 C 
ATOM     27  C   UNL     1      -0.681   4.522  24.255  0.00  0.00    +0.027 C 
ATOM     28  C   UNL     1      -1.024   4.888  24.911  0.00  0.00    +0.083 C 
ATOM     29  C   UNL     1      -1.347   4.429  25.515  0.00  0.00    +0.027 C 
ATOM     30  C   UNL     1      -1.328   3.606  25.464  0.00  0.00    +0.073 C 
BRANCH  28  31
ATOM     31  C   UNL     1      -1.042   5.710  24.962  0.00  0.00    +0.260 C 
ATOM     32  N   UNL     1      -1.755   6.099  25.112  0.00  0.00    -0.088 NA
ATOM     33  O   UNL     1      -0.349   6.146  24.864  0.00  0.00    -0.272 OA
ENDBRANCH  28  31
ENDBRANCH  24  25
ENDBRANCH  23  24
TORSDOF 7
ENDMDL
