MODEL 1
REMARK VINA RESULT:     -10.5      0.000      0.000
REMARK  Name = 
REMARK  9 active torsions:
REMARK  status: ('A' for Active; 'I' for Inactive)
REMARK    1  A    between atoms: O_2  and  C_3
REMARK    2  A    between atoms: C_6  and  C_7
REMARK    3  A    between atoms: C_7  and  C_8
REMARK    4  A    between atoms: C_8  and  N_9
REMARK    5  A    between atoms: C_8  and  C_30
REMARK    6  A    between atoms: C_10  and  C_12
REMARK    7  A    between atoms: C_19  and  N_21
REMARK    8  A    between atoms: C_22  and  C_24
REMARK    9  A    between atoms: C_24  and  C_25
REMARK                            x       y       z     vdW  Elec       q    Type
REMARK                         _______ _______ _______ _____ _____    ______ ____
ROOT
ATOM     12  C   UNL     1      -1.404   1.403  24.248  0.00  0.00    +0.200 C 
ATOM     13  O   UNL     1      -2.226   1.403  24.308  0.00  0.00    -0.216 OA
ATOM     14  C   UNL     1      -0.629   1.684  24.210  0.00  0.00    +0.075 C 
ATOM     15  C   UNL     1      -0.001   1.155  24.132  0.00  0.00    +0.187 C 
ATOM     16  O   UNL     1       0.773   1.436  24.094  0.00  0.00    -0.220 OA
ATOM     17  C   UNL     1      -0.147   0.344  24.091  0.00  0.00    +0.202 C 
ATOM     18  O   UNL     1       0.480  -0.186  24.012  0.00  0.00    -0.219 OA
ATOM     19  C   UNL     1      -0.922   0.062  24.129  0.00  0.00    +0.131 C 
ATOM     20  C   UNL     1      -1.551   0.592  24.208  0.00  0.00    +0.064 C 
ENDROOT
BRANCH  12  10
ATOM      9  N   UNL     1      -1.983   2.510  24.941  0.00  0.00    -0.195 NA
ATOM     10  C   UNL     1      -1.542   2.213  24.310  0.00  0.00    +0.269 C 
ATOM     11  O   UNL     1      -1.241   2.729  23.740  0.00  0.00    -0.271 OA
BRANCH   9   8
ATOM      8  C   UNL     1      -2.122   3.321  25.003  0.00  0.00    +0.179 C 
BRANCH   8  30
ATOM     30  C   UNL     1      -1.609   3.795  25.443  0.00  0.00    +0.281 C 
ATOM     31  N   UNL     1      -1.336   4.508  25.131  0.00  0.00    -0.086 NA
ATOM     32  O   UNL     1      -1.369   3.554  26.195  0.00  0.00    -0.270 OA
ENDBRANCH   8  30
BRANCH   8   7
ATOM      7  C   UNL     1      -2.774   3.658  24.625  0.00  0.00    +0.057 C 
BRANCH   7   6
ATOM      3  C   UNL     1      -5.035   3.404  25.598  0.00  0.00    +0.139 A 
ATOM      4  C   UNL     1      -4.424   3.722  26.052  0.00  0.00    +0.037 A 
ATOM      5  C   UNL     1      -3.671   3.807  25.728  0.00  0.00    -0.001 A 
ATOM      6  C   UNL     1      -3.527   3.573  24.949  0.00  0.00    -0.020 A 
ATOM     33  C   UNL     1      -4.138   3.255  24.495  0.00  0.00    -0.001 A 
ATOM     34  C   UNL     1      -4.892   3.170  24.820  0.00  0.00    +0.037 A 
BRANCH   3   2
ATOM      1  C   UNL     1      -6.126   2.569  25.992  0.00  0.00    +0.252 C 
ATOM      2  O   UNL     1      -5.789   3.319  25.922  0.00  0.00    -0.471 OA
ENDBRANCH   3   2
ENDBRANCH   7   6
ENDBRANCH   8   7
ENDBRANCH   9   8
ENDBRANCH  12  10
BRANCH  19  21
ATOM     21  N   UNL     1      -1.069  -0.748  24.088  0.00  0.00    -0.204 NA
ATOM     22  C   UNL     1      -1.366  -1.148  24.746  0.00  0.00    +0.246 C 
ATOM     23  O   UNL     1      -1.515  -0.736  25.445  0.00  0.00    -0.273 OA
BRANCH  22  24
ATOM     24  C   UNL     1      -1.513  -1.958  24.705  0.00  0.00    +0.120 C 
BRANCH  24  25
ATOM     25  C   UNL     1      -2.287  -2.239  24.745  0.00  0.00    +0.016 A 
ATOM     26  C   UNL     1      -2.800  -2.162  25.387  0.00  0.00    +0.003 A 
ATOM     27  C   UNL     1      -3.515  -2.522  25.188  0.00  0.00    +0.007 A 
ATOM     28  C   UNL     1      -3.444  -2.822  24.423  0.00  0.00    +0.035 A 
ATOM     29  S   UNL     1      -2.686  -2.647  24.149  0.00  0.00    -0.090 S 
ENDBRANCH  24  25
ENDBRANCH  22  24
ENDBRANCH  19  21
TORSDOF 9
ENDMDL
MODEL 2
REMARK VINA RESULT:     -10.1      2.246      5.765
REMARK  Name = 
REMARK  9 active torsions:
REMARK  status: ('A' for Active; 'I' for Inactive)
REMARK    1  A    between atoms: O_2  and  C_3
REMARK    2  A    between atoms: C_6  and  C_7
REMARK    3  A    between atoms: C_7  and  C_8
REMARK    4  A    between atoms: C_8  and  N_9
REMARK    5  A    between atoms: C_8  and  C_30
REMARK    6  A    between atoms: C_10  and  C_12
REMARK    7  A    between atoms: C_19  and  N_21
REMARK    8  A    between atoms: C_22  and  C_24
REMARK    9  A    between atoms: C_24  and  C_25
REMARK                            x       y       z     vdW  Elec       q    Type
REMARK                         _______ _______ _______ _____ _____    ______ ____
ROOT
ATOM     12  C   UNL     1      -4.151   1.447  24.904  0.00  0.00    +0.200 C 
ATOM     13  O   UNL     1      -3.430   1.227  24.570  0.00  0.00    -0.216 OA
ATOM     14  C   UNL     1      -4.909   1.383  25.224  0.00  0.00    +0.075 C 
ATOM     15  C   UNL     1      -5.312   2.061  25.468  0.00  0.00    +0.187 C 
ATOM     16  O   UNL     1      -6.069   1.997  25.788  0.00  0.00    -0.220 OA
ATOM     17  C   UNL     1      -4.958   2.801  25.392  0.00  0.00    +0.202 C 
ATOM     18  O   UNL     1      -5.360   3.479  25.636  0.00  0.00    -0.219 OA
ATOM     19  C   UNL     1      -4.200   2.866  25.072  0.00  0.00    +0.131 C 
ATOM     20  C   UNL     1      -3.796   2.188  24.828  0.00  0.00    +0.064 C 
ENDROOT
BRANCH  12  10
ATOM      9  N   UNL     1      -3.649   0.151  24.574  0.00  0.00    -0.195 NA
ATOM     10  C   UNL     1      -4.255   0.630  24.864  0.00  0.00    +0.269 C 
ATOM     11  O   UNL     1      -4.965   0.291  25.114  0.00  0.00    -0.271 OA
BRANCH   9   8
ATOM      8  C   UNL     1      -3.753  -0.667  24.534  0.00  0.00    +0.179 C 
BRANCH   8  30
ATOM     30  C   UNL     1      -4.126  -1.003  23.879  0.00  0.00    +0.281 C 
ATOM     31  N   UNL     1      -4.696  -1.590  23.984  0.00  0.00    -0.086 NA
ATOM     32  O   UNL     1      -3.927  -0.752  23.118  0.00  0.00    -0.270 OA
ENDBRANCH   8  30
BRANCH   8   7
ATOM      7  C   UNL     1      -3.485  -1.148  25.148  0.00  0.00    +0.057 C 
BRANCH   7   6
ATOM      3  C   UNL     1      -1.087  -1.741  25.298  0.00  0.00    +0.139 A 
ATOM      4  C   UNL     1      -1.572  -2.118  24.747  0.00  0.00    +0.037 A 
ATOM      5  C   UNL     1      -2.371  -1.920  24.697  0.00  0.00    -0.001 A 
ATOM      6  C   UNL     1      -2.686  -1.345  25.198  0.00  0.00    -0.020 A 
ATOM     33  C   UNL     1      -2.202  -0.968  25.749  0.00  0.00    -0.001 A 
ATOM     34  C   UNL     1      -1.402  -1.166  25.800  0.00  0.00    +0.037 A 
BRANCH   3   2
ATOM      1  C   UNL     1       0.253  -1.610  24.818  0.00  0.00    +0.252 C 
ATOM      2  O   UNL     1      -0.287  -1.939  25.348  0.00  0.00    -0.471 OA
ENDBRANCH   3   2
ENDBRANCH   7   6
ENDBRANCH   8   7
ENDBRANCH   9   8
ENDBRANCH  12  10
BRANCH  19  21
ATOM     21  N   UNL     1      -3.845   3.606  24.996  0.00  0.00    -0.204 NA
ATOM     22  C   UNL     1      -3.190   3.801  25.459  0.00  0.00    +0.246 C 
ATOM     23  O   UNL     1      -2.891   3.253  25.998  0.00  0.00    -0.273 OA
BRANCH  22  24
ATOM     24  C   UNL     1      -2.836   4.541  25.383  0.00  0.00    +0.120 C 
BRANCH  24  25
ATOM     25  C   UNL     1      -2.025   4.597  25.242  0.00  0.00    +0.016 A 
ATOM     26  C   UNL     1      -1.463   4.014  25.400  0.00  0.00    +0.003 A 
ATOM     27  C   UNL     1      -0.724   4.303  25.173  0.00  0.00    +0.007 A 
ATOM     28  C   UNL     1      -0.830   5.065  24.876  0.00  0.00    +0.035 A 
ATOM     29  S   UNL     1      -1.633   5.247  24.918  0.00  0.00    -0.090 S 
ENDBRANCH  24  25
ENDBRANCH  22  24
ENDBRANCH  19  21
TORSDOF 9
ENDMDL
MODEL 3
REMARK VINA RESULT:      -9.9      1.567      4.788
REMARK  Name = 
REMARK  9 active torsions:
REMARK  status: ('A' for Active; 'I' for Inactive)
REMARK    1  A    between atoms: O_2  and  C_3
REMARK    2  A    between atoms: C_6  and  C_7
REMARK    3  A    between atoms: C_7  and  C_8
REMARK    4  A    between atoms: C_8  and  N_9
REMARK    5  A    between atoms: C_8  and  C_30
REMARK    6  A    between atoms: C_10  and  C_12
REMARK    7  A    between atoms: C_19  and  N_21
REMARK    8  A    between atoms: C_22  and  C_24
REMARK    9  A    between atoms: C_24  and  C_25
REMARK                            x       y       z     vdW  Elec       q    Type
REMARK                         _______ _______ _______ _____ _____    ______ ____
ROOT
ATOM     12  C   UNL     1      -0.950   1.822  24.500  0.00  0.00    +0.200 C 
ATOM     13  O   UNL     1      -1.272   1.500  23.812  0.00  0.00    -0.216 OA
ATOM     14  C   UNL     1      -0.438   1.935  25.137  0.00  0.00    +0.075 C 
ATOM     15  C   UNL     1      -0.584   2.537  25.682  0.00  0.00    +0.187 C 
ATOM     16  O   UNL     1      -0.073   2.650  26.319  0.00  0.00    -0.220 OA
ATOM     17  C   UNL     1      -1.242   3.026  25.590  0.00  0.00    +0.202 C 
ATOM     18  O   UNL     1      -1.389   3.628  26.134  0.00  0.00    -0.219 OA
ATOM     19  C   UNL     1      -1.754   2.913  24.953  0.00  0.00    +0.131 C 
ATOM     20  C   UNL     1      -1.608   2.311  24.407  0.00  0.00    +0.064 C 
ENDROOT
BRANCH  12  10
ATOM      9  N   UNL     1      -0.663   0.482  24.096  0.00  0.00    -0.195 NA
ATOM     10  C   UNL     1      -0.404   1.221  24.354  0.00  0.00    +0.269 C 
ATOM     11  O   UNL     1       0.402   1.359  24.465  0.00  0.00    -0.271 OA
BRANCH   9   8
ATOM      8  C   UNL     1      -0.117  -0.119  23.949  0.00  0.00    +0.179 C 
BRANCH   8  30
ATOM     30  C   UNL     1       0.369  -0.081  23.283  0.00  0.00    +0.281 C 
ATOM     31  N   UNL     1       1.185  -0.170  23.362  0.00  0.00    -0.086 NA
ATOM     32  O   UNL     1       0.037   0.046  22.538  0.00  0.00    -0.270 OA
ENDBRANCH   8  30
BRANCH   8   7
ATOM      7  C   UNL     1      -0.057  -0.758  24.468  0.00  0.00    +0.057 C 
BRANCH   7   6
ATOM      3  C   UNL     1      -1.987  -2.270  24.797  0.00  0.00    +0.139 A 
ATOM      4  C   UNL     1      -1.737  -1.781  25.412  0.00  0.00    +0.037 A 
ATOM      5  C   UNL     1      -1.094  -1.277  25.302  0.00  0.00    -0.001 A 
ATOM      6  C   UNL     1      -0.700  -1.262  24.578  0.00  0.00    -0.020 A 
ATOM     33  C   UNL     1      -0.950  -1.751  23.962  0.00  0.00    -0.001 A 
ATOM     34  C   UNL     1      -1.594  -2.256  24.072  0.00  0.00    +0.037 A 
BRANCH   3   2
ATOM      1  C   UNL     1      -3.393  -2.519  24.718  0.00  0.00    +0.252 C 
ATOM      2  O   UNL     1      -2.632  -2.775  24.906  0.00  0.00    -0.471 OA
ENDBRANCH   3   2
ENDBRANCH   7   6
ENDBRANCH   8   7
ENDBRANCH   9   8
ENDBRANCH  12  10
BRANCH  19  21
ATOM     21  N   UNL     1      -2.412   3.402  24.860  0.00  0.00    -0.204 NA
ATOM     22  C   UNL     1      -3.172   3.092  24.948  0.00  0.00    +0.246 C 
ATOM     23  O   UNL     1      -3.273   2.293  25.128  0.00  0.00    -0.273 OA
BRANCH  22  24
ATOM     24  C   UNL     1      -3.830   3.581  24.856  0.00  0.00    +0.120 C 
BRANCH  24  25
ATOM     25  C   UNL     1      -4.579   3.309  25.069  0.00  0.00    +0.016 A 
ATOM     26  C   UNL     1      -5.003   2.708  24.693  0.00  0.00    +0.003 A 
ATOM     27  C   UNL     1      -5.722   2.617  25.087  0.00  0.00    +0.007 A 
ATOM     28  C   UNL     1      -5.742   3.162  25.707  0.00  0.00    +0.035 A 
ATOM     29  S   UNL     1      -5.037   3.589  25.695  0.00  0.00    -0.090 S 
ENDBRANCH  24  25
ENDBRANCH  22  24
ENDBRANCH  19  21
TORSDOF 9
ENDMDL
MODEL 4
REMARK VINA RESULT:      -9.5      1.573      3.755
REMARK  Name = 
REMARK  9 active torsions:
REMARK  status: ('A' for Active; 'I' for Inactive)
REMARK    1  A    between atoms: O_2  and  C_3
REMARK    2  A    between atoms: C_6  and  C_7
REMARK    3  A    between atoms: C_7  and  C_8
REMARK    4  A    between atoms: C_8  and  N_9
REMARK    5  A    between atoms: C_8  and  C_30
REMARK    6  A    between atoms: C_10  and  C_12
REMARK    7  A    between atoms: C_19  and  N_21
REMARK    8  A    between atoms: C_22  and  C_24
REMARK    9  A    between atoms: C_24  and  C_25
REMARK                            x       y       z     vdW  Elec       q    Type
REMARK                         _______ _______ _______ _____ _____    ______ ____
ROOT
ATOM     12  C   UNL     1      -3.882   2.354  24.739  0.00  0.00    +0.200 C 
ATOM     13  O   UNL     1      -3.202   2.191  24.301  0.00  0.00    -0.216 OA
ATOM     14  C   UNL     1      -4.417   2.761  25.216  0.00  0.00    +0.075 C 
ATOM     15  C   UNL     1      -5.132   2.408  25.429  0.00  0.00    +0.187 C 
ATOM     16  O   UNL     1      -5.667   2.815  25.906  0.00  0.00    -0.220 OA
ATOM     17  C   UNL     1      -5.311   1.648  25.165  0.00  0.00    +0.202 C 
ATOM     18  O   UNL     1      -6.026   1.294  25.377  0.00  0.00    -0.219 OA
ATOM     19  C   UNL     1      -4.776   1.239  24.687  0.00  0.00    +0.131 C 
ATOM     20  C   UNL     1      -4.061   1.592  24.474  0.00  0.00    +0.064 C 
ENDROOT
BRANCH  12  10
ATOM      9  N   UNL     1      -2.762   3.056  25.279  0.00  0.00    -0.195 NA
ATOM     10  C   UNL     1      -3.467   3.057  24.851  0.00  0.00    +0.269 C 
ATOM     11  O   UNL     1      -3.756   3.762  24.535  0.00  0.00    -0.271 OA
BRANCH   9   8
ATOM      8  C   UNL     1      -2.346   3.761  25.392  0.00  0.00    +0.179 C 
BRANCH   8  30
ATOM     30  C   UNL     1      -2.555   4.268  26.007  0.00  0.00    +0.281 C 
ATOM     31  N   UNL     1      -2.647   5.076  25.864  0.00  0.00    -0.086 NA
ATOM     32  O   UNL     1      -2.672   3.968  26.767  0.00  0.00    -0.270 OA
ENDBRANCH   8  30
BRANCH   8   7
ATOM      7  C   UNL     1      -1.722   3.957  24.888  0.00  0.00    +0.057 C 
BRANCH   7   6
ATOM      3  C   UNL     1       0.282   2.510  24.783  0.00  0.00    +0.139 A 
ATOM      4  C   UNL     1      -0.045   2.709  25.513  0.00  0.00    +0.037 A 
ATOM      5  C   UNL     1      -0.712   3.191  25.549  0.00  0.00    -0.001 A 
ATOM      6  C   UNL     1      -1.055   3.475  24.853  0.00  0.00    -0.020 A 
ATOM     33  C   UNL     1      -0.728   3.276  24.122  0.00  0.00    -0.001 A 
ATOM     34  C   UNL     1      -0.059   2.793  24.087  0.00  0.00    +0.037 A 
BRANCH   3   2
ATOM      1  C   UNL     1       0.969   1.384  24.231  0.00  0.00    +0.252 C 
ATOM      2  O   UNL     1       0.951   2.028  24.747  0.00  0.00    -0.471 OA
ENDBRANCH   3   2
ENDBRANCH   7   6
ENDBRANCH   8   7
ENDBRANCH   9   8
ENDBRANCH  12  10
BRANCH  19  21
ATOM     21  N   UNL     1      -4.955   0.479  24.423  0.00  0.00    -0.204 NA
ATOM     22  C   UNL     1      -4.493  -0.161  24.663  0.00  0.00    +0.246 C 
ATOM     23  O   UNL     1      -3.852  -0.040  25.168  0.00  0.00    -0.273 OA
BRANCH  22  24
ATOM     24  C   UNL     1      -4.672  -0.922  24.399  0.00  0.00    +0.120 C 
BRANCH  24  25
ATOM     25  C   UNL     1      -4.129  -1.533  24.504  0.00  0.00    +0.016 A 
ATOM     26  C   UNL     1      -3.723  -1.708  25.202  0.00  0.00    +0.003 A 
ATOM     27  C   UNL     1      -3.239  -2.361  25.059  0.00  0.00    +0.007 A 
ATOM     28  C   UNL     1      -3.345  -2.589  24.273  0.00  0.00    +0.035 A 
ATOM     29  S   UNL     1      -3.894  -2.078  23.931  0.00  0.00    -0.090 S 
ENDBRANCH  24  25
ENDBRANCH  22  24
ENDBRANCH  19  21
TORSDOF 9
ENDMDL
MODEL 5
REMARK VINA RESULT:      -9.0      2.111      3.958
REMARK  Name = 
REMARK  9 active torsions:
REMARK  status: ('A' for Active; 'I' for Inactive)
REMARK    1  A    between atoms: O_2  and  C_3
REMARK    2  A    between atoms: C_6  and  C_7
REMARK    3  A    between atoms: C_7  and  C_8
REMARK    4  A    between atoms: C_8  and  N_9
REMARK    5  A    between atoms: C_8  and  C_30
REMARK    6  A    between atoms: C_10  and  C_12
REMARK    7  A    between atoms: C_19  and  N_21
REMARK    8  A    between atoms: C_22  and  C_24
REMARK    9  A    between atoms: C_24  and  C_25
REMARK                            x       y       z     vdW  Elec       q    Type
REMARK                         _______ _______ _______ _____ _____    ______ ____
ROOT
ATOM     12  C   UNL     1      -1.502   2.062  24.639  0.00  0.00    +0.200 C 
ATOM     13  O   UNL     1      -1.780   1.887  23.883  0.00  0.00    -0.216 OA
ATOM     14  C   UNL     1      -1.505   2.235  25.445  0.00  0.00    +0.075 C 
ATOM     15  C   UNL     1      -0.793   2.355  25.846  0.00  0.00    +0.187 C 
ATOM     16  O   UNL     1      -0.797   2.527  26.651  0.00  0.00    -0.220 OA
ATOM     17  C   UNL     1      -0.078   2.301  25.439  0.00  0.00    +0.202 C 
ATOM     18  O   UNL     1       0.634   2.420  25.838  0.00  0.00    -0.219 OA
ATOM     19  C   UNL     1      -0.074   2.128  24.632  0.00  0.00    +0.131 C 
ATOM     20  C   UNL     1      -0.786   2.008  24.231  0.00  0.00    +0.064 C 
ENDROOT
BRANCH  12  10
ATOM      9  N   UNL     1      -2.785   1.464  24.455  0.00  0.00    -0.195 NA
ATOM     10  C   UNL     1      -2.313   2.055  24.783  0.00  0.00    +0.269 C 
ATOM     11  O   UNL     1      -2.654   2.639  25.256  0.00  0.00    -0.271 OA
BRANCH   9   8
ATOM      8  C   UNL     1      -3.598   1.456  24.599  0.00  0.00    +0.179 C 
BRANCH   8  30
ATOM     30  C   UNL     1      -4.091   1.988  24.206  0.00  0.00    +0.281 C 
ATOM     31  N   UNL     1      -4.663   2.409  24.625  0.00  0.00    -0.086 NA
ATOM     32  O   UNL     1      -4.012   2.097  23.391  0.00  0.00    -0.270 OA
ENDBRANCH   8  30
BRANCH   8   7
ATOM      7  C   UNL     1      -3.917   0.918  25.137  0.00  0.00    +0.057 C 
BRANCH   7   6
ATOM      3  C   UNL     1      -3.968  -1.495  24.589  0.00  0.00    +0.139 A 
ATOM      4  C   UNL     1      -4.306  -0.947  24.072  0.00  0.00    +0.037 A 
ATOM      5  C   UNL     1      -4.289  -0.143  24.255  0.00  0.00    -0.001 A 
ATOM      6  C   UNL     1      -3.934   0.114  24.954  0.00  0.00    -0.020 A 
ATOM     33  C   UNL     1      -3.596  -0.433  25.470  0.00  0.00    -0.001 A 
ATOM     34  C   UNL     1      -3.612  -1.238  25.287  0.00  0.00    +0.037 A 
BRANCH   3   2
ATOM      1  C   UNL     1      -3.323  -2.770  24.554  0.00  0.00    +0.252 C 
ATOM      2  O   UNL     1      -3.984  -2.300  24.406  0.00  0.00    -0.471 OA
ENDBRANCH   3   2
ENDBRANCH   7   6
ENDBRANCH   8   7
ENDBRANCH   9   8
ENDBRANCH  12  10
BRANCH  19  21
ATOM     21  N   UNL     1       0.641   2.074  24.225  0.00  0.00    -0.204 NA
ATOM     22  C   UNL     1       0.907   1.342  23.950  0.00  0.00    +0.246 C 
ATOM     23  O   UNL     1       0.456   0.664  24.084  0.00  0.00    -0.273 OA
BRANCH  22  24
ATOM     24  C   UNL     1       1.622   1.288  23.543  0.00  0.00    +0.120 C 
BRANCH  24  25
ATOM     25  C   UNL     1       1.767   0.645  23.048  0.00  0.00    +0.016 A 
ATOM     26  C   UNL     1       1.195   0.186  22.668  0.00  0.00    +0.003 A 
ATOM     27  C   UNL     1       1.584  -0.395  22.230  0.00  0.00    +0.007 A 
ATOM     28  C   UNL     1       2.396  -0.296  22.340  0.00  0.00    +0.035 A 
ATOM     29  S   UNL     1       2.509   0.346  22.845  0.00  0.00    -0.090 S 
ENDBRANCH  24  25
ENDBRANCH  22  24
ENDBRANCH  19  21
TORSDOF 9
ENDMDL
