MODEL 1
REMARK VINA RESULT:     -13.4      0.000      0.000
REMARK  Name = 
REMARK  2 active torsions:
REMARK  status: ('A' for Active; 'I' for Inactive)
REMARK    1  A    between atoms: C_7  and  C_9
REMARK    2  A    between atoms: C_14  and  C_16
REMARK                            x       y       z     vdW  Elec       q    Type
REMARK                         _______ _______ _______ _____ _____    ______ ____
ROOT
ATOM      9  C   UNL     1      -4.735   1.325  25.029  0.00  0.00    +0.098 C 
ATOM     10  C   UNL     1      -5.525   1.561  25.003  0.00  0.00    +0.032 C 
ATOM     11  C   UNL     1      -5.549   2.383  25.066  0.00  0.00    +0.094 C 
ATOM     12  N   UNL     1      -4.773   2.656  25.131  0.00  0.00    -0.276 N 
ATOM     13  C   UNL     1      -4.270   2.002  25.109  0.00  0.00    +0.103 C 
ATOM     14  C   UNL     1      -4.541   3.444  25.205  0.00  0.00    +0.251 C 
ATOM     15  O   UNL     1      -5.109   4.042  25.220  0.00  0.00    -0.270 OA
ENDROOT
BRANCH   9   7
ATOM      1  C   UNL     1      -3.645  -2.734  24.048  0.00  0.00    +0.031 C 
ATOM      2  C   UNL     1      -3.720  -2.026  24.462  0.00  0.00    -0.020 A 
ATOM      3  C   UNL     1      -4.124  -1.391  24.125  0.00  0.00    +0.018 A 
ATOM      4  C   UNL     1      -4.199  -0.681  24.540  0.00  0.00    +0.118 A 
ATOM      5  C   UNL     1      -3.868  -0.607  25.292  0.00  0.00    +0.164 A 
ATOM      6  O   UNL     1      -4.029   0.153  25.567  0.00  0.00    -0.438 OA
ATOM      7  C   UNL     1      -4.459   0.549  24.985  0.00  0.00    +0.207 A 
ATOM      8  N   UNL     1      -4.563   0.033  24.350  0.00  0.00    -0.212 NA
ATOM     22  C   UNL     1      -3.463  -1.242  25.629  0.00  0.00    +0.039 A 
ATOM     23  C   UNL     1      -3.389  -1.951  25.214  0.00  0.00    -0.001 A 
ENDBRANCH   9   7
BRANCH  14  16
ATOM     16  C   UNL     1      -3.740   3.634  25.266  0.00  0.00    +0.073 A 
ATOM     17  C   UNL     1      -3.403   3.771  26.007  0.00  0.00    +0.008 A 
ATOM     18  C   UNL     1      -2.603   3.962  26.066  0.00  0.00    +0.021 A 
ATOM     19  C   UNL     1      -2.139   4.015  25.386  0.00  0.00    +0.099 A 
ATOM     20  N   UNL     1      -2.476   3.878  24.645  0.00  0.00    -0.242 NA
ATOM     21  C   UNL     1      -3.277   3.688  24.585  0.00  0.00    +0.103 A 
ENDBRANCH  14  16
TORSDOF 2
ENDMDL
MODEL 2
REMARK VINA RESULT:     -11.6      1.298      1.924
REMARK  Name = 
REMARK  2 active torsions:
REMARK  status: ('A' for Active; 'I' for Inactive)
REMARK    1  A    between atoms: C_7  and  C_9
REMARK    2  A    between atoms: C_14  and  C_16
REMARK                            x       y       z     vdW  Elec       q    Type
REMARK                         _______ _______ _______ _____ _____    ______ ____
ROOT
ATOM      9  C   UNL     1      -3.255   0.998  23.858  0.00  0.00    +0.098 C 
ATOM     10  C   UNL     1      -2.871   1.362  23.226  0.00  0.00    +0.032 C 
ATOM     11  C   UNL     1      -3.062   2.164  23.238  0.00  0.00    +0.094 C 
ATOM     12  N   UNL     1      -3.565   2.296  23.878  0.00  0.00    -0.276 N 
ATOM     13  C   UNL     1      -3.684   1.575  24.262  0.00  0.00    +0.103 C 
ATOM     14  C   UNL     1      -3.891   3.021  24.098  0.00  0.00    +0.251 C 
ATOM     15  O   UNL     1      -3.722   3.699  23.659  0.00  0.00    -0.270 OA
ENDROOT
BRANCH   9   7
ATOM      1  C   UNL     1      -3.779  -3.242  24.477  0.00  0.00    +0.031 C 
ATOM      2  C   UNL     1      -3.453  -2.486  24.499  0.00  0.00    -0.020 A 
ATOM      3  C   UNL     1      -3.845  -1.856  24.139  0.00  0.00    +0.018 A 
ATOM      4  C   UNL     1      -3.519  -1.099  24.161  0.00  0.00    +0.118 A 
ATOM      5  C   UNL     1      -2.799  -0.971  24.544  0.00  0.00    +0.164 A 
ATOM      6  O   UNL     1      -2.612  -0.171  24.476  0.00  0.00    -0.438 OA
ATOM      7  C   UNL     1      -3.217   0.197  24.053  0.00  0.00    +0.207 A 
ATOM      8  N   UNL     1      -3.777  -0.377  23.859  0.00  0.00    -0.212 NA
ATOM     22  C   UNL     1      -2.405  -1.602  24.904  0.00  0.00    +0.039 A 
ATOM     23  C   UNL     1      -2.733  -2.358  24.881  0.00  0.00    -0.001 A 
ENDBRANCH   9   7
BRANCH  14  16
ATOM     16  C   UNL     1      -4.387   3.069  24.756  0.00  0.00    +0.073 A 
ATOM     17  C   UNL     1      -5.175   2.829  24.697  0.00  0.00    +0.008 A 
ATOM     18  C   UNL     1      -5.670   2.878  25.355  0.00  0.00    +0.021 A 
ATOM     19  C   UNL     1      -5.379   3.165  26.071  0.00  0.00    +0.099 A 
ATOM     20  N   UNL     1      -4.591   3.404  26.130  0.00  0.00    -0.242 NA
ATOM     21  C   UNL     1      -4.095   3.356  25.472  0.00  0.00    +0.103 A 
ENDBRANCH  14  16
TORSDOF 2
ENDMDL
MODEL 3
REMARK VINA RESULT:     -11.4      1.554      2.071
REMARK  Name = 
REMARK  2 active torsions:
REMARK  status: ('A' for Active; 'I' for Inactive)
REMARK    1  A    between atoms: C_7  and  C_9
REMARK    2  A    between atoms: C_14  and  C_16
REMARK                            x       y       z     vdW  Elec       q    Type
REMARK                         _______ _______ _______ _____ _____    ______ ____
ROOT
ATOM      9  C   UNL     1      -2.130   0.962  24.985  0.00  0.00    +0.098 C 
ATOM     10  C   UNL     1      -1.319   1.104  25.037  0.00  0.00    +0.032 C 
ATOM     11  C   UNL     1      -1.205   1.918  25.106  0.00  0.00    +0.094 C 
ATOM     12  N   UNL     1      -1.947   2.280  25.096  0.00  0.00    -0.276 N 
ATOM     13  C   UNL     1      -2.518   1.689  25.022  0.00  0.00    +0.103 C 
ATOM     14  C   UNL     1      -2.092   3.090  25.151  0.00  0.00    +0.251 C 
ATOM     15  O   UNL     1      -1.462   3.618  25.224  0.00  0.00    -0.270 OA
ENDROOT
BRANCH   9   7
ATOM      1  C   UNL     1      -4.285  -2.607  23.867  0.00  0.00    +0.031 C 
ATOM      2  C   UNL     1      -3.820  -2.080  24.298  0.00  0.00    -0.020 A 
ATOM      3  C   UNL     1      -3.663  -1.328  23.998  0.00  0.00    +0.018 A 
ATOM      4  C   UNL     1      -3.197  -0.800  24.428  0.00  0.00    +0.118 A 
ATOM      5  C   UNL     1      -2.889  -1.025  25.160  0.00  0.00    +0.164 A 
ATOM      6  O   UNL     1      -2.452  -0.392  25.457  0.00  0.00    -0.438 OA
ATOM      7  C   UNL     1      -2.490   0.224  24.910  0.00  0.00    +0.207 A 
ATOM      8  N   UNL     1      -2.951  -0.029  24.274  0.00  0.00    -0.212 NA
ATOM     22  C   UNL     1      -3.046  -1.777  25.461  0.00  0.00    +0.039 A 
ATOM     23  C   UNL     1      -3.512  -2.304  25.029  0.00  0.00    -0.001 A 
ENDBRANCH   9   7
BRANCH  14  16
ATOM     16  C   UNL     1      -2.867   3.373  25.134  0.00  0.00    +0.073 A 
ATOM     17  C   UNL     1      -3.275   3.504  25.840  0.00  0.00    +0.008 A 
ATOM     18  C   UNL     1      -4.049   3.787  25.821  0.00  0.00    +0.021 A 
ATOM     19  C   UNL     1      -4.417   3.939  25.099  0.00  0.00    +0.099 A 
ATOM     20  N   UNL     1      -4.009   3.808  24.393  0.00  0.00    -0.242 NA
ATOM     21  C   UNL     1      -3.234   3.525  24.410  0.00  0.00    +0.103 A 
ENDBRANCH  14  16
TORSDOF 2
ENDMDL
MODEL 4
REMARK VINA RESULT:     -11.3      1.810      4.590
REMARK  Name = 
REMARK  2 active torsions:
REMARK  status: ('A' for Active; 'I' for Inactive)
REMARK    1  A    between atoms: C_7  and  C_9
REMARK    2  A    between atoms: C_14  and  C_16
REMARK                            x       y       z     vdW  Elec       q    Type
REMARK                         _______ _______ _______ _____ _____    ______ ____
ROOT
ATOM      9  C   UNL     1      -3.927  -0.373  24.459  0.00  0.00    +0.098 C 
ATOM     10  C   UNL     1      -4.423  -0.997  24.245  0.00  0.00    +0.032 C 
ATOM     11  C   UNL     1      -3.967  -1.683  24.202  0.00  0.00    +0.094 C 
ATOM     12  N   UNL     1      -3.189  -1.483  24.390  0.00  0.00    -0.276 N 
ATOM     13  C   UNL     1      -3.165  -0.674  24.549  0.00  0.00    +0.103 C 
ATOM     14  C   UNL     1      -2.548  -2.001  24.415  0.00  0.00    +0.251 C 
ATOM     15  O   UNL     1      -2.656  -2.801  24.242  0.00  0.00    -0.270 OA
ENDROOT
BRANCH   9   7
ATOM      1  C   UNL     1      -5.608   3.434  25.608  0.00  0.00    +0.031 C 
ATOM      2  C   UNL     1      -5.155   2.868  25.214  0.00  0.00    -0.020 A 
ATOM      3  C   UNL     1      -5.214   2.073  25.424  0.00  0.00    +0.018 A 
ATOM      4  C   UNL     1      -4.761   1.507  25.031  0.00  0.00    +0.118 A 
ATOM      5  C   UNL     1      -4.248   1.737  24.427  0.00  0.00    +0.164 A 
ATOM      6  O   UNL     1      -3.874   1.061  24.139  0.00  0.00    -0.438 OA
ATOM      7  C   UNL     1      -4.155   0.413  24.565  0.00  0.00    +0.207 A 
ATOM      8  N   UNL     1      -4.703   0.689  25.116  0.00  0.00    -0.212 NA
ATOM     22  C   UNL     1      -4.189   2.533  24.216  0.00  0.00    +0.039 A 
ATOM     23  C   UNL     1      -4.642   3.098  24.610  0.00  0.00    -0.001 A 
ENDBRANCH   9   7
BRANCH  14  16
ATOM     16  C   UNL     1      -1.797  -1.720  24.613  0.00  0.00    +0.073 A 
ATOM     17  C   UNL     1      -1.552  -1.717  25.401  0.00  0.00    +0.008 A 
ATOM     18  C   UNL     1      -0.802  -1.436  25.598  0.00  0.00    +0.021 A 
ATOM     19  C   UNL     1      -0.297  -1.159  25.008  0.00  0.00    +0.099 A 
ATOM     20  N   UNL     1      -0.541  -1.163  24.220  0.00  0.00    -0.242 NA
ATOM     21  C   UNL     1      -1.292  -1.444  24.022  0.00  0.00    +0.103 A 
ENDBRANCH  14  16
TORSDOF 2
ENDMDL
MODEL 5
REMARK VINA RESULT:     -11.1      1.290      4.628
REMARK  Name = 
REMARK  2 active torsions:
REMARK  status: ('A' for Active; 'I' for Inactive)
REMARK    1  A    between atoms: C_7  and  C_9
REMARK    2  A    between atoms: C_14  and  C_16
REMARK                            x       y       z     vdW  Elec       q    Type
REMARK                         _______ _______ _______ _____ _____    ______ ____
ROOT
ATOM      9  C   UNL     1      -3.607   1.843  24.803  0.00  0.00    +0.098 C 
ATOM     10  C   UNL     1      -4.407   1.983  24.659  0.00  0.00    +0.032 C 
ATOM     11  C   UNL     1      -4.789   1.254  24.603  0.00  0.00    +0.094 C 
ATOM     12  N   UNL     1      -4.225   0.663  24.713  0.00  0.00    -0.276 N 
ATOM     13  C   UNL     1      -3.494   1.027  24.836  0.00  0.00    +0.103 C 
ATOM     14  C   UNL     1      -4.365  -0.150  24.701  0.00  0.00    +0.251 C 
ATOM     15  O   UNL     1      -5.128  -0.435  24.570  0.00  0.00    -0.270 OA
ENDROOT
BRANCH   9   7
ATOM      1  C   UNL     1      -1.145   5.379  25.064  0.00  0.00    +0.031 C 
ATOM      2  C   UNL     1      -1.382   4.590  25.094  0.00  0.00    -0.020 A 
ATOM      3  C   UNL     1      -2.156   4.384  24.901  0.00  0.00    +0.018 A 
ATOM      4  C   UNL     1      -2.394   3.594  24.931  0.00  0.00    +0.118 A 
ATOM      5  C   UNL     1      -1.855   3.010  25.154  0.00  0.00    +0.164 A 
ATOM      6  O   UNL     1      -2.244   2.284  25.133  0.00  0.00    -0.438 OA
ATOM      7  C   UNL     1      -3.023   2.418  24.897  0.00  0.00    +0.207 A 
ATOM      8  N   UNL     1      -3.115   3.228  24.772  0.00  0.00    -0.212 NA
ATOM     22  C   UNL     1      -1.080   3.216  25.347  0.00  0.00    +0.039 A 
ATOM     23  C   UNL     1      -0.843   4.006  25.317  0.00  0.00    -0.001 A 
ENDBRANCH   9   7
BRANCH  14  16
ATOM     16  C   UNL     1      -3.743  -0.679  24.820  0.00  0.00    +0.073 A 
ATOM     17  C   UNL     1      -3.565  -0.943  25.582  0.00  0.00    +0.008 A 
ATOM     18  C   UNL     1      -2.943  -1.471  25.700  0.00  0.00    +0.021 A 
ATOM     19  C   UNL     1      -2.498  -1.736  25.058  0.00  0.00    +0.099 A 
ATOM     20  N   UNL     1      -2.675  -1.472  24.296  0.00  0.00    -0.242 NA
ATOM     21  C   UNL     1      -3.298  -0.943  24.177  0.00  0.00    +0.103 A 
ENDBRANCH  14  16
TORSDOF 2
ENDMDL
