MODEL 1
REMARK VINA RESULT:      -8.0      0.000      0.000
REMARK  Name = 
REMARK  8 active torsions:
REMARK  status: ('A' for Active; 'I' for Inactive)
REMARK    1  A    between atoms: C_2  and  C_3
REMARK    2  A    between atoms: C_2  and  C_36
REMARK    3  A    between atoms: C_14  and  C_16
REMARK    4  A    between atoms: C_19  and  C_20
REMARK    5  A    between atoms: C_20  and  N_21
REMARK    6  A    between atoms: N_38  and  C_39
REMARK    7  A    between atoms: C_39  and  C_40
REMARK    8  A    between atoms: C_40  and  N_41
REMARK                            x       y       z     vdW  Elec       q    Type
REMARK                         _______ _______ _______ _____ _____    ______ ____
ROOT
ATOM      3  C   UNL     1      -4.727   0.910  24.795  0.00  0.00    +0.039 C 
ATOM      4  C   UNL     1      -4.509   0.303  25.311  0.00  0.00    +0.003 C 
ATOM      5  C   UNL     1      -3.735   0.017  25.306  0.00  0.00    +0.001 C 
ATOM      6  C   UNL     1      -3.180   0.337  24.788  0.00  0.00    +0.007 C 
ATOM      7  C   UNL     1      -2.962  -0.269  25.302  0.00  0.00    +0.000 C 
ATOM      8  C   UNL     1      -2.406   0.051  24.783  0.00  0.00    +0.034 C 
ATOM      9  C   UNL     1      -1.851   0.372  24.265  0.00  0.00    +0.023 A 
ATOM     10  C   UNL     1      -2.069   0.979  23.750  0.00  0.00    +0.063 A 
ATOM     11  N   UNL     1      -1.406   1.185  23.304  0.00  0.00    -0.227 NA
ATOM     12  C   UNL     1      -0.779   0.706  23.542  0.00  0.00    +0.185 A 
ATOM     13  N   UNL     1      -0.011   0.726  23.240  0.00  0.00    -0.151 NA
ATOM     14  C   UNL     1       0.561   0.211  23.535  0.00  0.00    +0.271 C 
ATOM     15  O   UNL     1       0.367  -0.325  24.132  0.00  0.00    -0.268 OA
ATOM     30  S   UNL     1      -1.053   0.204  24.136  0.00  0.00    -0.054 S 
ATOM     31  C   UNL     1      -2.843   1.265  23.754  0.00  0.00    +0.043 C 
ATOM     32  C   UNL     1      -3.061   1.871  23.239  0.00  0.00    +0.006 C 
ATOM     33  C   UNL     1      -3.399   0.945  24.273  0.00  0.00    +0.036 C 
ATOM     34  C   UNL     1      -4.172   1.230  24.277  0.00  0.00    +0.153 C 
ATOM     35  O   UNL     1      -4.390   1.837  23.762  0.00  0.00    -0.223 OA
ENDROOT
BRANCH  14  16
ATOM     16  C   UNL     1       1.328   0.230  23.233  0.00  0.00    +0.055 A 
ATOM     17  C   UNL     1       1.580  -0.352  22.704  0.00  0.00    +0.004 A 
ATOM     18  C   UNL     1       2.347  -0.332  22.402  0.00  0.00    -0.003 A 
ATOM     19  C   UNL     1       2.863   0.270  22.629  0.00  0.00    -0.006 A 
ATOM     28  C   UNL     1       2.613   0.852  23.156  0.00  0.00    -0.003 A 
ATOM     29  C   UNL     1       1.846   0.832  23.458  0.00  0.00    +0.004 A 
BRANCH  19  20
ATOM     20  C   UNL     1       3.631   0.290  22.327  0.00  0.00    +0.099 C 
BRANCH  20  21
ATOM     21  N   UNL     1       4.273   0.130  22.819  0.00  0.00    -0.267 NA
ATOM     22  C   UNL     1       4.408  -0.639  23.085  0.00  0.00    +0.090 C 
ATOM     23  C   UNL     1       5.051  -0.797  23.578  0.00  0.00    +0.090 C 
ATOM     24  N   UNL     1       5.557  -0.187  23.805  0.00  0.00    -0.269 NA
ATOM     25  C   UNL     1       6.199  -0.346  24.297  0.00  0.00    +0.090 C 
ATOM     26  C   UNL     1       5.422   0.582  23.539  0.00  0.00    +0.090 C 
ATOM     27  C   UNL     1       4.780   0.741  23.046  0.00  0.00    +0.090 C 
ENDBRANCH  20  21
ENDBRANCH  19  20
ENDBRANCH  14  16
BRANCH   3   2
ATOM      1  C   UNL     1      -6.051   0.905  24.258  0.00  0.00    +0.010 C 
ATOM      2  C   UNL     1      -5.501   1.196  24.800  0.00  0.00    +0.081 C 
BRANCH   2  36
ATOM     36  C   UNL     1      -5.726   1.772  25.346  0.00  0.00    +0.241 C 
ATOM     37  O   UNL     1      -6.251   1.581  25.955  0.00  0.00    -0.273 OA
ATOM     38  N   UNL     1      -5.428   2.539  25.284  0.00  0.00    -0.204 NA
BRANCH  38  39
ATOM     39  C   UNL     1      -5.653   3.114  25.830  0.00  0.00    +0.132 C 
BRANCH  39  40
ATOM     40  C   UNL     1      -5.394   3.892  25.741  0.00  0.00    +0.096 C 
BRANCH  40  41
ATOM     41  N   UNL     1      -4.609   4.087  25.901  0.00  0.00    -0.267 NA
ATOM     42  C   UNL     1      -4.276   3.891  26.630  0.00  0.00    +0.105 C 
ATOM     43  C   UNL     1      -3.491   4.086  26.791  0.00  0.00    +0.159 C 
ATOM     44  O   UNL     1      -3.038   4.478  26.222  0.00  0.00    -0.351 OA
ATOM     45  C   UNL     1      -3.371   4.674  25.494  0.00  0.00    +0.159 C 
ATOM     46  C   UNL     1      -4.156   4.479  25.333  0.00  0.00    +0.105 C 
ENDBRANCH  40  41
ENDBRANCH  39  40
ENDBRANCH  38  39
ENDBRANCH   2  36
ENDBRANCH   3   2
TORSDOF 8
ENDMDL
MODEL 2
REMARK VINA RESULT:      -5.8      1.259      2.446
REMARK  Name = 
REMARK  8 active torsions:
REMARK  status: ('A' for Active; 'I' for Inactive)
REMARK    1  A    between atoms: C_2  and  C_3
REMARK    2  A    between atoms: C_2  and  C_36
REMARK    3  A    between atoms: C_14  and  C_16
REMARK    4  A    between atoms: C_19  and  C_20
REMARK    5  A    between atoms: C_20  and  N_21
REMARK    6  A    between atoms: N_38  and  C_39
REMARK    7  A    between atoms: C_39  and  C_40
REMARK    8  A    between atoms: C_40  and  N_41
REMARK                            x       y       z     vdW  Elec       q    Type
REMARK                         _______ _______ _______ _____ _____    ______ ____
ROOT
ATOM      3  C   UNL     1      -3.790   3.729  25.090  0.00  0.00    +0.039 C 
ATOM      4  C   UNL     1      -3.356   3.865  25.779  0.00  0.00    +0.003 C 
ATOM      5  C   UNL     1      -2.571   3.616  25.828  0.00  0.00    +0.001 C 
ATOM      6  C   UNL     1      -2.221   3.230  25.190  0.00  0.00    +0.007 C 
ATOM      7  C   UNL     1      -1.787   3.367  25.877  0.00  0.00    +0.000 C 
ATOM      8  C   UNL     1      -1.436   2.981  25.238  0.00  0.00    +0.034 C 
ATOM      9  C   UNL     1      -1.085   2.595  24.600  0.00  0.00    +0.023 A 
ATOM     10  C   UNL     1      -1.519   2.458  23.911  0.00  0.00    +0.063 A 
ATOM     11  N   UNL     1      -1.029   2.067  23.375  0.00  0.00    -0.227 NA
ATOM     12  C   UNL     1      -0.292   1.962  23.731  0.00  0.00    +0.185 A 
ATOM     13  N   UNL     1       0.363   1.595  23.390  0.00  0.00    -0.151 NA
ATOM     14  C   UNL     1       1.066   1.530  23.816  0.00  0.00    +0.271 C 
ATOM     15  O   UNL     1       1.115   1.832  24.583  0.00  0.00    -0.268 OA
ATOM     30  S   UNL     1      -0.327   2.288  24.488  0.00  0.00    -0.054 S 
ATOM     31  C   UNL     1      -2.303   2.708  23.862  0.00  0.00    +0.043 C 
ATOM     32  C   UNL     1      -2.737   2.571  23.173  0.00  0.00    +0.006 C 
ATOM     33  C   UNL     1      -2.655   3.094  24.501  0.00  0.00    +0.036 C 
ATOM     34  C   UNL     1      -3.439   3.343  24.452  0.00  0.00    +0.153 C 
ATOM     35  O   UNL     1      -3.873   3.207  23.763  0.00  0.00    -0.223 OA
ENDROOT
BRANCH  14  16
ATOM     16  C   UNL     1       1.722   1.163  23.475  0.00  0.00    +0.055 A 
ATOM     17  C   UNL     1       1.673   0.377  23.226  0.00  0.00    +0.004 A 
ATOM     18  C   UNL     1       2.329   0.011  22.886  0.00  0.00    -0.003 A 
ATOM     19  C   UNL     1       3.034   0.429  22.794  0.00  0.00    -0.006 A 
ATOM     28  C   UNL     1       3.083   1.214  23.042  0.00  0.00    -0.003 A 
ATOM     29  C   UNL     1       2.427   1.581  23.383  0.00  0.00    +0.004 A 
BRANCH  19  20
ATOM     20  C   UNL     1       3.689   0.063  22.454  0.00  0.00    +0.099 C 
BRANCH  20  21
ATOM     21  N   UNL     1       4.331  -0.156  22.924  0.00  0.00    -0.267 NA
ATOM     22  C   UNL     1       5.002   0.323  22.956  0.00  0.00    +0.090 C 
ATOM     23  C   UNL     1       5.643   0.103  23.427  0.00  0.00    +0.090 C 
ATOM     24  N   UNL     1       5.613  -0.595  23.865  0.00  0.00    -0.269 NA
ATOM     25  C   UNL     1       6.254  -0.814  24.335  0.00  0.00    +0.090 C 
ATOM     26  C   UNL     1       4.942  -1.074  23.833  0.00  0.00    +0.090 C 
ATOM     27  C   UNL     1       4.301  -0.855  23.362  0.00  0.00    +0.090 C 
ENDBRANCH  20  21
ENDBRANCH  19  20
ENDBRANCH  14  16
BRANCH   3   2
ATOM      1  C   UNL     1      -4.762   4.673  24.638  0.00  0.00    +0.010 C 
ATOM      2  C   UNL     1      -4.575   3.978  25.042  0.00  0.00    +0.081 C 
BRANCH   2  36
ATOM     36  C   UNL     1      -5.173   3.534  25.396  0.00  0.00    +0.241 C 
ATOM     37  O   UNL     1      -5.638   3.869  25.991  0.00  0.00    -0.273 OA
ATOM     38  N   UNL     1      -5.308   2.757  25.156  0.00  0.00    -0.204 NA
BRANCH  38  39
ATOM     39  C   UNL     1      -5.905   2.314  25.511  0.00  0.00    +0.132 C 
BRANCH  39  40
ATOM     40  C   UNL     1      -6.125   1.585  25.191  0.00  0.00    +0.096 C 
BRANCH  40  41
ATOM     41  N   UNL     1      -5.586   0.962  25.176  0.00  0.00    -0.267 NA
ATOM     42  C   UNL     1      -5.197   0.735  25.868  0.00  0.00    +0.105 C 
ATOM     43  C   UNL     1      -4.658   0.111  25.853  0.00  0.00    +0.159 C 
ATOM     44  O   UNL     1      -4.507  -0.287  25.145  0.00  0.00    -0.351 OA
ATOM     45  C   UNL     1      -4.895  -0.061  24.454  0.00  0.00    +0.159 C 
ATOM     46  C   UNL     1      -5.435   0.563  24.468  0.00  0.00    +0.105 C 
ENDBRANCH  40  41
ENDBRANCH  39  40
ENDBRANCH  38  39
ENDBRANCH   2  36
ENDBRANCH   3   2
TORSDOF 8
ENDMDL
MODEL 3
REMARK VINA RESULT:      -5.1      1.375      2.694
REMARK  Name = 
REMARK  8 active torsions:
REMARK  status: ('A' for Active; 'I' for Inactive)
REMARK    1  A    between atoms: C_2  and  C_3
REMARK    2  A    between atoms: C_2  and  C_36
REMARK    3  A    between atoms: C_14  and  C_16
REMARK    4  A    between atoms: C_19  and  C_20
REMARK    5  A    between atoms: C_20  and  N_21
REMARK    6  A    between atoms: N_38  and  C_39
REMARK    7  A    between atoms: C_39  and  C_40
REMARK    8  A    between atoms: C_40  and  N_41
REMARK                            x       y       z     vdW  Elec       q    Type
REMARK                         _______ _______ _______ _____ _____    ______ ____
ROOT
ATOM      3  C   UNL     1      -3.159   3.687  25.308  0.00  0.00    +0.039 C 
ATOM      4  C   UNL     1      -3.425   3.484  24.553  0.00  0.00    +0.003 C 
ATOM      5  C   UNL     1      -2.925   3.081  24.035  0.00  0.00    +0.001 C 
ATOM      6  C   UNL     1      -2.161   2.882  24.270  0.00  0.00    +0.007 C 
ATOM      7  C   UNL     1      -2.425   2.679  23.517  0.00  0.00    +0.000 C 
ATOM      8  C   UNL     1      -1.660   2.480  23.753  0.00  0.00    +0.034 C 
ATOM      9  C   UNL     1      -0.895   2.281  23.988  0.00  0.00    +0.023 A 
ATOM     10  C   UNL     1      -0.630   2.485  24.743  0.00  0.00    +0.063 A 
ATOM     11  N   UNL     1       0.147   2.217  24.820  0.00  0.00    -0.227 NA
ATOM     12  C   UNL     1       0.362   1.848  24.115  0.00  0.00    +0.185 A 
ATOM     13  N   UNL     1       1.092   1.501  23.952  0.00  0.00    -0.151 NA
ATOM     14  C   UNL     1       1.227   1.151  23.218  0.00  0.00    +0.271 C 
ATOM     15  O   UNL     1       0.633   1.148  22.645  0.00  0.00    -0.268 OA
ATOM     30  S   UNL     1      -0.282   1.888  23.601  0.00  0.00    -0.054 S 
ATOM     31  C   UNL     1      -1.130   2.887  25.261  0.00  0.00    +0.043 C 
ATOM     32  C   UNL     1      -0.865   3.091  26.015  0.00  0.00    +0.006 C 
ATOM     33  C   UNL     1      -1.895   3.086  25.026  0.00  0.00    +0.036 C 
ATOM     34  C   UNL     1      -2.395   3.489  25.543  0.00  0.00    +0.153 C 
ATOM     35  O   UNL     1      -2.130   3.692  26.297  0.00  0.00    -0.223 OA
ENDROOT
BRANCH  14  16
ATOM     16  C   UNL     1       1.958   0.804  23.055  0.00  0.00    +0.055 A 
ATOM     17  C   UNL     1       2.631   1.276  22.975  0.00  0.00    +0.004 A 
ATOM     18  C   UNL     1       3.361   0.928  22.812  0.00  0.00    -0.003 A 
ATOM     19  C   UNL     1       3.418   0.109  22.729  0.00  0.00    -0.006 A 
ATOM     28  C   UNL     1       2.747  -0.362  22.808  0.00  0.00    -0.003 A 
ATOM     29  C   UNL     1       2.016  -0.014  22.971  0.00  0.00    +0.004 A 
BRANCH  19  20
ATOM     20  C   UNL     1       4.149  -0.238  22.566  0.00  0.00    +0.099 C 
BRANCH  20  21
ATOM     21  N   UNL     1       4.690  -0.367  23.175  0.00  0.00    -0.267 NA
ATOM     22  C   UNL     1       5.244   0.214  23.364  0.00  0.00    +0.090 C 
ATOM     23  C   UNL     1       5.785   0.084  23.974  0.00  0.00    +0.090 C 
ATOM     24  N   UNL     1       5.772  -0.625  24.393  0.00  0.00    -0.269 NA
ATOM     25  C   UNL     1       6.313  -0.755  25.002  0.00  0.00    +0.090 C 
ATOM     26  C   UNL     1       5.218  -1.206  24.203  0.00  0.00    +0.090 C 
ATOM     27  C   UNL     1       4.677  -1.078  23.594  0.00  0.00    +0.090 C 
ENDBRANCH  20  21
ENDBRANCH  19  20
ENDBRANCH  14  16
BRANCH   3   2
ATOM      1  C   UNL     1      -3.350   4.648  26.348  0.00  0.00    +0.010 C 
ATOM      2  C   UNL     1      -3.660   4.090  25.826  0.00  0.00    +0.081 C 
BRANCH   2  36
ATOM     36  C   UNL     1      -4.471   3.936  25.822  0.00  0.00    +0.241 C 
ATOM     37  O   UNL     1      -4.997   4.502  25.531  0.00  0.00    -0.273 OA
ATOM     38  N   UNL     1      -4.755   3.217  26.108  0.00  0.00    -0.204 NA
BRANCH  38  39
ATOM     39  C   UNL     1      -5.565   3.063  26.103  0.00  0.00    +0.132 C 
BRANCH  39  40
ATOM     40  C   UNL     1      -5.843   2.309  26.290  0.00  0.00    +0.096 C 
BRANCH  40  41
ATOM     41  N   UNL     1      -5.948   1.748  25.695  0.00  0.00    -0.267 NA
ATOM     42  C   UNL     1      -6.539   1.853  25.128  0.00  0.00    +0.105 C 
ATOM     43  C   UNL     1      -6.644   1.293  24.532  0.00  0.00    +0.159 C 
ATOM     44  O   UNL     1      -6.158   0.625  24.503  0.00  0.00    -0.351 OA
ATOM     45  C   UNL     1      -5.568   0.520  25.069  0.00  0.00    +0.159 C 
ATOM     46  C   UNL     1      -5.462   1.081  25.665  0.00  0.00    +0.105 C 
ENDBRANCH  40  41
ENDBRANCH  39  40
ENDBRANCH  38  39
ENDBRANCH   2  36
ENDBRANCH   3   2
TORSDOF 8
ENDMDL
MODEL 4
REMARK VINA RESULT:      -4.4     14.187     15.319
REMARK  Name = 
REMARK  8 active torsions:
REMARK  status: ('A' for Active; 'I' for Inactive)
REMARK    1  A    between atoms: C_2  and  C_3
REMARK    2  A    between atoms: C_2  and  C_36
REMARK    3  A    between atoms: C_14  and  C_16
REMARK    4  A    between atoms: C_19  and  C_20
REMARK    5  A    between atoms: C_20  and  N_21
REMARK    6  A    between atoms: N_38  and  C_39
REMARK    7  A    between atoms: C_39  and  C_40
REMARK    8  A    between atoms: C_40  and  N_41
REMARK                            x       y       z     vdW  Elec       q    Type
REMARK                         _______ _______ _______ _____ _____    ______ ____
ROOT
ATOM      3  C   UNL     1      -7.970 -10.308  17.194  0.00  0.00    +0.039 C 
ATOM      4  C   UNL     1      -8.429 -10.573  16.560  0.00  0.00    +0.003 C 
ATOM      5  C   UNL     1      -8.085 -10.677  15.818  0.00  0.00    +0.001 C 
ATOM      6  C   UNL     1      -7.284 -10.517  15.708  0.00  0.00    +0.007 C 
ATOM      7  C   UNL     1      -7.742 -10.781  15.076  0.00  0.00    +0.000 C 
ATOM      8  C   UNL     1      -6.940 -10.621  14.965  0.00  0.00    +0.034 C 
ATOM      9  C   UNL     1      -6.139 -10.460  14.855  0.00  0.00    +0.023 A 
ATOM     10  C   UNL     1      -5.680 -10.195  15.489  0.00  0.00    +0.063 A 
ATOM     11  N   UNL     1      -4.910 -10.083  15.216  0.00  0.00    -0.227 NA
ATOM     12  C   UNL     1      -4.892 -10.277  14.414  0.00  0.00    +0.185 A 
ATOM     13  N   UNL     1      -4.230 -10.245  13.922  0.00  0.00    -0.151 NA
ATOM     14  C   UNL     1      -4.297 -10.457  13.128  0.00  0.00    +0.271 C 
ATOM     15  O   UNL     1      -5.024 -10.703  12.826  0.00  0.00    -0.268 OA
ATOM     30  S   UNL     1      -5.651 -10.511  14.192  0.00  0.00    -0.054 S 
ATOM     31  C   UNL     1      -6.024 -10.091  16.231  0.00  0.00    +0.043 C 
ATOM     32  C   UNL     1      -5.566  -9.826  16.864  0.00  0.00    +0.006 C 
ATOM     33  C   UNL     1      -6.826 -10.252  16.342  0.00  0.00    +0.036 C 
ATOM     34  C   UNL     1      -7.169 -10.148  17.084  0.00  0.00    +0.153 C 
ATOM     35  O   UNL     1      -6.711  -9.883  17.717  0.00  0.00    -0.223 OA
ENDROOT
BRANCH  14  16
ATOM     16  C   UNL     1      -3.635 -10.425  12.636  0.00  0.00    +0.055 A 
ATOM     17  C   UNL     1      -3.732 -10.351  11.820  0.00  0.00    +0.004 A 
ATOM     18  C   UNL     1      -3.070 -10.318  11.327  0.00  0.00    -0.003 A 
ATOM     19  C   UNL     1      -2.313 -10.360  11.652  0.00  0.00    -0.006 A 
ATOM     28  C   UNL     1      -2.216 -10.433  12.467  0.00  0.00    -0.003 A 
ATOM     29  C   UNL     1      -2.877 -10.466  12.959  0.00  0.00    +0.004 A 
BRANCH  19  20
ATOM     20  C   UNL     1      -1.652 -10.327  11.160  0.00  0.00    +0.099 C 
BRANCH  20  21
ATOM     21  N   UNL     1      -1.114  -9.706  11.231  0.00  0.00    -0.267 NA
ATOM     22  C   UNL     1      -0.508  -9.745  11.790  0.00  0.00    +0.090 C 
ATOM     23  C   UNL     1       0.029  -9.123  11.860  0.00  0.00    +0.090 C 
ATOM     24  N   UNL     1      -0.039  -8.462  11.373  0.00  0.00    -0.269 NA
ATOM     25  C   UNL     1       0.498  -7.841  11.444  0.00  0.00    +0.090 C 
ATOM     26  C   UNL     1      -0.644  -8.422  10.814  0.00  0.00    +0.090 C 
ATOM     27  C   UNL     1      -1.182  -9.043  10.742  0.00  0.00    +0.090 C 
ENDBRANCH  20  21
ENDBRANCH  19  20
ENDBRANCH  14  16
BRANCH   3   2
ATOM      1  C   UNL     1      -7.849 -10.248  18.616  0.00  0.00    +0.010 C 
ATOM      2  C   UNL     1      -8.314 -10.204  17.936  0.00  0.00    +0.081 C 
BRANCH   2  36
ATOM     36  C   UNL     1      -9.124 -10.056  18.000  0.00  0.00    +0.241 C 
ATOM     37  O   UNL     1      -9.609 -10.587  18.406  0.00  0.00    -0.273 OA
ATOM     38  N   UNL     1      -9.448  -9.379  17.659  0.00  0.00    -0.204 NA
BRANCH  38  39
ATOM     39  C   UNL     1     -10.256  -9.232  17.723  0.00  0.00    +0.132 C 
BRANCH  39  40
ATOM     40  C   UNL     1     -10.675  -8.934  17.077  0.00  0.00    +0.096 C 
BRANCH  40  41
ATOM     41  N   UNL     1     -10.624  -8.133  16.886  0.00  0.00    -0.267 NA
ATOM     42  C   UNL     1     -10.479  -7.903  16.107  0.00  0.00    +0.105 C 
ATOM     43  C   UNL     1     -10.429  -7.102  15.916  0.00  0.00    +0.159 C 
ATOM     44  O   UNL     1     -10.524  -6.531  16.505  0.00  0.00    -0.351 OA
ATOM     45  C   UNL     1     -10.669  -6.761  17.283  0.00  0.00    +0.159 C 
ATOM     46  C   UNL     1     -10.719  -7.562  17.475  0.00  0.00    +0.105 C 
ENDBRANCH  40  41
ENDBRANCH  39  40
ENDBRANCH  38  39
ENDBRANCH   2  36
ENDBRANCH   3   2
TORSDOF 8
ENDMDL
