MODEL 1
REMARK VINA RESULT:     -13.4      0.000      0.000
REMARK  Name = 
REMARK  7 active torsions:
REMARK  status: ('A' for Active; 'I' for Inactive)
REMARK    1  A    between atoms: C_2  and  C_3
REMARK    2  A    between atoms: C_2  and  C_26
REMARK    3  A    between atoms: C_10  and  N_11
REMARK    4  A    between atoms: C_12  and  C_14
REMARK    5  A    between atoms: C_14  and  C_15
REMARK    6  A    between atoms: N_28  and  C_29
REMARK    7  A    between atoms: C_29  and  C_30
REMARK                            x       y       z     vdW  Elec       q    Type
REMARK                         _______ _______ _______ _____ _____    ______ ____
ROOT
ATOM      3  C   UNL     1      -0.208   2.242  25.191  0.00  0.00    +0.039 C 
ATOM      4  C   UNL     1       0.221   2.308  24.488  0.00  0.00    +0.003 C 
ATOM      5  C   UNL     1       0.339   1.644  24.014  0.00  0.00    +0.000 C 
ATOM      6  C   UNL     1       0.029   0.915  24.240  0.00  0.00    +0.002 C 
ATOM      7  C   UNL     1       0.457   0.980  23.539  0.00  0.00    +0.000 C 
ATOM      8  C   UNL     1       0.146   0.250  23.766  0.00  0.00    +0.002 C 
ATOM      9  C   UNL     1      -0.164  -0.480  23.993  0.00  0.00    +0.022 C 
ATOM     10  C   UNL     1      -0.593  -0.545  24.695  0.00  0.00    +0.095 C 
ATOM     21  C   UNL     1      -0.711   0.119  25.170  0.00  0.00    +0.022 C 
ATOM     22  C   UNL     1      -1.140   0.053  25.871  0.00  0.00    +0.002 C 
ATOM     23  C   UNL     1      -0.401   0.849  24.943  0.00  0.00    +0.032 C 
ATOM     24  C   UNL     1      -0.519   1.513  25.417  0.00  0.00    +0.152 C 
ATOM     25  O   UNL     1      -0.947   1.447  26.119  0.00  0.00    -0.223 OA
ENDROOT
BRANCH  10  11
ATOM     11  N   UNL     1      -0.904  -1.275  24.922  0.00  0.00    -0.207 NA
ATOM     12  C   UNL     1      -1.325  -1.731  24.379  0.00  0.00    +0.246 C 
ATOM     13  O   UNL     1      -1.437  -1.457  23.608  0.00  0.00    -0.273 OA
BRANCH  12  14
ATOM     14  C   UNL     1      -1.636  -2.461  24.606  0.00  0.00    +0.113 C 
BRANCH  14  15
ATOM     15  C   UNL     1      -2.450  -2.589  24.583  0.00  0.00    -0.013 A 
ATOM     16  C   UNL     1      -2.816  -2.798  23.873  0.00  0.00    -0.004 A 
ATOM     17  C   UNL     1      -3.631  -2.926  23.851  0.00  0.00    -0.000 A 
ATOM     18  C   UNL     1      -4.080  -2.844  24.537  0.00  0.00    -0.000 A 
ATOM     19  C   UNL     1      -3.715  -2.634  25.248  0.00  0.00    -0.000 A 
ATOM     20  C   UNL     1      -2.900  -2.507  25.270  0.00  0.00    -0.004 A 
ENDBRANCH  14  15
ENDBRANCH  12  14
ENDBRANCH  10  11
BRANCH   3   2
ATOM      1  C   UNL     1       0.056   2.968  26.394  0.00  0.00    +0.010 C 
ATOM      2  C   UNL     1      -0.326   2.907  25.665  0.00  0.00    +0.081 C 
BRANCH   2  26
ATOM     26  C   UNL     1      -0.826   3.512  25.410  0.00  0.00    +0.241 C 
ATOM     27  O   UNL     1      -0.515   4.164  25.011  0.00  0.00    -0.273 OA
ATOM     28  N   UNL     1      -1.638   3.464  25.555  0.00  0.00    -0.201 NA
BRANCH  28  29
ATOM     29  C   UNL     1      -2.137   4.068  25.300  0.00  0.00    +0.141 C 
BRANCH  29  30
ATOM     30  C   UNL     1      -2.953   3.949  25.282  0.00  0.00    -0.000 A 
ATOM     31  C   UNL     1      -3.333   3.798  24.565  0.00  0.00    -0.000 A 
ATOM     32  C   UNL     1      -4.148   3.679  24.548  0.00  0.00    +0.029 A 
ATOM     33  C   UNL     1      -4.586   3.710  25.247  0.00  0.00    +0.140 A 
ATOM     34  F   UNL     1      -5.401   3.591  25.229  0.00  0.00    -0.204 F 
ATOM     35  C   UNL     1      -4.206   3.861  25.964  0.00  0.00    +0.029 A 
ATOM     36  C   UNL     1      -3.389   3.981  25.981  0.00  0.00    -0.000 A 
ENDBRANCH  29  30
ENDBRANCH  28  29
ENDBRANCH   2  26
ENDBRANCH   3   2
TORSDOF 7
ENDMDL
MODEL 2
REMARK VINA RESULT:     -13.4      2.119      3.816
REMARK  Name = 
REMARK  7 active torsions:
REMARK  status: ('A' for Active; 'I' for Inactive)
REMARK    1  A    between atoms: C_2  and  C_3
REMARK    2  A    between atoms: C_2  and  C_26
REMARK    3  A    between atoms: C_10  and  N_11
REMARK    4  A    between atoms: C_12  and  C_14
REMARK    5  A    between atoms: C_14  and  C_15
REMARK    6  A    between atoms: N_28  and  C_29
REMARK    7  A    between atoms: C_29  and  C_30
REMARK                            x       y       z     vdW  Elec       q    Type
REMARK                         _______ _______ _______ _____ _____    ______ ____
ROOT
ATOM      3  C   UNL     1      -4.166   3.259  24.786  0.00  0.00    +0.039 C 
ATOM      4  C   UNL     1      -4.763   3.281  25.357  0.00  0.00    +0.003 C 
ATOM      5  C   UNL     1      -5.185   2.597  25.538  0.00  0.00    +0.000 C 
ATOM      6  C   UNL     1      -5.012   1.890  25.150  0.00  0.00    +0.002 C 
ATOM      7  C   UNL     1      -5.607   1.912  25.719  0.00  0.00    +0.000 C 
ATOM      8  C   UNL     1      -5.434   1.205  25.331  0.00  0.00    +0.002 C 
ATOM      9  C   UNL     1      -5.261   0.498  24.943  0.00  0.00    +0.022 C 
ATOM     10  C   UNL     1      -4.664   0.476  24.373  0.00  0.00    +0.095 C 
ATOM     21  C   UNL     1      -4.241   1.161  24.192  0.00  0.00    +0.022 C 
ATOM     22  C   UNL     1      -3.645   1.139  23.622  0.00  0.00    +0.002 C 
ATOM     23  C   UNL     1      -4.415   1.868  24.580  0.00  0.00    +0.032 C 
ATOM     24  C   UNL     1      -3.992   2.553  24.398  0.00  0.00    +0.152 C 
ATOM     25  O   UNL     1      -3.396   2.530  23.829  0.00  0.00    -0.223 OA
ENDROOT
BRANCH  10  11
ATOM     11  N   UNL     1      -4.491  -0.231  23.985  0.00  0.00    -0.207 NA
ATOM     12  C   UNL     1      -4.298  -0.904  24.420  0.00  0.00    +0.246 C 
ATOM     13  O   UNL     1      -4.278  -0.871  25.245  0.00  0.00    -0.273 OA
BRANCH  12  14
ATOM     14  C   UNL     1      -4.125  -1.612  24.032  0.00  0.00    +0.113 C 
BRANCH  14  15
ATOM     15  C   UNL     1      -3.503  -2.085  24.294  0.00  0.00    -0.013 A 
ATOM     16  C   UNL     1      -2.725  -1.894  24.090  0.00  0.00    -0.004 A 
ATOM     17  C   UNL     1      -2.103  -2.368  24.353  0.00  0.00    -0.000 A 
ATOM     18  C   UNL     1      -2.256  -3.031  24.818  0.00  0.00    -0.000 A 
ATOM     19  C   UNL     1      -3.034  -3.222  25.022  0.00  0.00    -0.000 A 
ATOM     20  C   UNL     1      -3.656  -2.749  24.760  0.00  0.00    -0.004 A 
ENDBRANCH  14  15
ENDBRANCH  12  14
ENDBRANCH  10  11
BRANCH   3   2
ATOM      1  C   UNL     1      -3.936   4.384  23.934  0.00  0.00    +0.010 C 
ATOM      2  C   UNL     1      -3.743   3.944  24.605  0.00  0.00    +0.081 C 
BRANCH   2  26
ATOM     26  C   UNL     1      -3.127   4.190  25.096  0.00  0.00    +0.241 C 
ATOM     27  O   UNL     1      -3.271   4.739  25.696  0.00  0.00    -0.273 OA
ATOM     28  N   UNL     1      -2.366   3.888  24.987  0.00  0.00    -0.201 NA
BRANCH  28  29
ATOM     29  C   UNL     1      -1.751   4.134  25.477  0.00  0.00    +0.141 C 
BRANCH  29  30
ATOM     30  C   UNL     1      -1.093   3.649  25.588  0.00  0.00    -0.000 A 
ATOM     31  C   UNL     1      -0.481   3.651  25.036  0.00  0.00    -0.000 A 
ATOM     32  C   UNL     1       0.177   3.166  25.148  0.00  0.00    +0.029 A 
ATOM     33  C   UNL     1       0.223   2.679  25.812  0.00  0.00    +0.140 A 
ATOM     34  F   UNL     1       0.880   2.195  25.924  0.00  0.00    -0.204 F 
ATOM     35  C   UNL     1      -0.390   2.677  26.365  0.00  0.00    +0.029 A 
ATOM     36  C   UNL     1      -1.048   3.163  26.253  0.00  0.00    -0.000 A 
ENDBRANCH  29  30
ENDBRANCH  28  29
ENDBRANCH   2  26
ENDBRANCH   3   2
TORSDOF 7
ENDMDL
MODEL 3
REMARK VINA RESULT:     -12.6      2.932      5.660
REMARK  Name = 
REMARK  7 active torsions:
REMARK  status: ('A' for Active; 'I' for Inactive)
REMARK    1  A    between atoms: C_2  and  C_3
REMARK    2  A    between atoms: C_2  and  C_26
REMARK    3  A    between atoms: C_10  and  N_11
REMARK    4  A    between atoms: C_12  and  C_14
REMARK    5  A    between atoms: C_14  and  C_15
REMARK    6  A    between atoms: N_28  and  C_29
REMARK    7  A    between atoms: C_29  and  C_30
REMARK                            x       y       z     vdW  Elec       q    Type
REMARK                         _______ _______ _______ _____ _____    ______ ____
ROOT
ATOM      3  C   UNL     1       0.086   0.799  23.889  0.00  0.00    +0.039 C 
ATOM      4  C   UNL     1       0.547   1.354  24.291  0.00  0.00    +0.003 C 
ATOM      5  C   UNL     1       0.212   2.064  24.542  0.00  0.00    +0.000 C 
ATOM      6  C   UNL     1      -0.584   2.220  24.392  0.00  0.00    +0.002 C 
ATOM      7  C   UNL     1      -0.124   2.774  24.792  0.00  0.00    +0.000 C 
ATOM      8  C   UNL     1      -0.920   2.931  24.643  0.00  0.00    +0.002 C 
ATOM      9  C   UNL     1      -1.715   3.087  24.493  0.00  0.00    +0.022 C 
ATOM     10  C   UNL     1      -2.176   2.532  24.091  0.00  0.00    +0.095 C 
ATOM     21  C   UNL     1      -1.841   1.822  23.840  0.00  0.00    +0.022 C 
ATOM     22  C   UNL     1      -2.301   1.267  23.439  0.00  0.00    +0.002 C 
ATOM     23  C   UNL     1      -1.045   1.665  23.990  0.00  0.00    +0.032 C 
ATOM     24  C   UNL     1      -0.709   0.955  23.739  0.00  0.00    +0.152 C 
ATOM     25  O   UNL     1      -1.170   0.400  23.338  0.00  0.00    -0.223 OA
ENDROOT
BRANCH  10  11
ATOM     11  N   UNL     1      -2.973   2.688  23.941  0.00  0.00    -0.207 NA
ATOM     12  C   UNL     1      -3.443   3.030  24.525  0.00  0.00    +0.246 C 
ATOM     13  O   UNL     1      -3.118   3.216  25.261  0.00  0.00    -0.273 OA
BRANCH  12  14
ATOM     14  C   UNL     1      -4.239   3.187  24.375  0.00  0.00    +0.113 C 
BRANCH  14  15
ATOM     15  C   UNL     1      -4.824   2.841  24.843  0.00  0.00    -0.013 A 
ATOM     16  C   UNL     1      -5.026   3.181  25.568  0.00  0.00    -0.004 A 
ATOM     17  C   UNL     1      -5.611   2.835  26.036  0.00  0.00    -0.000 A 
ATOM     18  C   UNL     1      -5.993   2.150  25.781  0.00  0.00    -0.000 A 
ATOM     19  C   UNL     1      -5.790   1.811  25.056  0.00  0.00    -0.000 A 
ATOM     20  C   UNL     1      -5.206   2.156  24.588  0.00  0.00    -0.004 A 
ENDBRANCH  14  15
ENDBRANCH  12  14
ENDBRANCH  10  11
BRANCH   3   2
ATOM      1  C   UNL     1       0.197  -0.623  23.990  0.00  0.00    +0.010 C 
ATOM      2  C   UNL     1       0.422   0.088  23.638  0.00  0.00    +0.081 C 
BRANCH   2  26
ATOM     26  C   UNL     1       0.984   0.089  23.034  0.00  0.00    +0.241 C 
ATOM     27  O   UNL     1       0.742   0.076  22.245  0.00  0.00    -0.273 OA
ATOM     28  N   UNL     1       1.789   0.102  23.219  0.00  0.00    -0.201 NA
BRANCH  28  29
ATOM     29  C   UNL     1       2.350   0.103  22.616  0.00  0.00    +0.141 C 
BRANCH  29  30
ATOM     30  C   UNL     1       3.150   0.192  22.796  0.00  0.00    -0.000 A 
ATOM     31  C   UNL     1       3.535   0.903  22.629  0.00  0.00    -0.000 A 
ATOM     32  C   UNL     1       4.334   0.991  22.809  0.00  0.00    +0.029 A 
ATOM     33  C   UNL     1       4.751   0.369  23.157  0.00  0.00    +0.140 A 
ATOM     34  F   UNL     1       5.550   0.458  23.338  0.00  0.00    -0.204 F 
ATOM     35  C   UNL     1       4.366  -0.341  23.324  0.00  0.00    +0.029 A 
ATOM     36  C   UNL     1       3.565  -0.430  23.143  0.00  0.00    -0.000 A 
ENDBRANCH  29  30
ENDBRANCH  28  29
ENDBRANCH   2  26
ENDBRANCH   3   2
TORSDOF 7
ENDMDL
MODEL 4
REMARK VINA RESULT:     -12.3      1.645      4.962
REMARK  Name = 
REMARK  7 active torsions:
REMARK  status: ('A' for Active; 'I' for Inactive)
REMARK    1  A    between atoms: C_2  and  C_3
REMARK    2  A    between atoms: C_2  and  C_26
REMARK    3  A    between atoms: C_10  and  N_11
REMARK    4  A    between atoms: C_12  and  C_14
REMARK    5  A    between atoms: C_14  and  C_15
REMARK    6  A    between atoms: N_28  and  C_29
REMARK    7  A    between atoms: C_29  and  C_30
REMARK                            x       y       z     vdW  Elec       q    Type
REMARK                         _______ _______ _______ _____ _____    ______ ____
ROOT
ATOM      3  C   UNL     1      -0.203   0.859  24.145  0.00  0.00    +0.039 C 
ATOM      4  C   UNL     1       0.306   1.208  24.694  0.00  0.00    +0.003 C 
ATOM      5  C   UNL     1       0.091   1.911  25.067  0.00  0.00    +0.000 C 
ATOM      6  C   UNL     1      -0.633   2.265  24.893  0.00  0.00    +0.002 C 
ATOM      7  C   UNL     1      -0.125   2.613  25.440  0.00  0.00    +0.000 C 
ATOM      8  C   UNL     1      -0.849   2.968  25.267  0.00  0.00    +0.002 C 
ATOM      9  C   UNL     1      -1.573   3.322  25.093  0.00  0.00    +0.022 C 
ATOM     10  C   UNL     1      -2.083   2.973  24.545  0.00  0.00    +0.095 C 
ATOM     21  C   UNL     1      -1.867   2.271  24.171  0.00  0.00    +0.022 C 
ATOM     22  C   UNL     1      -2.376   1.922  23.624  0.00  0.00    +0.002 C 
ATOM     23  C   UNL     1      -1.143   1.916  24.345  0.00  0.00    +0.032 C 
ATOM     24  C   UNL     1      -0.927   1.213  23.972  0.00  0.00    +0.152 C 
ATOM     25  O   UNL     1      -1.436   0.864  23.424  0.00  0.00    -0.223 OA
ENDROOT
BRANCH  10  11
ATOM     11  N   UNL     1      -2.807   3.328  24.371  0.00  0.00    -0.207 NA
ATOM     12  C   UNL     1      -3.349   3.477  24.974  0.00  0.00    +0.246 C 
ATOM     13  O   UNL     1      -3.167   3.271  25.753  0.00  0.00    -0.273 OA
BRANCH  12  14
ATOM     14  C   UNL     1      -4.074   3.832  24.801  0.00  0.00    +0.113 C 
BRANCH  14  15
ATOM     15  C   UNL     1      -4.776   3.480  25.051  0.00  0.00    -0.013 A 
ATOM     16  C   UNL     1      -5.203   3.809  25.677  0.00  0.00    -0.004 A 
ATOM     17  C   UNL     1      -5.906   3.457  25.926  0.00  0.00    -0.000 A 
ATOM     18  C   UNL     1      -6.183   2.777  25.551  0.00  0.00    -0.000 A 
ATOM     19  C   UNL     1      -5.756   2.448  24.925  0.00  0.00    -0.000 A 
ATOM     20  C   UNL     1      -5.054   2.799  24.676  0.00  0.00    -0.004 A 
ENDBRANCH  14  15
ENDBRANCH  12  14
ENDBRANCH  10  11
BRANCH   3   2
ATOM      1  C   UNL     1       0.322   0.171  23.007  0.00  0.00    +0.010 C 
ATOM      2  C   UNL     1       0.013   0.156  23.772  0.00  0.00    +0.081 C 
BRANCH   2  26
ATOM     26  C   UNL     1      -0.080  -0.564  24.164  0.00  0.00    +0.241 C 
ATOM     27  O   UNL     1       0.573  -0.933  24.511  0.00  0.00    -0.273 OA
ATOM     28  N   UNL     1      -0.825  -0.917  24.209  0.00  0.00    -0.201 NA
BRANCH  28  29
ATOM     29  C   UNL     1      -0.918  -1.636  24.600  0.00  0.00    +0.141 C 
BRANCH  29  30
ATOM     30  C   UNL     1      -1.671  -1.957  24.701  0.00  0.00    -0.000 A 
ATOM     31  C   UNL     1      -2.152  -1.695  25.318  0.00  0.00    -0.000 A 
ATOM     32  C   UNL     1      -2.905  -2.016  25.418  0.00  0.00    +0.029 A 
ATOM     33  C   UNL     1      -3.177  -2.600  24.903  0.00  0.00    +0.140 A 
ATOM     34  F   UNL     1      -3.929  -2.922  25.003  0.00  0.00    -0.204 F 
ATOM     35  C   UNL     1      -2.695  -2.863  24.287  0.00  0.00    +0.029 A 
ATOM     36  C   UNL     1      -1.941  -2.541  24.186  0.00  0.00    -0.000 A 
ENDBRANCH  29  30
ENDBRANCH  28  29
ENDBRANCH   2  26
ENDBRANCH   3   2
TORSDOF 7
ENDMDL
MODEL 5
REMARK VINA RESULT:     -12.2      2.354      4.377
REMARK  Name = 
REMARK  7 active torsions:
REMARK  status: ('A' for Active; 'I' for Inactive)
REMARK    1  A    between atoms: C_2  and  C_3
REMARK    2  A    between atoms: C_2  and  C_26
REMARK    3  A    between atoms: C_10  and  N_11
REMARK    4  A    between atoms: C_12  and  C_14
REMARK    5  A    between atoms: C_14  and  C_15
REMARK    6  A    between atoms: N_28  and  C_29
REMARK    7  A    between atoms: C_29  and  C_30
REMARK                            x       y       z     vdW  Elec       q    Type
REMARK                         _______ _______ _______ _____ _____    ______ ____
ROOT
ATOM      3  C   UNL     1      -1.627   0.427  24.865  0.00  0.00    +0.039 C 
ATOM      4  C   UNL     1      -1.549   1.210  25.115  0.00  0.00    +0.003 C 
ATOM      5  C   UNL     1      -0.879   1.644  24.908  0.00  0.00    +0.000 C 
ATOM      6  C   UNL     1      -0.287   1.296  24.451  0.00  0.00    +0.002 C 
ATOM      7  C   UNL     1      -0.209   2.077  24.701  0.00  0.00    +0.000 C 
ATOM      8  C   UNL     1       0.384   1.730  24.244  0.00  0.00    +0.002 C 
ATOM      9  C   UNL     1       0.975   1.382  23.787  0.00  0.00    +0.022 C 
ATOM     10  C   UNL     1       0.897   0.599  23.537  0.00  0.00    +0.095 C 
ATOM     21  C   UNL     1       0.227   0.165  23.743  0.00  0.00    +0.022 C 
ATOM     22  C   UNL     1       0.149  -0.617  23.493  0.00  0.00    +0.002 C 
ATOM     23  C   UNL     1      -0.366   0.513  24.201  0.00  0.00    +0.032 C 
ATOM     24  C   UNL     1      -1.035   0.079  24.408  0.00  0.00    +0.152 C 
ATOM     25  O   UNL     1      -1.114  -0.703  24.157  0.00  0.00    -0.223 OA
ENDROOT
BRANCH  10  11
ATOM     11  N   UNL     1       1.489   0.252  23.079  0.00  0.00    -0.207 NA
ATOM     12  C   UNL     1       2.240   0.591  23.048  0.00  0.00    +0.246 C 
ATOM     13  O   UNL     1       2.399   1.281  23.474  0.00  0.00    -0.273 OA
BRANCH  12  14
ATOM     14  C   UNL     1       2.832   0.244  22.591  0.00  0.00    +0.113 C 
BRANCH  14  15
ATOM     15  C   UNL     1       3.598   0.176  22.889  0.00  0.00    -0.013 A 
ATOM     16  C   UNL     1       4.125   0.808  22.819  0.00  0.00    -0.004 A 
ATOM     17  C   UNL     1       4.892   0.739  23.118  0.00  0.00    -0.000 A 
ATOM     18  C   UNL     1       5.131   0.041  23.486  0.00  0.00    -0.000 A 
ATOM     19  C   UNL     1       4.603  -0.590  23.555  0.00  0.00    -0.000 A 
ATOM     20  C   UNL     1       3.837  -0.522  23.257  0.00  0.00    -0.004 A 
ENDBRANCH  14  15
ENDBRANCH  12  14
ENDBRANCH  10  11
BRANCH   3   2
ATOM      1  C   UNL     1      -2.246  -0.603  25.640  0.00  0.00    +0.010 C 
ATOM      2  C   UNL     1      -2.298  -0.007  25.072  0.00  0.00    +0.081 C 
BRANCH   2  26
ATOM     26  C   UNL     1      -3.021   0.156  24.711  0.00  0.00    +0.241 C 
ATOM     27  O   UNL     1      -3.254  -0.269  24.042  0.00  0.00    -0.273 OA
ATOM     28  N   UNL     1      -3.514   0.743  25.018  0.00  0.00    -0.201 NA
BRANCH  28  29
ATOM     29  C   UNL     1      -4.236   0.906  24.657  0.00  0.00    +0.141 C 
BRANCH  29  30
ATOM     30  C   UNL     1      -4.681   1.557  24.899  0.00  0.00    -0.000 A 
ATOM     31  C   UNL     1      -4.513   2.307  24.599  0.00  0.00    -0.000 A 
ATOM     32  C   UNL     1      -4.958   2.957  24.841  0.00  0.00    +0.029 A 
ATOM     33  C   UNL     1      -5.573   2.858  25.383  0.00  0.00    +0.140 A 
ATOM     34  F   UNL     1      -6.018   3.508  25.625  0.00  0.00    -0.204 F 
ATOM     35  C   UNL     1      -5.741   2.108  25.683  0.00  0.00    +0.029 A 
ATOM     36  C   UNL     1      -5.295   1.457  25.441  0.00  0.00    -0.000 A 
ENDBRANCH  29  30
ENDBRANCH  28  29
ENDBRANCH   2  26
ENDBRANCH   3   2
TORSDOF 7
ENDMDL
MODEL 6
REMARK VINA RESULT:     -11.8      2.628      4.968
REMARK  Name = 
REMARK  7 active torsions:
REMARK  status: ('A' for Active; 'I' for Inactive)
REMARK    1  A    between atoms: C_2  and  C_3
REMARK    2  A    between atoms: C_2  and  C_26
REMARK    3  A    between atoms: C_10  and  N_11
REMARK    4  A    between atoms: C_12  and  C_14
REMARK    5  A    between atoms: C_14  and  C_15
REMARK    6  A    between atoms: N_28  and  C_29
REMARK    7  A    between atoms: C_29  and  C_30
REMARK                            x       y       z     vdW  Elec       q    Type
REMARK                         _______ _______ _______ _____ _____    ______ ____
ROOT
ATOM      3  C   UNL     1      -1.940   1.640  24.188  0.00  0.00    +0.039 C 
ATOM      4  C   UNL     1      -1.685   2.082  24.837  0.00  0.00    +0.003 C 
ATOM      5  C   UNL     1      -0.885   2.105  25.033  0.00  0.00    +0.000 C 
ATOM      6  C   UNL     1      -0.338   1.686  24.580  0.00  0.00    +0.002 C 
ATOM      7  C   UNL     1      -0.084   2.127  25.228  0.00  0.00    +0.000 C 
ATOM      8  C   UNL     1       0.464   1.708  24.775  0.00  0.00    +0.002 C 
ATOM      9  C   UNL     1       1.010   1.289  24.322  0.00  0.00    +0.022 C 
ATOM     10  C   UNL     1       0.756   0.846  23.673  0.00  0.00    +0.095 C 
ATOM     21  C   UNL     1      -0.045   0.824  23.478  0.00  0.00    +0.022 C 
ATOM     22  C   UNL     1      -0.299   0.381  22.830  0.00  0.00    +0.002 C 
ATOM     23  C   UNL     1      -0.592   1.243  23.931  0.00  0.00    +0.032 C 
ATOM     24  C   UNL     1      -1.393   1.221  23.736  0.00  0.00    +0.152 C 
ATOM     25  O   UNL     1      -1.647   0.778  23.087  0.00  0.00    -0.223 OA
ENDROOT
BRANCH  10  11
ATOM     11  N   UNL     1       1.304   0.427  23.220  0.00  0.00    -0.207 NA
ATOM     12  C   UNL     1       2.056   0.737  23.090  0.00  0.00    +0.246 C 
ATOM     13  O   UNL     1       2.262   1.469  23.413  0.00  0.00    -0.273 OA
BRANCH  12  14
ATOM     14  C   UNL     1       2.604   0.318  22.637  0.00  0.00    +0.113 C 
BRANCH  14  15
ATOM     15  C   UNL     1       3.392   0.279  22.875  0.00  0.00    -0.013 A 
ATOM     16  C   UNL     1       3.905   0.906  22.711  0.00  0.00    -0.004 A 
ATOM     17  C   UNL     1       4.694   0.866  22.949  0.00  0.00    -0.000 A 
ATOM     18  C   UNL     1       4.971   0.202  23.350  0.00  0.00    -0.000 A 
ATOM     19  C   UNL     1       4.459  -0.425  23.514  0.00  0.00    -0.000 A 
ATOM     20  C   UNL     1       3.670  -0.386  23.277  0.00  0.00    -0.004 A 
ENDBRANCH  14  15
ENDBRANCH  12  14
ENDBRANCH  10  11
BRANCH   3   2
ATOM      1  C   UNL     1      -3.024   2.055  23.353  0.00  0.00    +0.010 C 
ATOM      2  C   UNL     1      -2.741   1.617  23.993  0.00  0.00    +0.081 C 
BRANCH   2  26
ATOM     26  C   UNL     1      -3.261   1.157  24.439  0.00  0.00    +0.241 C 
ATOM     27  O   UNL     1      -3.673   1.493  25.071  0.00  0.00    -0.273 OA
ATOM     28  N   UNL     1      -3.370   0.360  24.253  0.00  0.00    -0.201 NA
BRANCH  28  29
ATOM     29  C   UNL     1      -3.889  -0.100  24.698  0.00  0.00    +0.141 C 
BRANCH  29  30
ATOM     30  C   UNL     1      -3.881  -0.921  24.623  0.00  0.00    -0.000 A 
ATOM     31  C   UNL     1      -4.241  -1.280  23.973  0.00  0.00    -0.000 A 
ATOM     32  C   UNL     1      -4.233  -2.101  23.899  0.00  0.00    +0.029 A 
ATOM     33  C   UNL     1      -3.865  -2.564  24.475  0.00  0.00    +0.140 A 
ATOM     34  F   UNL     1      -3.857  -3.385  24.400  0.00  0.00    -0.204 F 
ATOM     35  C   UNL     1      -3.505  -2.206  25.124  0.00  0.00    +0.029 A 
ATOM     36  C   UNL     1      -3.513  -1.383  25.199  0.00  0.00    -0.000 A 
ENDBRANCH  29  30
ENDBRANCH  28  29
ENDBRANCH   2  26
ENDBRANCH   3   2
TORSDOF 7
ENDMDL
MODEL 7
REMARK VINA RESULT:     -11.5      1.376      4.859
REMARK  Name = 
REMARK  7 active torsions:
REMARK  status: ('A' for Active; 'I' for Inactive)
REMARK    1  A    between atoms: C_2  and  C_3
REMARK    2  A    between atoms: C_2  and  C_26
REMARK    3  A    between atoms: C_10  and  N_11
REMARK    4  A    between atoms: C_12  and  C_14
REMARK    5  A    between atoms: C_14  and  C_15
REMARK    6  A    between atoms: N_28  and  C_29
REMARK    7  A    between atoms: C_29  and  C_30
REMARK                            x       y       z     vdW  Elec       q    Type
REMARK                         _______ _______ _______ _____ _____    ______ ____
ROOT
ATOM      3  C   UNL     1      -0.553  -1.006  24.613  0.00  0.00    +0.039 C 
ATOM      4  C   UNL     1      -0.223  -1.032  23.857  0.00  0.00    +0.003 C 
ATOM      5  C   UNL     1       0.096  -0.350  23.522  0.00  0.00    +0.000 C 
ATOM      6  C   UNL     1       0.086   0.359  23.943  0.00  0.00    +0.002 C 
ATOM      7  C   UNL     1       0.415   0.333  23.188  0.00  0.00    +0.000 C 
ATOM      8  C   UNL     1       0.405   1.043  23.609  0.00  0.00    +0.002 C 
ATOM      9  C   UNL     1       0.394   1.752  24.030  0.00  0.00    +0.022 C 
ATOM     10  C   UNL     1       0.064   1.778  24.786  0.00  0.00    +0.095 C 
ATOM     21  C   UNL     1      -0.255   1.095  25.121  0.00  0.00    +0.022 C 
ATOM     22  C   UNL     1      -0.585   1.121  25.876  0.00  0.00    +0.002 C 
ATOM     23  C   UNL     1      -0.245   0.385  24.700  0.00  0.00    +0.032 C 
ATOM     24  C   UNL     1      -0.563  -0.297  25.034  0.00  0.00    +0.152 C 
ATOM     25  O   UNL     1      -0.893  -0.271  25.790  0.00  0.00    -0.223 OA
ENDROOT
BRANCH  10  11
ATOM     11  N   UNL     1       0.054   2.488  25.207  0.00  0.00    -0.207 NA
ATOM     12  C   UNL     1      -0.278   3.163  24.870  0.00  0.00    +0.246 C 
ATOM     13  O   UNL     1      -0.600   3.129  24.110  0.00  0.00    -0.273 OA
BRANCH  12  14
ATOM     14  C   UNL     1      -0.288   3.873  25.291  0.00  0.00    +0.113 C 
BRANCH  14  15
ATOM     15  C   UNL     1      -0.958   4.353  25.274  0.00  0.00    -0.013 A 
ATOM     16  C   UNL     1      -1.652   4.105  25.647  0.00  0.00    -0.004 A 
ATOM     17  C   UNL     1      -2.323   4.586  25.630  0.00  0.00    -0.000 A 
ATOM     18  C   UNL     1      -2.300   5.313  25.243  0.00  0.00    -0.000 A 
ATOM     19  C   UNL     1      -1.606   5.561  24.870  0.00  0.00    -0.000 A 
ATOM     20  C   UNL     1      -0.936   5.081  24.886  0.00  0.00    -0.004 A 
ENDBRANCH  14  15
ENDBRANCH  12  14
ENDBRANCH  10  11
BRANCH   3   2
ATOM      1  C   UNL     1      -0.438  -2.121  25.501  0.00  0.00    +0.010 C 
ATOM      2  C   UNL     1      -0.872  -1.690  24.947  0.00  0.00    +0.081 C 
BRANCH   2  26
ATOM     26  C   UNL     1      -1.626  -1.943  24.727  0.00  0.00    +0.241 C 
ATOM     27  O   UNL     1      -1.713  -2.604  24.240  0.00  0.00    -0.273 OA
ATOM     28  N   UNL     1      -2.292  -1.535  24.993  0.00  0.00    -0.201 NA
BRANCH  28  29
ATOM     29  C   UNL     1      -3.045  -1.788  24.773  0.00  0.00    +0.141 C 
BRANCH  29  30
ATOM     30  C   UNL     1      -3.664  -1.245  24.720  0.00  0.00    -0.000 A 
ATOM     31  C   UNL     1      -4.067  -1.147  24.007  0.00  0.00    -0.000 A 
ATOM     32  C   UNL     1      -4.685  -0.604  23.954  0.00  0.00    +0.029 A 
ATOM     33  C   UNL     1      -4.902  -0.159  24.614  0.00  0.00    +0.140 A 
ATOM     34  F   UNL     1      -5.520   0.384  24.562  0.00  0.00    -0.204 F 
ATOM     35  C   UNL     1      -4.499  -0.257  25.328  0.00  0.00    +0.029 A 
ATOM     36  C   UNL     1      -3.879  -0.801  25.381  0.00  0.00    -0.000 A 
ENDBRANCH  29  30
ENDBRANCH  28  29
ENDBRANCH   2  26
ENDBRANCH   3   2
TORSDOF 7
ENDMDL
MODEL 8
REMARK VINA RESULT:     -10.9      1.920      4.811
REMARK  Name = 
REMARK  7 active torsions:
REMARK  status: ('A' for Active; 'I' for Inactive)
REMARK    1  A    between atoms: C_2  and  C_3
REMARK    2  A    between atoms: C_2  and  C_26
REMARK    3  A    between atoms: C_10  and  N_11
REMARK    4  A    between atoms: C_12  and  C_14
REMARK    5  A    between atoms: C_14  and  C_15
REMARK    6  A    between atoms: N_28  and  C_29
REMARK    7  A    between atoms: C_29  and  C_30
REMARK                            x       y       z     vdW  Elec       q    Type
REMARK                         _______ _______ _______ _____ _____    ______ ____
ROOT
ATOM      3  C   UNL     1      -0.447   2.968  25.410  0.00  0.00    +0.039 C 
ATOM      4  C   UNL     1      -0.207   3.665  25.037  0.00  0.00    +0.003 C 
ATOM      5  C   UNL     1      -0.748   4.275  24.916  0.00  0.00    +0.000 C 
ATOM      6  C   UNL     1      -1.529   4.190  25.167  0.00  0.00    +0.002 C 
ATOM      7  C   UNL     1      -1.289   4.885  24.795  0.00  0.00    +0.000 C 
ATOM      8  C   UNL     1      -2.071   4.800  25.046  0.00  0.00    +0.002 C 
ATOM      9  C   UNL     1      -2.852   4.714  25.296  0.00  0.00    +0.022 C 
ATOM     10  C   UNL     1      -3.091   4.017  25.669  0.00  0.00    +0.095 C 
ATOM     21  C   UNL     1      -2.550   3.408  25.790  0.00  0.00    +0.022 C 
ATOM     22  C   UNL     1      -2.790   2.711  26.162  0.00  0.00    +0.002 C 
ATOM     23  C   UNL     1      -1.769   3.493  25.539  0.00  0.00    +0.032 C 
ATOM     24  C   UNL     1      -1.227   2.883  25.660  0.00  0.00    +0.152 C 
ATOM     25  O   UNL     1      -1.467   2.187  26.033  0.00  0.00    -0.223 OA
ENDROOT
BRANCH  10  11
ATOM     11  N   UNL     1      -3.873   3.932  25.920  0.00  0.00    -0.207 NA
ATOM     12  C   UNL     1      -4.478   3.850  25.366  0.00  0.00    +0.246 C 
ATOM     13  O   UNL     1      -4.302   3.853  24.559  0.00  0.00    -0.273 OA
BRANCH  12  14
ATOM     14  C   UNL     1      -5.259   3.765  25.617  0.00  0.00    +0.113 C 
BRANCH  14  15
ATOM     15  C   UNL     1      -5.635   3.034  25.557  0.00  0.00    -0.013 A 
ATOM     16  C   UNL     1      -5.755   2.691  24.815  0.00  0.00    -0.004 A 
ATOM     17  C   UNL     1      -6.131   1.959  24.755  0.00  0.00    -0.000 A 
ATOM     18  C   UNL     1      -6.387   1.570  25.435  0.00  0.00    -0.000 A 
ATOM     19  C   UNL     1      -6.268   1.913  26.176  0.00  0.00    -0.000 A 
ATOM     20  C   UNL     1      -5.892   2.644  26.237  0.00  0.00    -0.004 A 
ENDBRANCH  14  15
ENDBRANCH  12  14
ENDBRANCH  10  11
BRANCH   3   2
ATOM      1  C   UNL     1       0.527   2.321  26.233  0.00  0.00    +0.010 C 
ATOM      2  C   UNL     1       0.096   2.358  25.531  0.00  0.00    +0.081 C 
BRANCH   2  26
ATOM     26  C   UNL     1       0.206   1.784  24.948  0.00  0.00    +0.241 C 
ATOM     27  O   UNL     1       0.684   1.946  24.295  0.00  0.00    -0.273 OA
ATOM     28  N   UNL     1      -0.161   1.048  25.020  0.00  0.00    -0.201 NA
BRANCH  28  29
ATOM     29  C   UNL     1      -0.050   0.474  24.438  0.00  0.00    +0.141 C 
BRANCH  29  30
ATOM     30  C   UNL     1      -0.461  -0.239  24.479  0.00  0.00    -0.000 A 
ATOM     31  C   UNL     1      -0.134  -0.882  24.880  0.00  0.00    -0.000 A 
ATOM     32  C   UNL     1      -0.546  -1.595  24.920  0.00  0.00    +0.029 A 
ATOM     33  C   UNL     1      -1.285  -1.667  24.559  0.00  0.00    +0.140 A 
ATOM     34  F   UNL     1      -1.696  -2.380  24.599  0.00  0.00    -0.204 F 
ATOM     35  C   UNL     1      -1.612  -1.024  24.159  0.00  0.00    +0.029 A 
ATOM     36  C   UNL     1      -1.200  -0.310  24.118  0.00  0.00    -0.000 A 
ENDBRANCH  29  30
ENDBRANCH  28  29
ENDBRANCH   2  26
ENDBRANCH   3   2
TORSDOF 7
ENDMDL
MODEL 9
REMARK VINA RESULT:     -10.9      3.291      5.287
REMARK  Name = 
REMARK  7 active torsions:
REMARK  status: ('A' for Active; 'I' for Inactive)
REMARK    1  A    between atoms: C_2  and  C_3
REMARK    2  A    between atoms: C_2  and  C_26
REMARK    3  A    between atoms: C_10  and  N_11
REMARK    4  A    between atoms: C_12  and  C_14
REMARK    5  A    between atoms: C_14  and  C_15
REMARK    6  A    between atoms: N_28  and  C_29
REMARK    7  A    between atoms: C_29  and  C_30
REMARK                            x       y       z     vdW  Elec       q    Type
REMARK                         _______ _______ _______ _____ _____    ______ ____
ROOT
ATOM      3  C   UNL     1       1.101   0.613  23.337  0.00  0.00    +0.039 C 
ATOM      4  C   UNL     1       1.054   1.392  23.608  0.00  0.00    +0.003 C 
ATOM      5  C   UNL     1       0.479   1.602  24.160  0.00  0.00    +0.000 C 
ATOM      6  C   UNL     1      -0.050   1.036  24.441  0.00  0.00    +0.002 C 
ATOM      7  C   UNL     1      -0.096   1.813  24.711  0.00  0.00    +0.000 C 
ATOM      8  C   UNL     1      -0.626   1.246  24.993  0.00  0.00    +0.002 C 
ATOM      9  C   UNL     1      -1.155   0.679  25.274  0.00  0.00    +0.022 C 
ATOM     10  C   UNL     1      -1.109  -0.099  25.002  0.00  0.00    +0.095 C 
ATOM     21  C   UNL     1      -0.533  -0.310  24.450  0.00  0.00    +0.022 C 
ATOM     22  C   UNL     1      -0.487  -1.087  24.179  0.00  0.00    +0.002 C 
ATOM     23  C   UNL     1      -0.004   0.257  24.169  0.00  0.00    +0.032 C 
ATOM     24  C   UNL     1       0.572   0.047  23.618  0.00  0.00    +0.152 C 
ATOM     25  O   UNL     1       0.618  -0.731  23.346  0.00  0.00    -0.223 OA
ENDROOT
BRANCH  10  11
ATOM     11  N   UNL     1      -1.638  -0.666  25.283  0.00  0.00    -0.207 NA
ATOM     12  C   UNL     1      -2.449  -0.517  25.269  0.00  0.00    +0.246 C 
ATOM     13  O   UNL     1      -2.731   0.201  24.973  0.00  0.00    -0.273 OA
BRANCH  12  14
ATOM     14  C   UNL     1      -2.979  -1.083  25.551  0.00  0.00    +0.113 C 
BRANCH  14  15
ATOM     15  C   UNL     1      -3.421  -1.534  25.021  0.00  0.00    -0.013 A 
ATOM     16  C   UNL     1      -3.972  -1.167  24.526  0.00  0.00    -0.004 A 
ATOM     17  C   UNL     1      -4.414  -1.619  23.996  0.00  0.00    -0.000 A 
ATOM     18  C   UNL     1      -4.308  -2.435  23.960  0.00  0.00    -0.000 A 
ATOM     19  C   UNL     1      -3.758  -2.802  24.455  0.00  0.00    -0.000 A 
ATOM     20  C   UNL     1      -3.315  -2.352  24.984  0.00  0.00    -0.004 A 
ENDBRANCH  14  15
ENDBRANCH  12  14
ENDBRANCH  10  11
BRANCH   3   2
ATOM      1  C   UNL     1       1.498  -0.133  22.183  0.00  0.00    +0.010 C 
ATOM      2  C   UNL     1       1.677   0.403  22.785  0.00  0.00    +0.081 C 
BRANCH   2  26
ATOM     26  C   UNL     1       2.433   0.729  22.834  0.00  0.00    +0.241 C 
ATOM     27  O   UNL     1       2.536   1.546  22.772  0.00  0.00    -0.273 OA
ATOM     28  N   UNL     1       3.088   0.239  22.945  0.00  0.00    -0.201 NA
BRANCH  28  29
ATOM     29  C   UNL     1       3.843   0.564  22.995  0.00  0.00    +0.141 C 
BRANCH  29  30
ATOM     30  C   UNL     1       4.441   0.162  23.396  0.00  0.00    -0.000 A 
ATOM     31  C   UNL     1       4.385  -0.653  23.512  0.00  0.00    -0.000 A 
ATOM     32  C   UNL     1       4.983  -1.055  23.913  0.00  0.00    +0.029 A 
ATOM     33  C   UNL     1       5.638  -0.642  24.198  0.00  0.00    +0.140 A 
ATOM     34  F   UNL     1       6.236  -1.044  24.599  0.00  0.00    -0.204 F 
ATOM     35  C   UNL     1       5.694   0.173  24.082  0.00  0.00    +0.029 A 
ATOM     36  C   UNL     1       5.096   0.575  23.681  0.00  0.00    -0.000 A 
ENDBRANCH  29  30
ENDBRANCH  28  29
ENDBRANCH   2  26
ENDBRANCH   3   2
TORSDOF 7
ENDMDL
