MODEL 1
REMARK VINA RESULT:     -17.3      0.000      0.000
REMARK  Name = 
REMARK  2 active torsions:
REMARK  status: ('A' for Active; 'I' for Inactive)
REMARK    1  A    between atoms: N_9  and  C_11
REMARK    2  A    between atoms: C_20  and  C_21
REMARK                            x       y       z     vdW  Elec       q    Type
REMARK                         _______ _______ _______ _____ _____    ______ ____
ROOT
ATOM      1  O   UNL     1      -3.151   0.996  24.086  0.00  0.00    -0.267 OA
ATOM      2  C   UNL     1      -3.822   1.235  24.503  0.00  0.00    +0.261 A 
ATOM      3  N   UNL     1      -3.992   2.038  24.585  0.00  0.00    -0.299 N 
ATOM      4  C   UNL     1      -4.625   1.681  24.996  0.00  0.00    +0.110 C 
ATOM      5  C   UNL     1      -5.116   2.490  25.281  0.00  0.00    +0.039 C 
ATOM      6  C   UNL     1      -5.627   3.045  25.587  0.00  0.00    +0.011 C 
ATOM      7  C   UNL     1      -5.034   3.037  25.212  0.00  0.00    +0.054 C 
ATOM      8  C   UNL     1      -4.427   3.599  24.811  0.00  0.00    +0.078 C 
ATOM      9  N   UNL     1      -3.919   3.042  24.507  0.00  0.00    -0.273 NA
ATOM     10  C   UNL     1      -4.476   3.068  24.859  0.00  0.00    +0.074 C 
ATOM     17  C   UNL     1      -4.662   2.278  25.001  0.00  0.00    +0.041 A 
ATOM     18  C   UNL     1      -5.163   1.715  25.335  0.00  0.00    +0.013 A 
ATOM     19  C   UNL     1      -4.994   0.912  25.253  0.00  0.00    +0.006 A 
ATOM     20  C   UNL     1      -4.323   0.672  24.837  0.00  0.00    +0.062 A 
ENDROOT
BRANCH  20  21
ATOM     21  C   UNL     1      -4.154  -0.131  24.756  0.00  0.00    +0.034 A 
ATOM     22  C   UNL     1      -4.372  -0.611  24.121  0.00  0.00    +0.007 A 
ATOM     23  C   UNL     1      -4.089  -1.372  24.267  0.00  0.00    +0.006 A 
ATOM     24  C   UNL     1      -3.696  -1.363  24.993  0.00  0.00    +0.029 A 
ATOM     25  S   UNL     1      -3.736  -0.596  25.295  0.00  0.00    -0.087 S 
ATOM     26  C   UNL     1      -3.354  -2.054  25.284  0.00  0.00    +0.006 A 
ATOM     27  C   UNL     1      -3.403  -2.755  24.851  0.00  0.00    +0.001 A 
ATOM     28  C   UNL     1      -3.795  -2.764  24.126  0.00  0.00    +0.000 A 
ATOM     29  C   UNL     1      -4.139  -2.072  23.834  0.00  0.00    +0.001 A 
ENDBRANCH  20  21
BRANCH   9  11
ATOM     11  C   UNL     1      -3.272   2.722  24.109  0.00  0.00    +0.063 C 
ATOM     12  C   UNL     1      -2.561   2.597  24.508  0.00  0.00    +0.048 C 
ATOM     13  C   UNL     1      -1.914   2.277  24.108  0.00  0.00    +0.144 C 
ATOM     14  O   UNL     1      -1.978   2.082  23.309  0.00  0.00    -0.354 OA
ATOM     15  C   UNL     1      -2.689   2.207  22.910  0.00  0.00    +0.144 C 
ATOM     16  C   UNL     1      -3.336   2.527  23.310  0.00  0.00    +0.048 C 
ENDBRANCH   9  11
TORSDOF 2
ENDMDL
MODEL 2
REMARK VINA RESULT:     -16.4      1.627      4.158
REMARK  Name = 
REMARK  2 active torsions:
REMARK  status: ('A' for Active; 'I' for Inactive)
REMARK    1  A    between atoms: N_9  and  C_11
REMARK    2  A    between atoms: C_20  and  C_21
REMARK                            x       y       z     vdW  Elec       q    Type
REMARK                         _______ _______ _______ _____ _____    ______ ____
ROOT
ATOM      1  O   UNL     1      -2.439   0.300  24.915  0.00  0.00    -0.267 OA
ATOM      2  C   UNL     1      -3.042  -0.195  24.649  0.00  0.00    +0.261 A 
ATOM      3  N   UNL     1      -2.924  -1.012  24.623  0.00  0.00    -0.299 N 
ATOM      4  C   UNL     1      -3.706  -0.936  24.339  0.00  0.00    +0.110 C 
ATOM      5  C   UNL     1      -3.917  -1.889  24.180  0.00  0.00    +0.039 C 
ATOM      6  C   UNL     1      -4.241  -2.613  23.998  0.00  0.00    +0.011 C 
ATOM      7  C   UNL     1      -3.633  -2.364  24.245  0.00  0.00    +0.054 C 
ATOM      8  C   UNL     1      -2.804  -2.640  24.530  0.00  0.00    +0.078 C 
ATOM      9  N   UNL     1      -2.484  -1.916  24.710  0.00  0.00    -0.273 NA
ATOM     10  C   UNL     1      -3.048  -2.167  24.479  0.00  0.00    +0.074 C 
ATOM     17  C   UNL     1      -3.527  -1.507  24.357  0.00  0.00    +0.041 A 
ATOM     18  C   UNL     1      -4.248  -1.187  24.116  0.00  0.00    +0.013 A 
ATOM     19  C   UNL     1      -4.366  -0.372  24.142  0.00  0.00    +0.006 A 
ATOM     20  C   UNL     1      -3.763   0.125  24.408  0.00  0.00    +0.062 A 
ENDROOT
BRANCH  20  21
ATOM     21  C   UNL     1      -3.881   0.941  24.434  0.00  0.00    +0.034 A 
ATOM     22  C   UNL     1      -3.613   1.487  23.877  0.00  0.00    +0.007 A 
ATOM     23  C   UNL     1      -3.854   2.238  24.120  0.00  0.00    +0.006 A 
ATOM     24  C   UNL     1      -4.271   2.156  24.827  0.00  0.00    +0.029 A 
ATOM     25  S   UNL     1      -4.288   1.354  25.021  0.00  0.00    -0.087 S 
ATOM     26  C   UNL     1      -4.582   2.821  25.202  0.00  0.00    +0.006 A 
ATOM     27  C   UNL     1      -4.475   3.569  24.871  0.00  0.00    +0.001 A 
ATOM     28  C   UNL     1      -4.059   3.652  24.164  0.00  0.00    +0.000 A 
ATOM     29  C   UNL     1      -3.748   2.986  23.788  0.00  0.00    +0.001 A 
ENDBRANCH  20  21
BRANCH   9  11
ATOM     11  C   UNL     1      -1.934  -1.355  24.962  0.00  0.00    +0.063 C 
ATOM     12  C   UNL     1      -1.919  -1.117  25.752  0.00  0.00    +0.048 C 
ATOM     13  C   UNL     1      -1.369  -0.556  26.003  0.00  0.00    +0.144 C 
ATOM     14  O   UNL     1      -0.834  -0.233  25.465  0.00  0.00    -0.354 OA
ATOM     15  C   UNL     1      -0.849  -0.471  24.675  0.00  0.00    +0.144 C 
ATOM     16  C   UNL     1      -1.399  -1.032  24.424  0.00  0.00    +0.048 C 
ENDBRANCH   9  11
TORSDOF 2
ENDMDL
MODEL 3
REMARK VINA RESULT:     -15.4      1.030      2.078
REMARK  Name = 
REMARK  2 active torsions:
REMARK  status: ('A' for Active; 'I' for Inactive)
REMARK    1  A    between atoms: N_9  and  C_11
REMARK    2  A    between atoms: C_20  and  C_21
REMARK                            x       y       z     vdW  Elec       q    Type
REMARK                         _______ _______ _______ _____ _____    ______ ____
ROOT
ATOM      1  O   UNL     1      -4.922   0.932  25.078  0.00  0.00    -0.267 OA
ATOM      2  C   UNL     1      -4.203   1.308  24.924  0.00  0.00    +0.261 A 
ATOM      3  N   UNL     1      -4.149   2.130  24.971  0.00  0.00    -0.299 N 
ATOM      4  C   UNL     1      -3.371   1.912  24.757  0.00  0.00    +0.110 C 
ATOM      5  C   UNL     1      -2.954   2.807  24.718  0.00  0.00    +0.039 C 
ATOM      6  C   UNL     1      -2.470   3.458  24.644  0.00  0.00    +0.011 C 
ATOM      7  C   UNL     1      -3.140   3.325  24.804  0.00  0.00    +0.054 C 
ATOM      8  C   UNL     1      -3.923   3.748  25.035  0.00  0.00    +0.078 C 
ATOM      9  N   UNL     1      -4.403   3.097  25.108  0.00  0.00    -0.273 NA
ATOM     10  C   UNL     1      -3.776   3.239  24.959  0.00  0.00    +0.074 C 
ATOM     17  C   UNL     1      -3.431   2.504  24.817  0.00  0.00    +0.041 A 
ATOM     18  C   UNL     1      -2.768   2.058  24.615  0.00  0.00    +0.013 A 
ATOM     19  C   UNL     1      -2.822   1.237  24.567  0.00  0.00    +0.006 A 
ATOM     20  C   UNL     1      -3.540   0.861  24.722  0.00  0.00    +0.062 A 
ENDROOT
BRANCH  20  21
ATOM     21  C   UNL     1      -3.595   0.039  24.674  0.00  0.00    +0.034 A 
ATOM     22  C   UNL     1      -3.917  -0.390  24.048  0.00  0.00    +0.007 A 
ATOM     23  C   UNL     1      -3.858  -1.192  24.232  0.00  0.00    +0.006 A 
ATOM     24  C   UNL     1      -3.499  -1.259  24.971  0.00  0.00    +0.029 A 
ATOM     25  S   UNL     1      -3.336  -0.497  25.245  0.00  0.00    -0.087 S 
ATOM     26  C   UNL     1      -3.366  -2.003  25.299  0.00  0.00    +0.006 A 
ATOM     27  C   UNL     1      -3.593  -2.682  24.888  0.00  0.00    +0.001 A 
ATOM     28  C   UNL     1      -3.953  -2.616  24.149  0.00  0.00    +0.000 A 
ATOM     29  C   UNL     1      -4.085  -1.870  23.821  0.00  0.00    +0.001 A 
ENDBRANCH  20  21
BRANCH   9  11
ATOM     11  C   UNL     1      -5.080   2.648  25.247  0.00  0.00    +0.063 C 
ATOM     12  C   UNL     1      -5.264   2.403  26.013  0.00  0.00    +0.048 C 
ATOM     13  C   UNL     1      -5.942   1.954  26.151  0.00  0.00    +0.144 C 
ATOM     14  O   UNL     1      -6.437   1.750  25.523  0.00  0.00    -0.354 OA
ATOM     15  C   UNL     1      -6.253   1.995  24.757  0.00  0.00    +0.144 C 
ATOM     16  C   UNL     1      -5.575   2.444  24.619  0.00  0.00    +0.048 C 
ENDBRANCH   9  11
TORSDOF 2
ENDMDL
MODEL 4
REMARK VINA RESULT:     -14.2      2.083      3.210
REMARK  Name = 
REMARK  2 active torsions:
REMARK  status: ('A' for Active; 'I' for Inactive)
REMARK    1  A    between atoms: N_9  and  C_11
REMARK    2  A    between atoms: C_20  and  C_21
REMARK                            x       y       z     vdW  Elec       q    Type
REMARK                         _______ _______ _______ _____ _____    ______ ____
ROOT
ATOM      1  O   UNL     1      -2.705   1.877  24.794  0.00  0.00    -0.267 OA
ATOM      2  C   UNL     1      -2.087   2.407  24.927  0.00  0.00    +0.261 A 
ATOM      3  N   UNL     1      -2.238   3.218  24.952  0.00  0.00    -0.299 N 
ATOM      4  C   UNL     1      -1.414   3.187  25.085  0.00  0.00    +0.110 C 
ATOM      5  C   UNL     1      -1.224   4.152  25.175  0.00  0.00    +0.039 C 
ATOM      6  C   UNL     1      -0.907   4.896  25.272  0.00  0.00    +0.011 C 
ATOM      7  C   UNL     1      -1.537   4.613  25.151  0.00  0.00    +0.054 C 
ATOM      8  C   UNL     1      -2.418   4.842  25.020  0.00  0.00    +0.078 C 
ATOM      9  N   UNL     1      -2.730   4.099  24.924  0.00  0.00    -0.273 NA
ATOM     10  C   UNL     1      -2.146   4.382  25.037  0.00  0.00    +0.074 C 
ATOM     17  C   UNL     1      -1.621   3.748  25.085  0.00  0.00    +0.041 A 
ATOM     18  C   UNL     1      -0.853   3.468  25.194  0.00  0.00    +0.013 A 
ATOM     19  C   UNL     1      -0.702   2.658  25.170  0.00  0.00    +0.006 A 
ATOM     20  C   UNL     1      -1.319   2.127  25.036  0.00  0.00    +0.062 A 
ENDROOT
BRANCH  20  21
ATOM     21  C   UNL     1      -1.168   1.316  25.012  0.00  0.00    +0.034 A 
ATOM     22  C   UNL     1      -1.300   0.780  25.624  0.00  0.00    +0.007 A 
ATOM     23  C   UNL     1      -1.073   0.031  25.362  0.00  0.00    +0.006 A 
ATOM     24  C   UNL     1      -0.800   0.105  24.587  0.00  0.00    +0.029 A 
ATOM     25  S   UNL     1      -0.859   0.900  24.370  0.00  0.00    -0.087 S 
ATOM     26  C   UNL     1      -0.533  -0.559  24.178  0.00  0.00    +0.006 A 
ATOM     27  C   UNL     1      -0.539  -1.299  24.545  0.00  0.00    +0.001 A 
ATOM     28  C   UNL     1      -0.811  -1.373  25.319  0.00  0.00    +0.000 A 
ATOM     29  C   UNL     1      -1.078  -0.707  25.728  0.00  0.00    +0.001 A 
ENDBRANCH  20  21
BRANCH   9  11
ATOM     11  C   UNL     1      -3.289   3.506  24.797  0.00  0.00    +0.063 C 
ATOM     12  C   UNL     1      -3.448   3.246  24.030  0.00  0.00    +0.048 C 
ATOM     13  C   UNL     1      -4.007   2.653  23.903  0.00  0.00    +0.144 C 
ATOM     14  O   UNL     1      -4.408   2.320  24.542  0.00  0.00    -0.354 OA
ATOM     15  C   UNL     1      -4.250   2.581  25.309  0.00  0.00    +0.144 C 
ATOM     16  C   UNL     1      -3.691   3.173  25.436  0.00  0.00    +0.048 C 
ENDBRANCH   9  11
TORSDOF 2
ENDMDL
