MODEL 1
REMARK VINA RESULT:     -10.8      0.000      0.000
REMARK  Name = 
REMARK  9 active torsions:
REMARK  status: ('A' for Active; 'I' for Inactive)
REMARK    1  A    between atoms: O_2  and  C_3
REMARK    2  A    between atoms: C_3  and  C_4
REMARK    3  A    between atoms: C_4  and  O_5
REMARK    4  A    between atoms: O_5  and  C_6
REMARK    5  A    between atoms: C_8  and  C_12
REMARK    6  A    between atoms: C_15  and  C_17
REMARK    7  A    between atoms: N_21  and  C_22
REMARK    8  A    between atoms: C_22  and  C_23
REMARK    9  A    between atoms: C_26  and  C_29
REMARK                            x       y       z     vdW  Elec       q    Type
REMARK                         _______ _______ _______ _____ _____    ______ ____
ROOT
ATOM     12  C   UNL     1      -3.151   3.455  24.737  0.00  0.00    +0.221 A 
ATOM     13  N   UNL     1      -3.654   3.671  24.119  0.00  0.00    -0.054 NA
ATOM     14  O   UNL     1      -4.320   3.184  24.150  0.00  0.00    -0.336 OA
ATOM     15  C   UNL     1      -4.228   2.667  24.787  0.00  0.00    +0.251 A 
ATOM     16  N   UNL     1      -3.506   2.835  25.149  0.00  0.00    -0.188 NA
ENDROOT
BRANCH  12   8
ATOM      6  C   UNL     1      -1.020   3.671  25.155  0.00  0.00    +0.142 A 
ATOM      7  C   UNL     1      -1.749   3.327  24.981  0.00  0.00    +0.059 A 
ATOM      8  C   UNL     1      -2.422   3.800  24.911  0.00  0.00    +0.123 A 
ATOM      9  N   UNL     1      -2.366   4.616  25.014  0.00  0.00    -0.240 NA
ATOM     10  C   UNL     1      -1.637   4.960  25.188  0.00  0.00    +0.102 A 
ATOM     11  C   UNL     1      -0.964   4.488  25.259  0.00  0.00    +0.058 A 
BRANCH   6   5
ATOM      5  O   UNL     1      -0.347   3.200  25.226  0.00  0.00    -0.473 OA
BRANCH   5   4
ATOM      4  C   UNL     1      -0.093   2.744  24.587  0.00  0.00    +0.237 C 
BRANCH   4   3
ATOM      3  C   UNL     1       0.402   2.096  24.714  0.00  0.00    +0.189 C 
BRANCH   3   2
ATOM      1  C   UNL     1       0.918   1.120  23.806  0.00  0.00    +0.174 C 
ATOM      2  O   UNL     1       0.948   1.876  24.136  0.00  0.00    -0.347 OA
ENDBRANCH   3   2
ENDBRANCH   4   3
ENDBRANCH   5   4
ENDBRANCH   6   5
ENDBRANCH  12   8
BRANCH  15  17
ATOM     17  C   UNL     1      -4.763   2.085  25.020  0.00  0.00    +0.138 C 
ATOM     18  C   UNL     1      -5.467   2.211  25.433  0.00  0.00    +0.027 C 
ATOM     19  C   UNL     1      -5.828   1.478  25.550  0.00  0.00    +0.019 C 
ATOM     20  C   UNL     1      -5.348   0.900  25.210  0.00  0.00    +0.073 C 
ATOM     21  N   UNL     1      -4.690   1.275  24.883  0.00  0.00    -0.263 NA
BRANCH  21  22
ATOM     22  C   UNL     1      -4.068   0.904  24.487  0.00  0.00    +0.099 C 
BRANCH  22  23
ATOM     23  C   UNL     1      -3.969   0.088  24.547  0.00  0.00    -0.006 A 
ATOM     24  C   UNL     1      -3.567  -0.233  25.192  0.00  0.00    -0.002 A 
ATOM     25  C   UNL     1      -3.468  -1.049  25.252  0.00  0.00    +0.010 A 
ATOM     26  C   UNL     1      -3.770  -1.545  24.667  0.00  0.00    +0.068 A 
ATOM     27  C   UNL     1      -4.173  -1.226  24.021  0.00  0.00    +0.010 A 
ATOM     28  C   UNL     1      -4.272  -0.408  23.962  0.00  0.00    -0.002 A 
BRANCH  26  29
ATOM     29  C   UNL     1      -3.671  -2.363  24.727  0.00  0.00    +0.100 C 
ATOM     30  N   UNL     1      -3.572  -3.179  24.786  0.00  0.00    -0.191 NA
ENDBRANCH  26  29
ENDBRANCH  22  23
ENDBRANCH  21  22
ENDBRANCH  15  17
TORSDOF 9
ENDMDL
MODEL 2
REMARK VINA RESULT:     -10.6      1.675      3.732
REMARK  Name = 
REMARK  9 active torsions:
REMARK  status: ('A' for Active; 'I' for Inactive)
REMARK    1  A    between atoms: O_2  and  C_3
REMARK    2  A    between atoms: C_3  and  C_4
REMARK    3  A    between atoms: C_4  and  O_5
REMARK    4  A    between atoms: O_5  and  C_6
REMARK    5  A    between atoms: C_8  and  C_12
REMARK    6  A    between atoms: C_15  and  C_17
REMARK    7  A    between atoms: N_21  and  C_22
REMARK    8  A    between atoms: C_22  and  C_23
REMARK    9  A    between atoms: C_26  and  C_29
REMARK                            x       y       z     vdW  Elec       q    Type
REMARK                         _______ _______ _______ _____ _____    ______ ____
ROOT
ATOM     12  C   UNL     1      -0.703   2.734  25.237  0.00  0.00    +0.221 A 
ATOM     13  N   UNL     1      -0.135   2.473  25.777  0.00  0.00    -0.054 NA
ATOM     14  O   UNL     1       0.157   1.749  25.510  0.00  0.00    -0.336 OA
ATOM     15  C   UNL     1      -0.231   1.561  24.806  0.00  0.00    +0.251 A 
ATOM     16  N   UNL     1      -0.762   2.170  24.638  0.00  0.00    -0.188 NA
ENDROOT
BRANCH  12   8
ATOM      6  C   UNL     1      -2.338   4.123  25.635  0.00  0.00    +0.142 A 
ATOM      7  C   UNL     1      -1.906   3.422  25.583  0.00  0.00    +0.059 A 
ATOM      8  C   UNL     1      -1.135   3.434  25.289  0.00  0.00    +0.123 A 
ATOM      9  N   UNL     1      -0.797   4.146  25.047  0.00  0.00    -0.240 NA
ATOM     10  C   UNL     1      -1.229   4.847  25.099  0.00  0.00    +0.102 A 
ATOM     11  C   UNL     1      -2.000   4.836  25.393  0.00  0.00    +0.058 A 
BRANCH   6   5
ATOM      5  O   UNL     1      -3.109   4.112  25.929  0.00  0.00    -0.473 OA
BRANCH   5   4
ATOM      4  C   UNL     1      -3.720   3.797  25.473  0.00  0.00    +0.237 C 
BRANCH   4   3
ATOM      3  C   UNL     1      -4.463   3.673  25.810  0.00  0.00    +0.189 C 
BRANCH   3   2
ATOM      1  C   UNL     1      -5.627   2.871  25.595  0.00  0.00    +0.174 C 
ATOM      2  O   UNL     1      -5.099   3.449  25.335  0.00  0.00    -0.347 OA
ENDBRANCH   3   2
ENDBRANCH   4   3
ENDBRANCH   5   4
ENDBRANCH   6   5
ENDBRANCH  12   8
BRANCH  15  17
ATOM     17  C   UNL     1      -0.109   0.885  24.350  0.00  0.00    +0.138 C 
ATOM     18  C   UNL     1       0.403   0.819  23.706  0.00  0.00    +0.027 C 
ATOM     19  C   UNL     1       0.350   0.048  23.416  0.00  0.00    +0.019 C 
ATOM     20  C   UNL     1      -0.194  -0.362  23.880  0.00  0.00    +0.073 C 
ATOM     21  N   UNL     1      -0.478   0.155  24.458  0.00  0.00    -0.263 NA
BRANCH  21  22
ATOM     22  C   UNL     1      -1.033  -0.027  25.040  0.00  0.00    +0.099 C 
BRANCH  22  23
ATOM     23  C   UNL     1      -1.571  -0.641  24.920  0.00  0.00    -0.006 A 
ATOM     24  C   UNL     1      -2.334  -0.474  24.654  0.00  0.00    -0.002 A 
ATOM     25  C   UNL     1      -2.872  -1.088  24.534  0.00  0.00    +0.010 A 
ATOM     26  C   UNL     1      -2.648  -1.868  24.680  0.00  0.00    +0.068 A 
ATOM     27  C   UNL     1      -1.885  -2.035  24.946  0.00  0.00    +0.010 A 
ATOM     28  C   UNL     1      -1.347  -1.421  25.066  0.00  0.00    -0.002 A 
BRANCH  26  29
ATOM     29  C   UNL     1      -3.186  -2.482  24.560  0.00  0.00    +0.100 C 
ATOM     30  N   UNL     1      -3.723  -3.096  24.440  0.00  0.00    -0.191 NA
ENDBRANCH  26  29
ENDBRANCH  22  23
ENDBRANCH  21  22
ENDBRANCH  15  17
TORSDOF 9
ENDMDL
MODEL 3
REMARK VINA RESULT:      -9.8      2.131      4.774
REMARK  Name = 
REMARK  9 active torsions:
REMARK  status: ('A' for Active; 'I' for Inactive)
REMARK    1  A    between atoms: O_2  and  C_3
REMARK    2  A    between atoms: C_3  and  C_4
REMARK    3  A    between atoms: C_4  and  O_5
REMARK    4  A    between atoms: O_5  and  C_6
REMARK    5  A    between atoms: C_8  and  C_12
REMARK    6  A    between atoms: C_15  and  C_17
REMARK    7  A    between atoms: N_21  and  C_22
REMARK    8  A    between atoms: C_22  and  C_23
REMARK    9  A    between atoms: C_26  and  C_29
REMARK                            x       y       z     vdW  Elec       q    Type
REMARK                         _______ _______ _______ _____ _____    ______ ____
ROOT
ATOM     12  C   UNL     1      -0.064   1.704  24.754  0.00  0.00    +0.221 A 
ATOM     13  N   UNL     1       0.355   1.941  25.424  0.00  0.00    -0.054 NA
ATOM     14  O   UNL     1       0.119   2.708  25.615  0.00  0.00    -0.336 OA
ATOM     15  C   UNL     1      -0.447   2.945  25.063  0.00  0.00    +0.251 A 
ATOM     16  N   UNL     1      -0.560   2.324  24.531  0.00  0.00    -0.188 NA
ENDROOT
BRANCH  12   8
ATOM      6  C   UNL     1      -0.305  -0.420  24.312  0.00  0.00    +0.142 A 
ATOM      7  C   UNL     1      -0.371   0.310  24.691  0.00  0.00    +0.059 A 
ATOM      8  C   UNL     1       0.001   0.974  24.374  0.00  0.00    +0.123 A 
ATOM      9  N   UNL     1       0.438   0.910  23.677  0.00  0.00    -0.240 NA
ATOM     10  C   UNL     1       0.503   0.181  23.298  0.00  0.00    +0.102 A 
ATOM     11  C   UNL     1       0.132  -0.485  23.614  0.00  0.00    +0.058 A 
BRANCH   6   5
ATOM      5  O   UNL     1      -0.677  -1.085  24.628  0.00  0.00    -0.473 OA
BRANCH   5   4
ATOM      4  C   UNL     1      -1.421  -1.312  24.355  0.00  0.00    +0.237 C 
BRANCH   4   3
ATOM      3  C   UNL     1      -1.825  -1.930  24.724  0.00  0.00    +0.189 C 
BRANCH   3   2
ATOM      1  C   UNL     1      -3.138  -2.492  24.746  0.00  0.00    +0.174 C 
ATOM      2  O   UNL     1      -2.448  -2.305  24.335  0.00  0.00    -0.347 OA
ENDBRANCH   3   2
ENDBRANCH   4   3
ENDBRANCH   5   4
ENDBRANCH   6   5
ENDBRANCH  12   8
BRANCH  15  17
ATOM     17  C   UNL     1      -0.832   3.674  25.045  0.00  0.00    +0.138 C 
ATOM     18  C   UNL     1      -0.513   4.385  24.772  0.00  0.00    +0.027 C 
ATOM     19  C   UNL     1      -1.088   4.971  24.856  0.00  0.00    +0.019 C 
ATOM     20  C   UNL     1      -1.762   4.623  25.180  0.00  0.00    +0.073 C 
ATOM     21  N   UNL     1      -1.604   3.821  25.298  0.00  0.00    -0.263 NA
BRANCH  21  22
ATOM     22  C   UNL     1      -2.126   3.265  25.612  0.00  0.00    +0.099 C 
BRANCH  22  23
ATOM     23  C   UNL     1      -2.937   3.414  25.611  0.00  0.00    -0.006 A 
ATOM     24  C   UNL     1      -3.279   3.836  26.233  0.00  0.00    -0.002 A 
ATOM     25  C   UNL     1      -4.090   3.985  26.232  0.00  0.00    +0.010 A 
ATOM     26  C   UNL     1      -4.559   3.713  25.611  0.00  0.00    +0.068 A 
ATOM     27  C   UNL     1      -4.218   3.291  24.990  0.00  0.00    +0.010 A 
ATOM     28  C   UNL     1      -3.406   3.142  24.990  0.00  0.00    -0.002 A 
BRANCH  26  29
ATOM     29  C   UNL     1      -5.371   3.862  25.611  0.00  0.00    +0.100 C 
ATOM     30  N   UNL     1      -6.182   4.011  25.611  0.00  0.00    -0.191 NA
ENDBRANCH  26  29
ENDBRANCH  22  23
ENDBRANCH  21  22
ENDBRANCH  15  17
TORSDOF 9
ENDMDL
MODEL 4
REMARK VINA RESULT:      -9.8      1.501      4.481
REMARK  Name = 
REMARK  9 active torsions:
REMARK  status: ('A' for Active; 'I' for Inactive)
REMARK    1  A    between atoms: O_2  and  C_3
REMARK    2  A    between atoms: C_3  and  C_4
REMARK    3  A    between atoms: C_4  and  O_5
REMARK    4  A    between atoms: O_5  and  C_6
REMARK    5  A    between atoms: C_8  and  C_12
REMARK    6  A    between atoms: C_15  and  C_17
REMARK    7  A    between atoms: N_21  and  C_22
REMARK    8  A    between atoms: C_22  and  C_23
REMARK    9  A    between atoms: C_26  and  C_29
REMARK                            x       y       z     vdW  Elec       q    Type
REMARK                         _______ _______ _______ _____ _____    ______ ____
ROOT
ATOM     12  C   UNL     1      -4.047  -0.479  24.715  0.00  0.00    +0.221 A 
ATOM     13  N   UNL     1      -4.630  -0.427  24.133  0.00  0.00    -0.054 NA
ATOM     14  O   UNL     1      -5.029   0.288  24.234  0.00  0.00    -0.336 OA
ATOM     15  C   UNL     1      -4.692   0.679  24.878  0.00  0.00    +0.251 A 
ATOM     16  N   UNL     1      -4.086   0.204  25.175  0.00  0.00    -0.188 NA
ENDROOT
BRANCH  12   8
ATOM      6  C   UNL     1      -2.179  -1.585  24.935  0.00  0.00    +0.142 A 
ATOM      7  C   UNL     1      -2.707  -0.960  24.832  0.00  0.00    +0.059 A 
ATOM      8  C   UNL     1      -3.519  -1.104  24.818  0.00  0.00    +0.123 A 
ATOM      9  N   UNL     1      -3.803  -1.873  24.907  0.00  0.00    -0.240 NA
ATOM     10  C   UNL     1      -3.275  -2.499  25.010  0.00  0.00    +0.102 A 
ATOM     11  C   UNL     1      -2.463  -2.355  25.024  0.00  0.00    +0.058 A 
BRANCH   6   5
ATOM      5  O   UNL     1      -1.367  -1.441  24.950  0.00  0.00    -0.473 OA
BRANCH   5   4
ATOM      4  C   UNL     1      -0.983  -1.172  24.271  0.00  0.00    +0.237 C 
BRANCH   4   3
ATOM      3  C   UNL     1      -0.225  -0.850  24.327  0.00  0.00    +0.189 C 
BRANCH   3   2
ATOM      1  C   UNL     1       0.627  -0.067  23.488  0.00  0.00    +0.174 C 
ATOM      2  O   UNL     1       0.243  -0.778  23.651  0.00  0.00    -0.347 OA
ENDBRANCH   3   2
ENDBRANCH   4   3
ENDBRANCH   5   4
ENDBRANCH   6   5
ENDBRANCH  12   8
BRANCH  15  17
ATOM     17  C   UNL     1      -4.921   1.414  25.174  0.00  0.00    +0.138 C 
ATOM     18  C   UNL     1      -5.564   1.558  25.671  0.00  0.00    +0.027 C 
ATOM     19  C   UNL     1      -5.588   2.368  25.829  0.00  0.00    +0.019 C 
ATOM     20  C   UNL     1      -4.960   2.724  25.430  0.00  0.00    +0.073 C 
ATOM     21  N   UNL     1      -4.548   2.134  25.025  0.00  0.00    -0.263 NA
BRANCH  21  22
ATOM     22  C   UNL     1      -3.880   2.246  24.554  0.00  0.00    +0.099 C 
BRANCH  22  23
ATOM     23  C   UNL     1      -3.380   2.887  24.694  0.00  0.00    -0.006 A 
ATOM     24  C   UNL     1      -2.733   2.803  25.199  0.00  0.00    -0.002 A 
ATOM     25  C   UNL     1      -2.233   3.443  25.339  0.00  0.00    +0.010 A 
ATOM     26  C   UNL     1      -2.378   4.168  24.973  0.00  0.00    +0.068 A 
ATOM     27  C   UNL     1      -3.025   4.253  24.468  0.00  0.00    +0.010 A 
ATOM     28  C   UNL     1      -3.525   3.611  24.328  0.00  0.00    -0.002 A 
BRANCH  26  29
ATOM     29  C   UNL     1      -1.877   4.809  25.113  0.00  0.00    +0.100 C 
ATOM     30  N   UNL     1      -1.377   5.450  25.252  0.00  0.00    -0.191 NA
ENDBRANCH  26  29
ENDBRANCH  22  23
ENDBRANCH  21  22
ENDBRANCH  15  17
TORSDOF 9
ENDMDL
MODEL 5
REMARK VINA RESULT:      -9.3      1.772      5.790
REMARK  Name = 
REMARK  9 active torsions:
REMARK  status: ('A' for Active; 'I' for Inactive)
REMARK    1  A    between atoms: O_2  and  C_3
REMARK    2  A    between atoms: C_3  and  C_4
REMARK    3  A    between atoms: C_4  and  O_5
REMARK    4  A    between atoms: O_5  and  C_6
REMARK    5  A    between atoms: C_8  and  C_12
REMARK    6  A    between atoms: C_15  and  C_17
REMARK    7  A    between atoms: N_21  and  C_22
REMARK    8  A    between atoms: C_22  and  C_23
REMARK    9  A    between atoms: C_26  and  C_29
REMARK                            x       y       z     vdW  Elec       q    Type
REMARK                         _______ _______ _______ _____ _____    ______ ____
ROOT
ATOM     12  C   UNL     1      -1.673  -1.122  24.662  0.00  0.00    +0.221 A 
ATOM     13  N   UNL     1      -1.057  -1.426  25.119  0.00  0.00    -0.054 NA
ATOM     14  O   UNL     1      -0.393  -0.949  25.003  0.00  0.00    -0.336 OA
ATOM     15  C   UNL     1      -0.599  -0.350  24.474  0.00  0.00    +0.251 A 
ATOM     16  N   UNL     1      -1.390  -0.457  24.263  0.00  0.00    -0.188 NA
ENDROOT
BRANCH  12   8
ATOM      6  C   UNL     1      -3.849  -1.226  24.538  0.00  0.00    +0.142 A 
ATOM      7  C   UNL     1      -3.085  -0.919  24.588  0.00  0.00    +0.059 A 
ATOM      8  C   UNL     1      -2.437  -1.429  24.612  0.00  0.00    +0.123 A 
ATOM      9  N   UNL     1      -2.552  -2.245  24.585  0.00  0.00    -0.240 NA
ATOM     10  C   UNL     1      -3.316  -2.552  24.535  0.00  0.00    +0.102 A 
ATOM     11  C   UNL     1      -3.965  -2.043  24.512  0.00  0.00    +0.058 A 
BRANCH   6   5
ATOM      5  O   UNL     1      -4.498  -0.717  24.515  0.00  0.00    -0.473 OA
BRANCH   5   4
ATOM      4  C   UNL     1      -4.481  -0.006  24.934  0.00  0.00    +0.237 C 
BRANCH   4   3
ATOM      3  C   UNL     1      -5.053   0.571  24.790  0.00  0.00    +0.189 C 
BRANCH   3   2
ATOM      1  C   UNL     1      -5.477   1.908  25.062  0.00  0.00    +0.174 C 
ATOM      2  O   UNL     1      -5.150   1.196  25.319  0.00  0.00    -0.347 OA
ENDBRANCH   3   2
ENDBRANCH   4   3
ENDBRANCH   5   4
ENDBRANCH   6   5
ENDBRANCH  12   8
BRANCH  15  17
ATOM     17  C   UNL     1      -0.103   0.250  24.204  0.00  0.00    +0.138 C 
ATOM     18  C   UNL     1       0.461   0.180  23.605  0.00  0.00    +0.027 C 
ATOM     19  C   UNL     1       0.830   0.913  23.515  0.00  0.00    +0.019 C 
ATOM     20  C   UNL     1       0.495   1.435  24.059  0.00  0.00    +0.073 C 
ATOM     21  N   UNL     1      -0.082   1.026  24.484  0.00  0.00    -0.263 NA
BRANCH  21  22
ATOM     22  C   UNL     1      -0.554   1.337  25.085  0.00  0.00    +0.099 C 
BRANCH  22  23
ATOM     23  C   UNL     1      -0.722   2.144  25.100  0.00  0.00    -0.006 A 
ATOM     24  C   UNL     1      -0.266   2.652  25.564  0.00  0.00    -0.002 A 
ATOM     25  C   UNL     1      -0.434   3.459  25.580  0.00  0.00    +0.010 A 
ATOM     26  C   UNL     1      -1.059   3.759  25.132  0.00  0.00    +0.068 A 
ATOM     27  C   UNL     1      -1.515   3.252  24.669  0.00  0.00    +0.010 A 
ATOM     28  C   UNL     1      -1.347   2.444  24.653  0.00  0.00    -0.002 A 
BRANCH  26  29
ATOM     29  C   UNL     1      -1.227   4.567  25.148  0.00  0.00    +0.100 C 
ATOM     30  N   UNL     1      -1.396   5.374  25.163  0.00  0.00    -0.191 NA
ENDBRANCH  26  29
ENDBRANCH  22  23
ENDBRANCH  21  22
ENDBRANCH  15  17
TORSDOF 9
ENDMDL
MODEL 6
REMARK VINA RESULT:      -9.1      1.813      4.434
REMARK  Name = 
REMARK  9 active torsions:
REMARK  status: ('A' for Active; 'I' for Inactive)
REMARK    1  A    between atoms: O_2  and  C_3
REMARK    2  A    between atoms: C_3  and  C_4
REMARK    3  A    between atoms: C_4  and  O_5
REMARK    4  A    between atoms: O_5  and  C_6
REMARK    5  A    between atoms: C_8  and  C_12
REMARK    6  A    between atoms: C_15  and  C_17
REMARK    7  A    between atoms: N_21  and  C_22
REMARK    8  A    between atoms: C_22  and  C_23
REMARK    9  A    between atoms: C_26  and  C_29
REMARK                            x       y       z     vdW  Elec       q    Type
REMARK                         _______ _______ _______ _____ _____    ______ ____
ROOT
ATOM     12  C   UNL     1      -3.876   3.544  25.775  0.00  0.00    +0.221 A 
ATOM     13  N   UNL     1      -3.704   3.963  26.465  0.00  0.00    -0.054 NA
ATOM     14  O   UNL     1      -2.944   4.276  26.391  0.00  0.00    -0.336 OA
ATOM     15  C   UNL     1      -2.647   4.051  25.654  0.00  0.00    +0.251 A 
ATOM     16  N   UNL     1      -3.223   3.599  25.274  0.00  0.00    -0.188 NA
ENDROOT
BRANCH  12   8
ATOM      6  C   UNL     1      -5.263   2.032  25.030  0.00  0.00    +0.142 A 
ATOM      7  C   UNL     1      -4.560   2.434  25.191  0.00  0.00    +0.059 A 
ATOM      8  C   UNL     1      -4.578   3.142  25.614  0.00  0.00    +0.123 A 
ATOM      9  N   UNL     1      -5.298   3.449  25.876  0.00  0.00    -0.240 NA
ATOM     10  C   UNL     1      -6.000   3.047  25.715  0.00  0.00    +0.102 A 
ATOM     11  C   UNL     1      -5.983   2.338  25.292  0.00  0.00    +0.058 A 
BRANCH   6   5
ATOM      5  O   UNL     1      -5.246   1.324  24.608  0.00  0.00    -0.473 OA
BRANCH   5   4
ATOM      4  C   UNL     1      -4.788   0.693  24.878  0.00  0.00    +0.237 C 
BRANCH   4   3
ATOM      3  C   UNL     1      -4.611   0.066  24.371  0.00  0.00    +0.189 C 
BRANCH   3   2
ATOM      1  C   UNL     1      -4.043  -1.229  24.162  0.00  0.00    +0.174 C 
ATOM      2  O   UNL     1      -4.289  -0.631  24.674  0.00  0.00    -0.347 OA
ENDBRANCH   3   2
ENDBRANCH   4   3
ENDBRANCH   5   4
ENDBRANCH   6   5
ENDBRANCH  12   8
BRANCH  15  17
ATOM     17  C   UNL     1      -1.904   4.244  25.352  0.00  0.00    +0.138 C 
ATOM     18  C   UNL     1      -1.670   4.986  25.078  0.00  0.00    +0.027 C 
ATOM     19  C   UNL     1      -0.886   4.929  24.826  0.00  0.00    +0.019 C 
ATOM     20  C   UNL     1      -0.636   4.153  24.944  0.00  0.00    +0.073 C 
ATOM     21  N   UNL     1      -1.265   3.728  25.269  0.00  0.00    -0.263 NA
BRANCH  21  22
ATOM     22  C   UNL     1      -1.256   2.930  25.475  0.00  0.00    +0.099 C 
BRANCH  22  23
ATOM     23  C   UNL     1      -0.811   2.395  25.034  0.00  0.00    -0.006 A 
ATOM     24  C   UNL     1      -1.142   2.031  24.371  0.00  0.00    -0.002 A 
ATOM     25  C   UNL     1      -0.696   1.496  23.929  0.00  0.00    +0.010 A 
ATOM     26  C   UNL     1       0.080   1.324  24.149  0.00  0.00    +0.068 A 
ATOM     27  C   UNL     1       0.411   1.687  24.812  0.00  0.00    +0.010 A 
ATOM     28  C   UNL     1      -0.035   2.223  25.254  0.00  0.00    -0.002 A 
BRANCH  26  29
ATOM     29  C   UNL     1       0.525   0.788  23.707  0.00  0.00    +0.100 C 
ATOM     30  N   UNL     1       0.971   0.253  23.265  0.00  0.00    -0.191 NA
ENDBRANCH  26  29
ENDBRANCH  22  23
ENDBRANCH  21  22
ENDBRANCH  15  17
TORSDOF 9
ENDMDL
MODEL 7
REMARK VINA RESULT:      -9.1      2.590      4.636
REMARK  Name = 
REMARK  9 active torsions:
REMARK  status: ('A' for Active; 'I' for Inactive)
REMARK    1  A    between atoms: O_2  and  C_3
REMARK    2  A    between atoms: C_3  and  C_4
REMARK    3  A    between atoms: C_4  and  O_5
REMARK    4  A    between atoms: O_5  and  C_6
REMARK    5  A    between atoms: C_8  and  C_12
REMARK    6  A    between atoms: C_15  and  C_17
REMARK    7  A    between atoms: N_21  and  C_22
REMARK    8  A    between atoms: C_22  and  C_23
REMARK    9  A    between atoms: C_26  and  C_29
REMARK                            x       y       z     vdW  Elec       q    Type
REMARK                         _______ _______ _______ _____ _____    ______ ____
ROOT
ATOM     12  C   UNL     1       0.045   1.802  24.651  0.00  0.00    +0.221 A 
ATOM     13  N   UNL     1       0.319   1.960  25.413  0.00  0.00    -0.054 NA
ATOM     14  O   UNL     1       0.014   2.691  25.647  0.00  0.00    -0.336 OA
ATOM     15  C   UNL     1      -0.448   2.983  25.030  0.00  0.00    +0.251 A 
ATOM     16  N   UNL     1      -0.428   2.434  24.414  0.00  0.00    -0.188 NA
ENDROOT
BRANCH  12   8
ATOM      6  C   UNL     1       1.036   0.455  23.248  0.00  0.00    +0.142 A 
ATOM      7  C   UNL     1       0.865   1.127  23.695  0.00  0.00    +0.059 A 
ATOM      8  C   UNL     1       0.216   1.129  24.205  0.00  0.00    +0.123 A 
ATOM      9  N   UNL     1      -0.262   0.461  24.268  0.00  0.00    -0.240 NA
ATOM     10  C   UNL     1      -0.091  -0.212  23.822  0.00  0.00    +0.102 A 
ATOM     11  C   UNL     1       0.557  -0.215  23.312  0.00  0.00    +0.058 A 
BRANCH   6   5
ATOM      5  O   UNL     1       1.684   0.451  22.738  0.00  0.00    -0.473 OA
BRANCH   5   4
ATOM      4  C   UNL     1       2.430   0.242  23.021  0.00  0.00    +0.237 C 
BRANCH   4   3
ATOM      3  C   UNL     1       3.105   0.451  22.594  0.00  0.00    +0.189 C 
BRANCH   3   2
ATOM      1  C   UNL     1       4.500   0.628  22.849  0.00  0.00    +0.174 C 
ATOM      2  O   UNL     1       3.839   0.137  22.805  0.00  0.00    -0.347 OA
ENDBRANCH   3   2
ENDBRANCH   4   3
ENDBRANCH   5   4
ENDBRANCH   6   5
ENDBRANCH  12   8
BRANCH  15  17
ATOM     17  C   UNL     1      -0.858   3.699  25.028  0.00  0.00    +0.138 C 
ATOM     18  C   UNL     1      -0.530   4.445  24.893  0.00  0.00    +0.027 C 
ATOM     19  C   UNL     1      -1.137   5.002  24.942  0.00  0.00    +0.019 C 
ATOM     20  C   UNL     1      -1.839   4.601  25.107  0.00  0.00    +0.073 C 
ATOM     21  N   UNL     1      -1.666   3.796  25.160  0.00  0.00    -0.263 NA
BRANCH  21  22
ATOM     22  C   UNL     1      -2.207   3.194  25.317  0.00  0.00    +0.099 C 
BRANCH  22  23
ATOM     23  C   UNL     1      -3.010   3.368  25.384  0.00  0.00    -0.006 A 
ATOM     24  C   UNL     1      -3.517   3.231  24.746  0.00  0.00    -0.002 A 
ATOM     25  C   UNL     1      -4.320   3.405  24.813  0.00  0.00    +0.010 A 
ATOM     26  C   UNL     1      -4.618   3.715  25.517  0.00  0.00    +0.068 A 
ATOM     27  C   UNL     1      -4.113   3.852  26.154  0.00  0.00    +0.010 A 
ATOM     28  C   UNL     1      -3.309   3.678  26.087  0.00  0.00    -0.002 A 
BRANCH  26  29
ATOM     29  C   UNL     1      -5.422   3.890  25.583  0.00  0.00    +0.100 C 
ATOM     30  N   UNL     1      -6.225   4.064  25.650  0.00  0.00    -0.191 NA
ENDBRANCH  26  29
ENDBRANCH  22  23
ENDBRANCH  21  22
ENDBRANCH  15  17
TORSDOF 9
ENDMDL
MODEL 8
REMARK VINA RESULT:      -9.0      1.967      4.089
REMARK  Name = 
REMARK  9 active torsions:
REMARK  status: ('A' for Active; 'I' for Inactive)
REMARK    1  A    between atoms: O_2  and  C_3
REMARK    2  A    between atoms: C_3  and  C_4
REMARK    3  A    between atoms: C_4  and  O_5
REMARK    4  A    between atoms: O_5  and  C_6
REMARK    5  A    between atoms: C_8  and  C_12
REMARK    6  A    between atoms: C_15  and  C_17
REMARK    7  A    between atoms: N_21  and  C_22
REMARK    8  A    between atoms: C_22  and  C_23
REMARK    9  A    between atoms: C_26  and  C_29
REMARK                            x       y       z     vdW  Elec       q    Type
REMARK                         _______ _______ _______ _____ _____    ______ ____
ROOT
ATOM     12  C   UNL     1      -4.384   0.425  25.237  0.00  0.00    +0.221 A 
ATOM     13  N   UNL     1      -4.411   0.025  25.958  0.00  0.00    -0.054 NA
ATOM     14  O   UNL     1      -4.012  -0.691  25.867  0.00  0.00    -0.336 OA
ATOM     15  C   UNL     1      -3.739  -0.734  25.090  0.00  0.00    +0.251 A 
ATOM     16  N   UNL     1      -3.969  -0.044  24.701  0.00  0.00    -0.188 NA
ENDROOT
BRANCH  12   8
ATOM      6  C   UNL     1      -4.557   2.544  24.742  0.00  0.00    +0.142 A 
ATOM      7  C   UNL     1      -4.226   1.805  24.899  0.00  0.00    +0.059 A 
ATOM      8  C   UNL     1      -4.715   1.165  25.080  0.00  0.00    +0.123 A 
ATOM      9  N   UNL     1      -5.533   1.263  25.103  0.00  0.00    -0.240 NA
ATOM     10  C   UNL     1      -5.864   2.003  24.946  0.00  0.00    +0.102 A 
ATOM     11  C   UNL     1      -5.376   2.643  24.766  0.00  0.00    +0.058 A 
BRANCH   6   5
ATOM      5  O   UNL     1      -4.070   3.185  24.562  0.00  0.00    -0.473 OA
BRANCH   5   4
ATOM      4  C   UNL     1      -3.578   3.506  25.142  0.00  0.00    +0.237 C 
BRANCH   4   3
ATOM      3  C   UNL     1      -2.989   4.044  24.931  0.00  0.00    +0.189 C 
BRANCH   3   2
ATOM      1  C   UNL     1      -1.759   4.670  25.300  0.00  0.00    +0.174 C 
ATOM      2  O   UNL     1      -2.494   4.361  25.509  0.00  0.00    -0.347 OA
ENDBRANCH   3   2
ENDBRANCH   4   3
ENDBRANCH   5   4
ENDBRANCH   6   5
ENDBRANCH  12   8
BRANCH  15  17
ATOM     17  C   UNL     1      -3.311  -1.357  24.760  0.00  0.00    +0.138 C 
ATOM     18  C   UNL     1      -3.630  -2.032  24.409  0.00  0.00    +0.027 C 
ATOM     19  C   UNL     1      -3.005  -2.508  24.155  0.00  0.00    +0.019 C 
ATOM     20  C   UNL     1      -2.300  -2.126  24.349  0.00  0.00    +0.073 C 
ATOM     21  N   UNL     1      -2.489  -1.415  24.723  0.00  0.00    -0.263 NA
BRANCH  21  22
ATOM     22  C   UNL     1      -1.950  -0.860  25.009  0.00  0.00    +0.099 C 
BRANCH  22  23
ATOM     23  C   UNL     1      -1.259  -0.701  24.589  0.00  0.00    -0.006 A 
ATOM     24  C   UNL     1      -1.208  -0.025  24.119  0.00  0.00    -0.002 A 
ATOM     25  C   UNL     1      -0.517   0.135  23.698  0.00  0.00    +0.010 A 
ATOM     26  C   UNL     1       0.124  -0.382  23.748  0.00  0.00    +0.068 A 
ATOM     27  C   UNL     1       0.075  -1.058  24.218  0.00  0.00    +0.010 A 
ATOM     28  C   UNL     1      -0.618  -1.217  24.638  0.00  0.00    -0.002 A 
BRANCH  26  29
ATOM     29  C   UNL     1       0.816  -0.222  23.327  0.00  0.00    +0.100 C 
ATOM     30  N   UNL     1       1.507  -0.063  22.906  0.00  0.00    -0.191 NA
ENDBRANCH  26  29
ENDBRANCH  22  23
ENDBRANCH  21  22
ENDBRANCH  15  17
TORSDOF 9
ENDMDL
MODEL 9
REMARK VINA RESULT:      -8.7      1.803      3.940
REMARK  Name = 
REMARK  9 active torsions:
REMARK  status: ('A' for Active; 'I' for Inactive)
REMARK    1  A    between atoms: O_2  and  C_3
REMARK    2  A    between atoms: C_3  and  C_4
REMARK    3  A    between atoms: C_4  and  O_5
REMARK    4  A    between atoms: O_5  and  C_6
REMARK    5  A    between atoms: C_8  and  C_12
REMARK    6  A    between atoms: C_15  and  C_17
REMARK    7  A    between atoms: N_21  and  C_22
REMARK    8  A    between atoms: C_22  and  C_23
REMARK    9  A    between atoms: C_26  and  C_29
REMARK                            x       y       z     vdW  Elec       q    Type
REMARK                         _______ _______ _______ _____ _____    ______ ____
ROOT
ATOM     12  C   UNL     1      -0.672  -0.741  24.390  0.00  0.00    +0.221 A 
ATOM     13  N   UNL     1      -0.536  -1.302  24.980  0.00  0.00    -0.054 NA
ATOM     14  O   UNL     1      -1.247  -1.692  25.131  0.00  0.00    -0.336 OA
ATOM     15  C   UNL     1      -1.823  -1.371  24.635  0.00  0.00    +0.251 A 
ATOM     16  N   UNL     1      -1.468  -0.784  24.177  0.00  0.00    -0.188 NA
ENDROOT
BRANCH  12   8
ATOM      6  C   UNL     1       0.497   1.065  24.020  0.00  0.00    +0.142 A 
ATOM      7  C   UNL     1      -0.064   0.551  24.340  0.00  0.00    +0.059 A 
ATOM      8  C   UNL     1      -0.111  -0.228  24.070  0.00  0.00    +0.123 A 
ATOM      9  N   UNL     1       0.402  -0.493  23.483  0.00  0.00    -0.240 NA
ATOM     10  C   UNL     1       0.963   0.021  23.163  0.00  0.00    +0.102 A 
ATOM     11  C   UNL     1       1.011   0.799  23.431  0.00  0.00    +0.058 A 
BRANCH   6   5
ATOM      5  O   UNL     1       0.544   1.843  24.288  0.00  0.00    -0.473 OA
BRANCH   5   4
ATOM      4  C   UNL     1      -0.120   2.332  24.257  0.00  0.00    +0.237 C 
BRANCH   4   3
ATOM      3  C   UNL     1      -0.105   3.070  24.626  0.00  0.00    +0.189 C 
BRANCH   3   2
ATOM      1  C   UNL     1      -0.917   4.196  24.967  0.00  0.00    +0.174 C 
ATOM      2  O   UNL     1      -0.651   3.649  24.409  0.00  0.00    -0.347 OA
ENDBRANCH   3   2
ENDBRANCH   4   3
ENDBRANCH   5   4
ENDBRANCH   6   5
ENDBRANCH  12   8
BRANCH  15  17
ATOM     17  C   UNL     1      -2.616  -1.598  24.602  0.00  0.00    +0.138 C 
ATOM     18  C   UNL     1      -2.905  -2.308  24.295  0.00  0.00    +0.027 C 
ATOM     19  C   UNL     1      -3.726  -2.303  24.373  0.00  0.00    +0.019 C 
ATOM     20  C   UNL     1      -3.945  -1.591  24.728  0.00  0.00    +0.073 C 
ATOM     21  N   UNL     1      -3.259  -1.155  24.869  0.00  0.00    -0.263 NA
BRANCH  21  22
ATOM     22  C   UNL     1      -3.222  -0.408  25.216  0.00  0.00    +0.099 C 
BRANCH  22  23
ATOM     23  C   UNL     1      -3.854   0.116  25.135  0.00  0.00    -0.006 A 
ATOM     24  C   UNL     1      -3.856   0.668  24.521  0.00  0.00    -0.002 A 
ATOM     25  C   UNL     1      -4.487   1.192  24.440  0.00  0.00    +0.010 A 
ATOM     26  C   UNL     1      -5.117   1.165  24.972  0.00  0.00    +0.068 A 
ATOM     27  C   UNL     1      -5.115   0.614  25.586  0.00  0.00    +0.010 A 
ATOM     28  C   UNL     1      -4.483   0.089  25.667  0.00  0.00    -0.002 A 
BRANCH  26  29
ATOM     29  C   UNL     1      -5.749   1.690  24.891  0.00  0.00    +0.100 C 
ATOM     30  N   UNL     1      -6.380   2.213  24.810  0.00  0.00    -0.191 NA
ENDBRANCH  26  29
ENDBRANCH  22  23
ENDBRANCH  21  22
ENDBRANCH  15  17
TORSDOF 9
ENDMDL
