MODEL 1
REMARK VINA RESULT:     -11.6      0.000      0.000
REMARK  Name = 
REMARK  6 active torsions:
REMARK  status: ('A' for Active; 'I' for Inactive)
REMARK    1  A    between atoms: C_2  and  C_4
REMARK    2  A    between atoms: C_4  and  S_5
REMARK    3  A    between atoms: S_5  and  C_6
REMARK    4  A    between atoms: C_6  and  C_7
REMARK    5  A    between atoms: C_16  and  C_23
REMARK    6  A    between atoms: C_27  and  C_29
REMARK                            x       y       z     vdW  Elec       q    Type
REMARK                         _______ _______ _______ _____ _____    ______ ____
ROOT
ATOM      7  C   UNL     1      -2.930   2.367  24.425  0.00  0.00    +0.237 C 
ATOM      8  O   UNL     1      -3.676   2.106  24.665  0.00  0.00    -0.274 OA
ATOM      9  N   UNL     1      -2.316   1.825  24.323  0.00  0.00    -0.278 N 
ATOM     10  C   UNL     1      -1.552   1.537  24.146  0.00  0.00    +0.095 C 
ATOM     11  C   UNL     1      -1.696   0.573  24.307  0.00  0.00    +0.043 C 
ATOM     12  C   UNL     1      -1.652  -0.235  24.396  0.00  0.00    +0.011 C 
ATOM     13  C   UNL     1      -2.135   0.268  24.468  0.00  0.00    +0.058 C 
ATOM     14  C   UNL     1      -1.980   1.197  24.308  0.00  0.00    +0.099 C 
ATOM     15  C   UNL     1      -3.016   0.395  24.696  0.00  0.00    +0.041 A 
ATOM     16  C   UNL     1      -3.683  -0.028  24.935  0.00  0.00    +0.012 A 
ATOM     17  C   UNL     1      -4.392   0.368  25.082  0.00  0.00    +0.006 A 
ATOM     18  C   UNL     1      -4.433   1.187  24.991  0.00  0.00    +0.061 A 
ATOM     19  C   UNL     1      -3.766   1.610  24.752  0.00  0.00    +0.261 A 
ATOM     20  O   UNL     1      -4.051   2.384  24.734  0.00  0.00    -0.267 OA
ATOM     21  N   UNL     1      -3.058   1.214  24.605  0.00  0.00    -0.299 N 
ATOM     22  C   UNL     1      -2.616   0.715  24.545  0.00  0.00    +0.110 C 
ENDROOT
BRANCH  16  23
ATOM     23  C   UNL     1      -3.641  -0.847  25.026  0.00  0.00    +0.002 A 
ATOM     24  C   UNL     1      -3.363  -1.170  25.732  0.00  0.00    +0.000 A 
ATOM     25  C   UNL     1      -3.321  -1.989  25.823  0.00  0.00    +0.001 A 
ATOM     26  C   UNL     1      -3.558  -2.485  25.208  0.00  0.00    +0.010 A 
ATOM     27  C   UNL     1      -3.837  -2.162  24.502  0.00  0.00    +0.068 A 
ATOM     28  C   UNL     1      -3.879  -1.343  24.411  0.00  0.00    +0.010 A 
BRANCH  27  29
ATOM     29  C   UNL     1      -4.074  -2.658  23.887  0.00  0.00    +0.100 C 
ATOM     30  N   UNL     1      -4.312  -3.154  23.271  0.00  0.00    -0.191 NA
ENDBRANCH  27  29
ENDBRANCH  16  23
BRANCH   7   6
ATOM      6  C   UNL     1      -2.798   3.169  24.288  0.00  0.00    +0.143 C 
BRANCH   6   5
ATOM      5  S   UNL     1      -2.501   3.648  24.892  0.00  0.00    -0.119 S 
BRANCH   5   4
ATOM      4  C   UNL     1      -2.303   4.434  24.735  0.00  0.00    +0.172 C 
BRANCH   4   2
ATOM      1  O   UNL     1      -2.210   4.927  26.073  0.00  0.00    -0.245 OA
ATOM      2  C   UNL     1      -1.909   4.880  25.306  0.00  0.00    +0.376 C 
ATOM      3  O   UNL     1      -1.213   5.279  25.111  0.00  0.00    -0.245 OA
ENDBRANCH   4   2
ENDBRANCH   5   4
ENDBRANCH   6   5
ENDBRANCH   7   6
TORSDOF 6
ENDMDL
MODEL 2
REMARK VINA RESULT:     -11.1      2.136      5.024
REMARK  Name = 
REMARK  6 active torsions:
REMARK  status: ('A' for Active; 'I' for Inactive)
REMARK    1  A    between atoms: C_2  and  C_4
REMARK    2  A    between atoms: C_4  and  S_5
REMARK    3  A    between atoms: S_5  and  C_6
REMARK    4  A    between atoms: C_6  and  C_7
REMARK    5  A    between atoms: C_16  and  C_23
REMARK    6  A    between atoms: C_27  and  C_29
REMARK                            x       y       z     vdW  Elec       q    Type
REMARK                         _______ _______ _______ _____ _____    ______ ____
ROOT
ATOM      7  C   UNL     1      -2.249  -0.030  24.436  0.00  0.00    +0.237 C 
ATOM      8  O   UNL     1      -1.664   0.219  24.962  0.00  0.00    -0.274 OA
ATOM      9  N   UNL     1      -2.791   0.515  24.133  0.00  0.00    -0.278 N 
ATOM     10  C   UNL     1      -3.435   0.809  23.689  0.00  0.00    +0.095 C 
ATOM     11  C   UNL     1      -3.394   1.761  23.949  0.00  0.00    +0.043 C 
ATOM     12  C   UNL     1      -3.494   2.562  24.061  0.00  0.00    +0.011 C 
ATOM     13  C   UNL     1      -3.062   2.057  24.286  0.00  0.00    +0.058 C 
ATOM     14  C   UNL     1      -3.114   1.140  24.025  0.00  0.00    +0.099 C 
ATOM     15  C   UNL     1      -2.336   1.921  24.833  0.00  0.00    +0.041 A 
ATOM     16  C   UNL     1      -1.828   2.331  25.336  0.00  0.00    +0.012 A 
ATOM     17  C   UNL     1      -1.221   1.930  25.725  0.00  0.00    +0.006 A 
ATOM     18  C   UNL     1      -1.122   1.119  25.610  0.00  0.00    +0.061 A 
ATOM     19  C   UNL     1      -1.630   0.709  25.107  0.00  0.00    +0.261 A 
ATOM     20  O   UNL     1      -1.337  -0.060  25.157  0.00  0.00    -0.267 OA
ATOM     21  N   UNL     1      -2.237   1.110  24.718  0.00  0.00    -0.299 N 
ATOM     22  C   UNL     1      -2.636   1.609  24.519  0.00  0.00    +0.110 C 
ENDROOT
BRANCH  16  23
ATOM     23  C   UNL     1      -1.926   3.142  25.451  0.00  0.00    +0.002 A 
ATOM     24  C   UNL     1      -2.537   3.420  25.931  0.00  0.00    +0.000 A 
ATOM     25  C   UNL     1      -2.636   4.231  26.046  0.00  0.00    +0.001 A 
ATOM     26  C   UNL     1      -2.124   4.765  25.681  0.00  0.00    +0.010 A 
ATOM     27  C   UNL     1      -1.513   4.487  25.201  0.00  0.00    +0.068 A 
ATOM     28  C   UNL     1      -1.414   3.676  25.086  0.00  0.00    +0.010 A 
BRANCH  27  29
ATOM     29  C   UNL     1      -1.001   5.020  24.836  0.00  0.00    +0.100 C 
ATOM     30  N   UNL     1      -0.488   5.555  24.470  0.00  0.00    -0.191 NA
ENDBRANCH  27  29
ENDBRANCH  16  23
BRANCH   7   6
ATOM      6  C   UNL     1      -2.293  -0.822  24.212  0.00  0.00    +0.143 C 
BRANCH   6   5
ATOM      5  S   UNL     1      -2.744  -1.352  24.656  0.00  0.00    -0.119 S 
BRANCH   5   4
ATOM      4  C   UNL     1      -2.764  -2.151  24.449  0.00  0.00    +0.172 C 
BRANCH   4   2
ATOM      1  O   UNL     1      -3.460  -2.808  25.510  0.00  0.00    -0.245 OA
ATOM      2  C   UNL     1      -3.385  -2.628  24.708  0.00  0.00    +0.376 C 
ATOM      3  O   UNL     1      -3.932  -2.924  24.165  0.00  0.00    -0.245 OA
ENDBRANCH   4   2
ENDBRANCH   5   4
ENDBRANCH   6   5
ENDBRANCH   7   6
TORSDOF 6
ENDMDL
MODEL 3
REMARK VINA RESULT:     -10.6      2.638      4.183
REMARK  Name = 
REMARK  6 active torsions:
REMARK  status: ('A' for Active; 'I' for Inactive)
REMARK    1  A    between atoms: C_2  and  C_4
REMARK    2  A    between atoms: C_4  and  S_5
REMARK    3  A    between atoms: S_5  and  C_6
REMARK    4  A    between atoms: C_6  and  C_7
REMARK    5  A    between atoms: C_16  and  C_23
REMARK    6  A    between atoms: C_27  and  C_29
REMARK                            x       y       z     vdW  Elec       q    Type
REMARK                         _______ _______ _______ _____ _____    ______ ____
ROOT
ATOM      7  C   UNL     1      -0.913   0.788  24.320  0.00  0.00    +0.237 C 
ATOM      8  O   UNL     1      -1.615   0.599  23.929  0.00  0.00    -0.274 OA
ATOM      9  N   UNL     1      -0.878   1.455  24.805  0.00  0.00    -0.278 N 
ATOM     10  C   UNL     1      -0.556   2.023  25.326  0.00  0.00    +0.095 C 
ATOM     11  C   UNL     1      -1.346   2.603  25.447  0.00  0.00    +0.043 C 
ATOM     12  C   UNL     1      -1.895   3.171  25.648  0.00  0.00    +0.011 C 
ATOM     13  C   UNL     1      -1.868   2.594  25.250  0.00  0.00    +0.058 C 
ATOM     14  C   UNL     1      -1.095   2.043  25.142  0.00  0.00    +0.099 C 
ATOM     15  C   UNL     1      -2.386   2.077  24.694  0.00  0.00    +0.041 A 
ATOM     16  C   UNL     1      -3.149   2.036  24.385  0.00  0.00    +0.012 A 
ATOM     17  C   UNL     1      -3.355   1.422  23.874  0.00  0.00    +0.006 A 
ATOM     18  C   UNL     1      -2.797   0.848  23.672  0.00  0.00    +0.061 A 
ATOM     19  C   UNL     1      -2.033   0.889  23.981  0.00  0.00    +0.261 A 
ATOM     20  O   UNL     1      -1.675   0.228  23.643  0.00  0.00    -0.267 OA
ATOM     21  N   UNL     1      -1.828   1.504  24.492  0.00  0.00    -0.299 N 
ATOM     22  C   UNL     1      -1.880   2.057  24.865  0.00  0.00    +0.110 C 
ENDROOT
BRANCH  16  23
ATOM     23  C   UNL     1      -3.707   2.609  24.586  0.00  0.00    +0.002 A 
ATOM     24  C   UNL     1      -3.695   3.346  24.216  0.00  0.00    +0.000 A 
ATOM     25  C   UNL     1      -4.253   3.919  24.418  0.00  0.00    +0.001 A 
ATOM     26  C   UNL     1      -4.824   3.756  24.990  0.00  0.00    +0.010 A 
ATOM     27  C   UNL     1      -4.837   3.019  25.361  0.00  0.00    +0.068 A 
ATOM     28  C   UNL     1      -4.279   2.446  25.159  0.00  0.00    +0.010 A 
BRANCH  27  29
ATOM     29  C   UNL     1      -5.407   2.855  25.933  0.00  0.00    +0.100 C 
ATOM     30  N   UNL     1      -5.979   2.691  26.506  0.00  0.00    -0.191 NA
ENDBRANCH  27  29
ENDBRANCH  16  23
BRANCH   7   6
ATOM      6  C   UNL     1      -0.247   0.311  24.225  0.00  0.00    +0.143 C 
BRANCH   6   5
ATOM      5  S   UNL     1       0.220   0.383  23.549  0.00  0.00    -0.119 S 
BRANCH   5   4
ATOM      4  C   UNL     1       0.858  -0.127  23.431  0.00  0.00    +0.172 C 
BRANCH   4   2
ATOM      1  O   UNL     1       2.073   0.435  22.931  0.00  0.00    -0.245 OA
ATOM      2  C   UNL     1       1.380   0.004  22.806  0.00  0.00    +0.376 C 
ATOM      3  O   UNL     1       1.210  -0.297  22.056  0.00  0.00    -0.245 OA
ENDBRANCH   4   2
ENDBRANCH   5   4
ENDBRANCH   6   5
ENDBRANCH   7   6
TORSDOF 6
ENDMDL
MODEL 4
REMARK VINA RESULT:     -10.0      2.200      2.961
REMARK  Name = 
REMARK  6 active torsions:
REMARK  status: ('A' for Active; 'I' for Inactive)
REMARK    1  A    between atoms: C_2  and  C_4
REMARK    2  A    between atoms: C_4  and  S_5
REMARK    3  A    between atoms: S_5  and  C_6
REMARK    4  A    between atoms: C_6  and  C_7
REMARK    5  A    between atoms: C_16  and  C_23
REMARK    6  A    between atoms: C_27  and  C_29
REMARK                            x       y       z     vdW  Elec       q    Type
REMARK                         _______ _______ _______ _____ _____    ______ ____
ROOT
ATOM      7  C   UNL     1      -3.235   2.787  24.643  0.00  0.00    +0.237 C 
ATOM      8  O   UNL     1      -3.405   2.145  24.153  0.00  0.00    -0.274 OA
ATOM      9  N   UNL     1      -2.526   2.809  25.064  0.00  0.00    -0.278 N 
ATOM     10  C   UNL     1      -1.934   3.096  25.579  0.00  0.00    +0.095 C 
ATOM     11  C   UNL     1      -1.279   2.359  25.506  0.00  0.00    +0.043 C 
ATOM     12  C   UNL     1      -0.649   1.845  25.555  0.00  0.00    +0.011 C 
ATOM     13  C   UNL     1      -1.266   1.880  25.222  0.00  0.00    +0.058 C 
ATOM     14  C   UNL     1      -1.888   2.599  25.303  0.00  0.00    +0.099 C 
ATOM     15  C   UNL     1      -1.793   1.412  24.633  0.00  0.00    +0.041 A 
ATOM     16  C   UNL     1      -1.803   0.710  24.199  0.00  0.00    +0.012 A 
ATOM     17  C   UNL     1      -2.449   0.531  23.718  0.00  0.00    +0.006 A 
ATOM     18  C   UNL     1      -3.086   1.054  23.671  0.00  0.00    +0.061 A 
ATOM     19  C   UNL     1      -3.076   1.755  24.105  0.00  0.00    +0.261 A 
ATOM     20  O   UNL     1      -3.798   2.095  23.897  0.00  0.00    -0.267 OA
ATOM     21  N   UNL     1      -2.430   1.934  24.585  0.00  0.00    -0.299 N 
ATOM     22  C   UNL     1      -1.838   1.877  24.891  0.00  0.00    +0.110 C 
ENDROOT
BRANCH  16  23
ATOM     23  C   UNL     1      -1.166   0.188  24.246  0.00  0.00    +0.002 A 
ATOM     24  C   UNL     1      -1.162  -0.408  24.817  0.00  0.00    +0.000 A 
ATOM     25  C   UNL     1      -0.526  -0.930  24.864  0.00  0.00    +0.001 A 
ATOM     26  C   UNL     1       0.108  -0.858  24.340  0.00  0.00    +0.010 A 
ATOM     27  C   UNL     1       0.104  -0.262  23.770  0.00  0.00    +0.068 A 
ATOM     28  C   UNL     1      -0.533   0.260  23.722  0.00  0.00    +0.010 A 
BRANCH  27  29
ATOM     29  C   UNL     1       0.737  -0.189  23.246  0.00  0.00    +0.100 C 
ATOM     30  N   UNL     1       1.370  -0.116  22.721  0.00  0.00    -0.191 NA
ENDBRANCH  27  29
ENDBRANCH  16  23
BRANCH   7   6
ATOM      6  C   UNL     1      -3.774   3.407  24.712  0.00  0.00    +0.143 C 
BRANCH   6   5
ATOM      5  S   UNL     1      -4.442   3.322  25.189  0.00  0.00    -0.119 S 
BRANCH   5   4
ATOM      4  C   UNL     1      -4.934   3.970  25.330  0.00  0.00    +0.172 C 
BRANCH   4   2
ATOM      1  O   UNL     1      -6.225   4.451  25.710  0.00  0.00    -0.245 OA
ATOM      2  C   UNL     1      -5.640   3.869  25.745  0.00  0.00    +0.376 C 
ATOM      3  O   UNL     1      -5.761   3.187  26.194  0.00  0.00    -0.245 OA
ENDBRANCH   4   2
ENDBRANCH   5   4
ENDBRANCH   6   5
ENDBRANCH   7   6
TORSDOF 6
ENDMDL
