MODEL 1
REMARK VINA RESULT:     -14.1      0.000      0.000
REMARK  Name = 
REMARK  5 active torsions:
REMARK  status: ('A' for Active; 'I' for Inactive)
REMARK    1  A    between atoms: N_2  and  C_4
REMARK    2  A    between atoms: C_4  and  C_5
REMARK    3  A    between atoms: C_10  and  C_11
REMARK    4  A    between atoms: N_19  and  C_20
REMARK    5  A    between atoms: C_20  and  C_21
REMARK                            x       y       z     vdW  Elec       q    Type
REMARK                         _______ _______ _______ _____ _____    ______ ____
ROOT
ATOM     11  C   UNL     1      -3.264   2.372  24.193  0.00  0.00    +0.056 A 
ATOM     12  C   UNL     1      -3.553   3.140  24.277  0.00  0.00    +0.006 A 
ATOM     13  C   UNL     1      -4.286   3.269  24.633  0.00  0.00    +0.013 A 
ATOM     14  C   UNL     1      -4.730   2.630  24.905  0.00  0.00    +0.041 A 
ATOM     15  C   UNL     1      -5.528   2.440  25.319  0.00  0.00    +0.054 C 
ATOM     16  C   UNL     1      -6.101   2.751  25.581  0.00  0.00    +0.011 C 
ATOM     17  C   UNL     1      -5.812   1.994  25.496  0.00  0.00    +0.039 C 
ATOM     18  C   UNL     1      -5.639   1.021  25.487  0.00  0.00    +0.074 C 
ATOM     19  N   UNL     1      -4.891   1.016  25.114  0.00  0.00    -0.269 NA
ATOM     27  C   UNL     1      -5.375   1.497  25.317  0.00  0.00    +0.078 C 
ATOM     28  C   UNL     1      -4.976   2.183  25.064  0.00  0.00    +0.110 C 
ATOM     29  N   UNL     1      -4.441   1.861  24.822  0.00  0.00    -0.299 N 
ATOM     30  C   UNL     1      -3.708   1.733  24.466  0.00  0.00    +0.261 A 
ATOM     31  O   UNL     1      -3.419   0.964  24.382  0.00  0.00    -0.267 OA
ENDROOT
BRANCH  11  10
ATOM      5  C   UNL     1      -1.838   2.432  24.243  0.00  0.00    -0.006 A 
ATOM      6  C   UNL     1      -1.105   2.304  23.888  0.00  0.00    -0.003 A 
ATOM      7  C   UNL     1      -1.065   1.989  23.127  0.00  0.00    -0.000 A 
ATOM      8  C   UNL     1      -1.758   1.801  22.720  0.00  0.00    -0.000 A 
ATOM      9  C   UNL     1      -2.492   1.929  23.076  0.00  0.00    -0.000 A 
ATOM     10  C   UNL     1      -2.532   2.244  23.837  0.00  0.00    +0.002 A 
BRANCH   5   4
ATOM      4  C   UNL     1      -1.878   2.748  25.004  0.00  0.00    +0.099 C 
BRANCH   4   2
ATOM      1  C   UNL     1      -0.855   3.690  25.333  0.00  0.00    +0.090 C 
ATOM      2  N   UNL     1      -1.184   2.938  25.409  0.00  0.00    -0.267 NA
ATOM      3  C   UNL     1      -0.820   2.375  25.889  0.00  0.00    +0.090 C 
ENDBRANCH   4   2
ENDBRANCH   5   4
ENDBRANCH  11  10
BRANCH  19  20
ATOM     20  C   UNL     1      -4.195   0.714  24.789  0.00  0.00    +0.099 C 
BRANCH  20  21
ATOM     21  C   UNL     1      -4.058  -0.099  24.792  0.00  0.00    -0.006 A 
ATOM     22  C   UNL     1      -3.680  -0.452  25.435  0.00  0.00    -0.003 A 
ATOM     23  C   UNL     1      -3.543  -1.266  25.437  0.00  0.00    -0.000 A 
ATOM     24  C   UNL     1      -3.784  -1.726  24.796  0.00  0.00    -0.000 A 
ATOM     25  C   UNL     1      -4.161  -1.374  24.154  0.00  0.00    -0.000 A 
ATOM     26  C   UNL     1      -4.299  -0.560  24.151  0.00  0.00    -0.003 A 
ENDBRANCH  20  21
ENDBRANCH  19  20
TORSDOF 5
ENDMDL
MODEL 2
REMARK VINA RESULT:     -13.5      1.273      3.474
REMARK  Name = 
REMARK  5 active torsions:
REMARK  status: ('A' for Active; 'I' for Inactive)
REMARK    1  A    between atoms: N_2  and  C_4
REMARK    2  A    between atoms: C_4  and  C_5
REMARK    3  A    between atoms: C_10  and  C_11
REMARK    4  A    between atoms: N_19  and  C_20
REMARK    5  A    between atoms: C_20  and  C_21
REMARK                            x       y       z     vdW  Elec       q    Type
REMARK                         _______ _______ _______ _____ _____    ______ ____
ROOT
ATOM     11  C   UNL     1      -3.729   1.219  24.393  0.00  0.00    +0.056 A 
ATOM     12  C   UNL     1      -4.380   0.716  24.461  0.00  0.00    +0.006 A 
ATOM     13  C   UNL     1      -4.291  -0.028  24.805  0.00  0.00    +0.013 A 
ATOM     14  C   UNL     1      -3.553  -0.270  25.082  0.00  0.00    +0.041 A 
ATOM     15  C   UNL     1      -3.141  -0.984  25.488  0.00  0.00    +0.054 C 
ATOM     16  C   UNL     1      -3.274  -1.627  25.737  0.00  0.00    +0.011 C 
ATOM     17  C   UNL     1      -2.634  -1.128  25.668  0.00  0.00    +0.039 C 
ATOM     18  C   UNL     1      -1.755  -0.676  25.676  0.00  0.00    +0.074 C 
ATOM     19  N   UNL     1      -1.965   0.046  25.313  0.00  0.00    -0.269 NA
ATOM     27  C   UNL     1      -2.285  -0.561  25.503  0.00  0.00    +0.078 C 
ATOM     28  C   UNL     1      -3.055  -0.377  25.244  0.00  0.00    +0.110 C 
ATOM     29  N   UNL     1      -2.902   0.233  25.014  0.00  0.00    -0.299 N 
ATOM     30  C   UNL     1      -2.990   0.978  24.670  0.00  0.00    +0.261 A 
ATOM     31  O   UNL     1      -2.340   1.481  24.602  0.00  0.00    -0.267 OA
ENDROOT
BRANCH  11  10
ATOM      5  C   UNL     1      -4.202   2.565  24.463  0.00  0.00    -0.006 A 
ATOM      6  C   UNL     1      -4.291   3.310  24.119  0.00  0.00    -0.003 A 
ATOM      7  C   UNL     1      -3.997   3.452  23.362  0.00  0.00    -0.000 A 
ATOM      8  C   UNL     1      -3.613   2.851  22.948  0.00  0.00    -0.000 A 
ATOM      9  C   UNL     1      -3.524   2.106  23.292  0.00  0.00    -0.000 A 
ATOM     10  C   UNL     1      -3.818   1.963  24.049  0.00  0.00    +0.002 A 
BRANCH   5   4
ATOM      4  C   UNL     1      -4.496   2.423  25.220  0.00  0.00    +0.099 C 
BRANCH   4   2
ATOM      1  C   UNL     1      -4.378   3.560  26.076  0.00  0.00    +0.090 C 
ATOM      2  N   UNL     1      -4.847   3.035  25.648  0.00  0.00    -0.267 NA
ATOM      3  C   UNL     1      -5.668   3.121  25.648  0.00  0.00    +0.090 C 
ENDBRANCH   4   2
ENDBRANCH   5   4
ENDBRANCH  11  10
BRANCH  19  20
ATOM     20  C   UNL     1      -1.877   0.806  25.003  0.00  0.00    +0.099 C 
BRANCH  20  21
ATOM     21  C   UNL     1      -1.142   1.178  25.026  0.00  0.00    -0.006 A 
ATOM     22  C   UNL     1      -0.611   1.083  24.401  0.00  0.00    -0.003 A 
ATOM     23  C   UNL     1       0.125   1.455  24.424  0.00  0.00    -0.000 A 
ATOM     24  C   UNL     1       0.330   1.923  25.072  0.00  0.00    -0.000 A 
ATOM     25  C   UNL     1      -0.200   2.019  25.696  0.00  0.00    -0.000 A 
ATOM     26  C   UNL     1      -0.936   1.646  25.673  0.00  0.00    -0.003 A 
ENDBRANCH  20  21
ENDBRANCH  19  20
TORSDOF 5
ENDMDL
MODEL 3
REMARK VINA RESULT:     -12.7      1.424      3.052
REMARK  Name = 
REMARK  5 active torsions:
REMARK  status: ('A' for Active; 'I' for Inactive)
REMARK    1  A    between atoms: N_2  and  C_4
REMARK    2  A    between atoms: C_4  and  C_5
REMARK    3  A    between atoms: C_10  and  C_11
REMARK    4  A    between atoms: N_19  and  C_20
REMARK    5  A    between atoms: C_20  and  C_21
REMARK                            x       y       z     vdW  Elec       q    Type
REMARK                         _______ _______ _______ _____ _____    ______ ____
ROOT
ATOM     11  C   UNL     1      -3.067   0.969  24.290  0.00  0.00    +0.056 A 
ATOM     12  C   UNL     1      -3.654   0.402  24.164  0.00  0.00    +0.006 A 
ATOM     13  C   UNL     1      -4.436   0.565  24.369  0.00  0.00    +0.013 A 
ATOM     14  C   UNL     1      -4.632   1.295  24.699  0.00  0.00    +0.041 A 
ATOM     15  C   UNL     1      -5.356   1.764  25.017  0.00  0.00    +0.054 C 
ATOM     16  C   UNL     1      -6.048   1.706  25.117  0.00  0.00    +0.011 C 
ATOM     17  C   UNL     1      -5.466   2.263  25.239  0.00  0.00    +0.039 C 
ATOM     18  C   UNL     1      -4.916   3.053  25.461  0.00  0.00    +0.074 C 
ATOM     19  N   UNL     1      -4.167   2.776  25.216  0.00  0.00    -0.269 NA
ATOM     27  C   UNL     1      -4.837   2.535  25.238  0.00  0.00    +0.078 C 
ATOM     28  C   UNL     1      -4.704   1.782  24.909  0.00  0.00    +0.110 C 
ATOM     29  N   UNL     1      -4.045   1.862  24.825  0.00  0.00    -0.299 N 
ATOM     30  C   UNL     1      -3.263   1.699  24.620  0.00  0.00    +0.261 A 
ATOM     31  O   UNL     1      -2.676   2.265  24.745  0.00  0.00    -0.267 OA
ENDROOT
BRANCH  11  10
ATOM      5  C   UNL     1      -1.861   0.234  24.503  0.00  0.00    -0.006 A 
ATOM      6  C   UNL     1      -1.079   0.069  24.299  0.00  0.00    -0.003 A 
ATOM      7  C   UNL     1      -0.722   0.475  23.676  0.00  0.00    -0.000 A 
ATOM      8  C   UNL     1      -1.145   1.045  23.257  0.00  0.00    -0.000 A 
ATOM      9  C   UNL     1      -1.928   1.210  23.462  0.00  0.00    -0.000 A 
ATOM     10  C   UNL     1      -2.286   0.804  24.085  0.00  0.00    +0.002 A 
BRANCH   5   4
ATOM      4  C   UNL     1      -2.218  -0.172  25.126  0.00  0.00    +0.099 C 
BRANCH   4   2
ATOM      1  C   UNL     1      -1.352  -0.559  26.195  0.00  0.00    +0.090 C 
ATOM      2  N   UNL     1      -1.800  -0.756  25.531  0.00  0.00    -0.267 NA
ATOM      3  C   UNL     1      -1.831  -1.539  25.273  0.00  0.00    +0.090 C 
ENDBRANCH   4   2
ENDBRANCH   5   4
ENDBRANCH  11  10
BRANCH  19  20
ATOM     20  C   UNL     1      -3.354   2.778  25.073  0.00  0.00    +0.099 C 
BRANCH  20  21
ATOM     21  C   UNL     1      -2.906   3.446  25.254  0.00  0.00    -0.006 A 
ATOM     22  C   UNL     1      -2.550   3.516  25.995  0.00  0.00    -0.003 A 
ATOM     23  C   UNL     1      -2.102   4.185  26.176  0.00  0.00    -0.000 A 
ATOM     24  C   UNL     1      -2.009   4.783  25.616  0.00  0.00    -0.000 A 
ATOM     25  C   UNL     1      -2.364   4.714  24.875  0.00  0.00    -0.000 A 
ATOM     26  C   UNL     1      -2.813   4.045  24.694  0.00  0.00    -0.003 A 
ENDBRANCH  20  21
ENDBRANCH  19  20
TORSDOF 5
ENDMDL
MODEL 4
REMARK VINA RESULT:     -12.6      1.503      3.301
REMARK  Name = 
REMARK  5 active torsions:
REMARK  status: ('A' for Active; 'I' for Inactive)
REMARK    1  A    between atoms: N_2  and  C_4
REMARK    2  A    between atoms: C_4  and  C_5
REMARK    3  A    between atoms: C_10  and  C_11
REMARK    4  A    between atoms: N_19  and  C_20
REMARK    5  A    between atoms: C_20  and  C_21
REMARK                            x       y       z     vdW  Elec       q    Type
REMARK                         _______ _______ _______ _____ _____    ______ ____
ROOT
ATOM     11  C   UNL     1      -1.477   0.239  25.301  0.00  0.00    +0.056 A 
ATOM     12  C   UNL     1      -1.221  -0.524  25.485  0.00  0.00    +0.006 A 
ATOM     13  C   UNL     1      -1.753  -1.154  25.462  0.00  0.00    +0.013 A 
ATOM     14  C   UNL     1      -2.540  -1.022  25.255  0.00  0.00    +0.041 A 
ATOM     15  C   UNL     1      -3.334  -1.472  25.140  0.00  0.00    +0.054 C 
ATOM     16  C   UNL     1      -3.612  -2.115  25.179  0.00  0.00    +0.011 C 
ATOM     17  C   UNL     1      -3.861  -1.360  24.998  0.00  0.00    +0.039 C 
ATOM     18  C   UNL     1      -4.346  -0.536  24.749  0.00  0.00    +0.074 C 
ATOM     19  N   UNL     1      -3.722   0.016  24.806  0.00  0.00    -0.269 NA
ATOM     27  C   UNL     1      -3.816  -0.684  24.898  0.00  0.00    +0.078 C 
ATOM     28  C   UNL     1      -3.037  -0.882  25.114  0.00  0.00    +0.110 C 
ATOM     29  N   UNL     1      -2.796  -0.259  25.070  0.00  0.00    -0.299 N 
ATOM     30  C   UNL     1      -2.264   0.371  25.093  0.00  0.00    +0.261 A 
ATOM     31  O   UNL     1      -2.519   1.134  24.909  0.00  0.00    -0.267 OA
ENDROOT
BRANCH  11  10
ATOM      5  C   UNL     1      -0.369   0.943  24.737  0.00  0.00    -0.006 A 
ATOM      6  C   UNL     1       0.164   1.572  24.760  0.00  0.00    -0.003 A 
ATOM      7  C   UNL     1       0.121   2.126  25.369  0.00  0.00    -0.000 A 
ATOM      8  C   UNL     1      -0.454   2.052  25.956  0.00  0.00    -0.000 A 
ATOM      9  C   UNL     1      -0.987   1.422  25.933  0.00  0.00    -0.000 A 
ATOM     10  C   UNL     1      -0.944   0.868  25.324  0.00  0.00    +0.002 A 
BRANCH   5   4
ATOM      4  C   UNL     1      -0.326   0.388  24.128  0.00  0.00    +0.099 C 
BRANCH   4   2
ATOM      1  C   UNL     1       0.013   0.980  22.872  0.00  0.00    +0.090 C 
ATOM      2  N   UNL     1       0.210   0.495  23.510  0.00  0.00    -0.267 NA
ATOM      3  C   UNL     1       0.942   0.117  23.529  0.00  0.00    +0.090 C 
ENDBRANCH   4   2
ENDBRANCH   5   4
ENDBRANCH  11  10
BRANCH  19  20
ATOM     20  C   UNL     1      -3.333   0.744  24.780  0.00  0.00    +0.099 C 
BRANCH  20  21
ATOM     21  C   UNL     1      -3.749   1.427  24.581  0.00  0.00    -0.006 A 
ATOM     22  C   UNL     1      -4.219   1.803  25.145  0.00  0.00    -0.003 A 
ATOM     23  C   UNL     1      -4.636   2.487  24.946  0.00  0.00    -0.000 A 
ATOM     24  C   UNL     1      -4.583   2.794  24.182  0.00  0.00    -0.000 A 
ATOM     25  C   UNL     1      -4.114   2.419  23.618  0.00  0.00    -0.000 A 
ATOM     26  C   UNL     1      -3.697   1.734  23.817  0.00  0.00    -0.003 A 
ENDBRANCH  20  21
ENDBRANCH  19  20
TORSDOF 5
ENDMDL
MODEL 5
REMARK VINA RESULT:     -12.4      1.069      3.268
REMARK  Name = 
REMARK  5 active torsions:
REMARK  status: ('A' for Active; 'I' for Inactive)
REMARK    1  A    between atoms: N_2  and  C_4
REMARK    2  A    between atoms: C_4  and  C_5
REMARK    3  A    between atoms: C_10  and  C_11
REMARK    4  A    between atoms: N_19  and  C_20
REMARK    5  A    between atoms: C_20  and  C_21
REMARK                            x       y       z     vdW  Elec       q    Type
REMARK                         _______ _______ _______ _____ _____    ______ ____
ROOT
ATOM     11  C   UNL     1      -4.458   0.194  24.798  0.00  0.00    +0.056 A 
ATOM     12  C   UNL     1      -5.056   0.252  25.364  0.00  0.00    +0.006 A 
ATOM     13  C   UNL     1      -5.326   0.993  25.605  0.00  0.00    +0.013 A 
ATOM     14  C   UNL     1      -4.997   1.677  25.280  0.00  0.00    +0.041 A 
ATOM     15  C   UNL     1      -5.065   2.592  25.326  0.00  0.00    +0.054 C 
ATOM     16  C   UNL     1      -5.420   3.102  25.653  0.00  0.00    +0.011 C 
ATOM     17  C   UNL     1      -4.830   3.042  25.095  0.00  0.00    +0.039 C 
ATOM     18  C   UNL     1      -4.120   3.174  24.420  0.00  0.00    +0.074 C 
ATOM     19  N   UNL     1      -3.931   2.377  24.257  0.00  0.00    -0.269 NA
ATOM     27  C   UNL     1      -4.381   2.737  24.676  0.00  0.00    +0.078 C 
ATOM     28  C   UNL     1      -4.752   2.086  25.040  0.00  0.00    +0.110 C 
ATOM     29  N   UNL     1      -4.399   1.619  24.715  0.00  0.00    -0.299 N 
ATOM     30  C   UNL     1      -4.129   0.878  24.474  0.00  0.00    +0.261 A 
ATOM     31  O   UNL     1      -3.531   0.820  23.909  0.00  0.00    -0.267 OA
ENDROOT
BRANCH  11  10
ATOM      5  C   UNL     1      -3.657  -0.965  25.030  0.00  0.00    -0.006 A 
ATOM      6  C   UNL     1      -3.387  -1.707  24.791  0.00  0.00    -0.003 A 
ATOM      7  C   UNL     1      -3.649  -2.031  24.078  0.00  0.00    -0.000 A 
ATOM      8  C   UNL     1      -4.180  -1.613  23.606  0.00  0.00    -0.000 A 
ATOM      9  C   UNL     1      -4.450  -0.871  23.846  0.00  0.00    -0.000 A 
ATOM     10  C   UNL     1      -4.188  -0.547  24.558  0.00  0.00    +0.002 A 
BRANCH   5   4
ATOM      4  C   UNL     1      -3.395  -0.642  25.742  0.00  0.00    +0.099 C 
BRANCH   4   2
ATOM      1  C   UNL     1      -3.037  -1.601  26.740  0.00  0.00    +0.090 C 
ATOM      2  N   UNL     1      -2.817  -1.031  26.185  0.00  0.00    -0.267 NA
ATOM      3  C   UNL     1      -2.020  -0.851  26.072  0.00  0.00    +0.090 C 
ENDBRANCH   4   2
ENDBRANCH   5   4
ENDBRANCH  11  10
BRANCH  19  20
ATOM     20  C   UNL     1      -3.552   1.731  23.910  0.00  0.00    +0.099 C 
BRANCH  20  21
ATOM     21  C   UNL     1      -2.935   1.853  23.377  0.00  0.00    -0.006 A 
ATOM     22  C   UNL     1      -3.095   1.930  22.571  0.00  0.00    -0.003 A 
ATOM     23  C   UNL     1      -2.477   2.053  22.037  0.00  0.00    -0.000 A 
ATOM     24  C   UNL     1      -1.700   2.098  22.310  0.00  0.00    -0.000 A 
ATOM     25  C   UNL     1      -1.540   2.021  23.115  0.00  0.00    -0.000 A 
ATOM     26  C   UNL     1      -2.157   1.898  23.649  0.00  0.00    -0.003 A 
ENDBRANCH  20  21
ENDBRANCH  19  20
TORSDOF 5
ENDMDL
MODEL 6
REMARK VINA RESULT:     -12.4      1.529      3.269
REMARK  Name = 
REMARK  5 active torsions:
REMARK  status: ('A' for Active; 'I' for Inactive)
REMARK    1  A    between atoms: N_2  and  C_4
REMARK    2  A    between atoms: C_4  and  C_5
REMARK    3  A    between atoms: C_10  and  C_11
REMARK    4  A    between atoms: N_19  and  C_20
REMARK    5  A    between atoms: C_20  and  C_21
REMARK                            x       y       z     vdW  Elec       q    Type
REMARK                         _______ _______ _______ _____ _____    ______ ____
ROOT
ATOM     11  C   UNL     1      -2.143   1.934  24.019  0.00  0.00    +0.056 A 
ATOM     12  C   UNL     1      -1.493   2.333  23.704  0.00  0.00    +0.006 A 
ATOM     13  C   UNL     1      -0.777   1.936  23.599  0.00  0.00    +0.013 A 
ATOM     14  C   UNL     1      -0.711   1.142  23.811  0.00  0.00    +0.041 A 
ATOM     15  C   UNL     1      -0.100   0.455  23.823  0.00  0.00    +0.054 C 
ATOM     16  C   UNL     1       0.567   0.309  23.661  0.00  0.00    +0.011 C 
ATOM     17  C   UNL     1      -0.077  -0.082  23.973  0.00  0.00    +0.039 C 
ATOM     18  C   UNL     1      -0.729  -0.716  24.358  0.00  0.00    +0.074 C 
ATOM     19  N   UNL     1      -1.395  -0.214  24.416  0.00  0.00    -0.269 NA
ATOM     27  C   UNL     1      -0.719  -0.170  24.196  0.00  0.00    +0.078 C 
ATOM     28  C   UNL     1      -0.722   0.630  23.963  0.00  0.00    +0.110 C 
ATOM     29  N   UNL     1      -1.361   0.744  24.127  0.00  0.00    -0.299 N 
ATOM     30  C   UNL     1      -2.077   1.140  24.231  0.00  0.00    +0.261 A 
ATOM     31  O   UNL     1      -2.727   0.742  24.547  0.00  0.00    -0.267 OA
ENDROOT
BRANCH  11  10
ATOM      5  C   UNL     1      -2.923   2.919  24.699  0.00  0.00    -0.006 A 
ATOM      6  C   UNL     1      -3.639   3.316  24.804  0.00  0.00    -0.003 A 
ATOM      7  C   UNL     1      -4.288   3.126  24.333  0.00  0.00    -0.000 A 
ATOM      8  C   UNL     1      -4.224   2.539  23.757  0.00  0.00    -0.000 A 
ATOM      9  C   UNL     1      -3.508   2.141  23.652  0.00  0.00    -0.000 A 
ATOM     10  C   UNL     1      -2.858   2.331  24.123  0.00  0.00    +0.002 A 
BRANCH   5   4
ATOM      4  C   UNL     1      -2.274   3.109  25.170  0.00  0.00    +0.099 C 
BRANCH   4   2
ATOM      1  C   UNL     1      -2.630   3.607  26.461  0.00  0.00    +0.090 C 
ATOM      2  N   UNL     1      -2.322   3.734  25.707  0.00  0.00    -0.267 NA
ATOM      3  C   UNL     1      -2.061   4.486  25.489  0.00  0.00    +0.090 C 
ENDBRANCH   4   2
ENDBRANCH   5   4
ENDBRANCH  11  10
BRANCH  19  20
ATOM     20  C   UNL     1      -2.167   0.024  24.584  0.00  0.00    +0.099 C 
BRANCH  20  21
ATOM     21  C   UNL     1      -2.710  -0.520  24.885  0.00  0.00    -0.006 A 
ATOM     22  C   UNL     1      -2.767  -0.639  25.699  0.00  0.00    -0.003 A 
ATOM     23  C   UNL     1      -3.310  -1.184  25.999  0.00  0.00    -0.000 A 
ATOM     24  C   UNL     1      -3.795  -1.608  25.484  0.00  0.00    -0.000 A 
ATOM     25  C   UNL     1      -3.739  -1.489  24.671  0.00  0.00    -0.000 A 
ATOM     26  C   UNL     1      -3.195  -0.945  24.370  0.00  0.00    -0.003 A 
ENDBRANCH  20  21
ENDBRANCH  19  20
TORSDOF 5
ENDMDL
MODEL 7
REMARK VINA RESULT:     -12.2      1.719      3.588
REMARK  Name = 
REMARK  5 active torsions:
REMARK  status: ('A' for Active; 'I' for Inactive)
REMARK    1  A    between atoms: N_2  and  C_4
REMARK    2  A    between atoms: C_4  and  C_5
REMARK    3  A    between atoms: C_10  and  C_11
REMARK    4  A    between atoms: N_19  and  C_20
REMARK    5  A    between atoms: C_20  and  C_21
REMARK                            x       y       z     vdW  Elec       q    Type
REMARK                         _______ _______ _______ _____ _____    ______ ____
ROOT
ATOM     11  C   UNL     1      -0.946   1.718  25.311  0.00  0.00    +0.056 A 
ATOM     12  C   UNL     1      -0.224   2.097  25.433  0.00  0.00    +0.006 A 
ATOM     13  C   UNL     1      -0.183   2.921  25.422  0.00  0.00    +0.013 A 
ATOM     14  C   UNL     1      -0.864   3.366  25.288  0.00  0.00    +0.041 A 
ATOM     15  C   UNL     1      -1.145   4.238  25.218  0.00  0.00    +0.054 C 
ATOM     16  C   UNL     1      -0.906   4.897  25.246  0.00  0.00    +0.011 C 
ATOM     17  C   UNL     1      -1.617   4.520  25.126  0.00  0.00    +0.039 C 
ATOM     18  C   UNL     1      -2.555   4.253  24.962  0.00  0.00    +0.074 C 
ATOM     19  N   UNL     1      -2.472   3.423  24.996  0.00  0.00    -0.269 NA
ATOM     27  C   UNL     1      -2.055   3.997  25.058  0.00  0.00    +0.078 C 
ATOM     28  C   UNL     1      -1.334   3.605  25.198  0.00  0.00    +0.110 C 
ATOM     29  N   UNL     1      -1.587   2.987  25.166  0.00  0.00    -0.299 N 
ATOM     30  C   UNL     1      -1.628   2.163  25.177  0.00  0.00    +0.261 A 
ATOM     31  O   UNL     1      -2.350   1.784  25.055  0.00  0.00    -0.267 OA
ENDROOT
BRANCH  11  10
ATOM      5  C   UNL     1      -0.650   0.457  24.709  0.00  0.00    -0.006 A 
ATOM      6  C   UNL     1      -0.689  -0.367  24.720  0.00  0.00    -0.003 A 
ATOM      7  C   UNL     1      -1.065  -0.753  25.344  0.00  0.00    -0.000 A 
ATOM      8  C   UNL     1      -1.402  -0.317  25.957  0.00  0.00    -0.000 A 
ATOM      9  C   UNL     1      -1.362   0.508  25.946  0.00  0.00    -0.000 A 
ATOM     10  C   UNL     1      -0.986   0.894  25.322  0.00  0.00    +0.002 A 
BRANCH   5   4
ATOM      4  C   UNL     1      -0.274   0.844  24.085  0.00  0.00    +0.099 C 
BRANCH   4   2
ATOM      1  C   UNL     1      -0.466   0.257  22.796  0.00  0.00    +0.090 C 
ATOM      2  N   UNL     1       0.018   0.410  23.447  0.00  0.00    -0.267 NA
ATOM      3  C   UNL     1       0.793   0.128  23.459  0.00  0.00    +0.090 C 
ENDBRANCH   4   2
ENDBRANCH   5   4
ENDBRANCH  11  10
BRANCH  19  20
ATOM     20  C   UNL     1      -2.688   2.626  24.975  0.00  0.00    +0.099 C 
BRANCH  20  21
ATOM     21  C   UNL     1      -3.473   2.415  24.835  0.00  0.00    -0.006 A 
ATOM     22  C   UNL     1      -3.726   2.250  24.068  0.00  0.00    -0.003 A 
ATOM     23  C   UNL     1      -4.512   2.038  23.929  0.00  0.00    -0.000 A 
ATOM     24  C   UNL     1      -5.044   1.993  24.558  0.00  0.00    -0.000 A 
ATOM     25  C   UNL     1      -4.791   2.159  25.325  0.00  0.00    -0.000 A 
ATOM     26  C   UNL     1      -4.005   2.370  25.464  0.00  0.00    -0.003 A 
ENDBRANCH  20  21
ENDBRANCH  19  20
TORSDOF 5
ENDMDL
MODEL 8
REMARK VINA RESULT:     -11.8      1.414      3.297
REMARK  Name = 
REMARK  5 active torsions:
REMARK  status: ('A' for Active; 'I' for Inactive)
REMARK    1  A    between atoms: N_2  and  C_4
REMARK    2  A    between atoms: C_4  and  C_5
REMARK    3  A    between atoms: C_10  and  C_11
REMARK    4  A    between atoms: N_19  and  C_20
REMARK    5  A    between atoms: C_20  and  C_21
REMARK                            x       y       z     vdW  Elec       q    Type
REMARK                         _______ _______ _______ _____ _____    ______ ____
ROOT
ATOM     11  C   UNL     1      -3.244   0.255  23.891  0.00  0.00    +0.056 A 
ATOM     12  C   UNL     1      -2.611   0.357  23.371  0.00  0.00    +0.006 A 
ATOM     13  C   UNL     1      -2.443   1.105  23.066  0.00  0.00    +0.013 A 
ATOM     14  C   UNL     1      -2.908   1.751  23.281  0.00  0.00    +0.041 A 
ATOM     15  C   UNL     1      -2.986   2.655  23.133  0.00  0.00    +0.054 C 
ATOM     16  C   UNL     1      -2.688   3.182  22.777  0.00  0.00    +0.011 C 
ATOM     17  C   UNL     1      -3.312   3.078  23.290  0.00  0.00    +0.039 C 
ATOM     18  C   UNL     1      -4.097   3.155  23.887  0.00  0.00    +0.074 C 
ATOM     19  N   UNL     1      -4.168   2.358  24.127  0.00  0.00    -0.269 NA
ATOM     27  C   UNL     1      -3.744   2.745  23.706  0.00  0.00    +0.078 C 
ATOM     28  C   UNL     1      -3.239   2.134  23.451  0.00  0.00    +0.110 C 
ATOM     29  N   UNL     1      -3.541   1.650  23.800  0.00  0.00    -0.299 N 
ATOM     30  C   UNL     1      -3.709   0.902  24.105  0.00  0.00    +0.261 A 
ATOM     31  O   UNL     1      -4.342   0.800  24.624  0.00  0.00    -0.267 OA
ENDROOT
BRANCH  11  10
ATOM      5  C   UNL     1      -2.899  -0.839  24.741  0.00  0.00    -0.006 A 
ATOM      6  C   UNL     1      -3.066  -1.587  25.046  0.00  0.00    -0.003 A 
ATOM      7  C   UNL     1      -3.744  -1.989  24.804  0.00  0.00    -0.000 A 
ATOM      8  C   UNL     1      -4.257  -1.644  24.258  0.00  0.00    -0.000 A 
ATOM      9  C   UNL     1      -4.090  -0.895  23.953  0.00  0.00    -0.000 A 
ATOM     10  C   UNL     1      -3.411  -0.493  24.195  0.00  0.00    +0.002 A 
BRANCH   5   4
ATOM      4  C   UNL     1      -2.221  -0.437  24.983  0.00  0.00    +0.099 C 
BRANCH   4   2
ATOM      1  C   UNL     1      -1.781  -0.702  26.317  0.00  0.00    +0.090 C 
ATOM      2  N   UNL     1      -1.690  -0.798  25.502  0.00  0.00    -0.267 NA
ATOM      3  C   UNL     1      -1.070  -1.255  25.207  0.00  0.00    +0.090 C 
ENDBRANCH   4   2
ENDBRANCH   5   4
ENDBRANCH  11  10
BRANCH  19  20
ATOM     20  C   UNL     1      -4.470   1.696  24.517  0.00  0.00    +0.099 C 
BRANCH  20  21
ATOM     21  C   UNL     1      -5.130   1.770  25.006  0.00  0.00    -0.006 A 
ATOM     22  C   UNL     1      -5.035   1.971  25.800  0.00  0.00    -0.003 A 
ATOM     23  C   UNL     1      -5.696   2.045  26.289  0.00  0.00    -0.000 A 
ATOM     24  C   UNL     1      -6.451   1.918  25.983  0.00  0.00    -0.000 A 
ATOM     25  C   UNL     1      -6.547   1.718  25.189  0.00  0.00    -0.000 A 
ATOM     26  C   UNL     1      -5.886   1.644  24.700  0.00  0.00    -0.003 A 
ENDBRANCH  20  21
ENDBRANCH  19  20
TORSDOF 5
ENDMDL
