MODEL 1
REMARK VINA RESULT:      -7.6      0.000      0.000
REMARK  Name = 
REMARK  4 active torsions:
REMARK  status: ('A' for Active; 'I' for Inactive)
REMARK    1  A    between atoms: N_4  and  C_5
REMARK    2  A    between atoms: C_5  and  C_6
REMARK    3  A    between atoms: C_9  and  N_10
REMARK    4  A    between atoms: N_10  and  C_11
REMARK                            x       y       z     vdW  Elec       q    Type
REMARK                         _______ _______ _______ _____ _____    ______ ____
ROOT
ATOM      6  C   UNL     1      -3.493   1.490  24.684  0.00  0.00    +0.169 C 
ATOM      7  O   UNL     1      -2.850   1.009  24.498  0.00  0.00    -0.350 OA
ATOM      8  C   UNL     1      -3.116   0.229  24.467  0.00  0.00    +0.162 C 
ATOM      9  C   UNL     1      -3.924   0.228  24.634  0.00  0.00    +0.135 C 
ATOM     15  C   UNL     1      -4.157   1.008  24.768  0.00  0.00    +0.199 C 
ATOM     16  O   UNL     1      -4.920   1.261  24.954  0.00  0.00    -0.219 OA
ENDROOT
BRANCH   6   5
ATOM      5  C   UNL     1      -3.476   2.310  24.770  0.00  0.00    +0.147 C 
BRANCH   5   4
ATOM      1  C   UNL     1      -2.079   3.877  25.370  0.00  0.00    +0.096 C 
ATOM      2  C   UNL     1      -2.761   3.505  25.092  0.00  0.00    +0.242 C 
ATOM      3  O   UNL     1      -3.410   3.957  24.858  0.00  0.00    -0.273 OA
ATOM      4  N   UNL     1      -2.794   2.682  25.048  0.00  0.00    -0.203 NA
ENDBRANCH   5   4
ENDBRANCH   6   5
BRANCH   9  10
ATOM     10  N   UNL     1      -4.412  -0.436  24.662  0.00  0.00    -0.216 NA
BRANCH  10  11
ATOM     11  C   UNL     1      -4.103  -1.183  24.497  0.00  0.00    +0.073 C 
ATOM     12  C   UNL     1      -4.115  -1.689  23.845  0.00  0.00    +0.017 C 
ATOM     13  C   UNL     1      -3.665  -2.239  24.264  0.00  0.00    +0.003 C 
ATOM     14  C   UNL     1      -3.653  -1.734  24.916  0.00  0.00    +0.017 C 
ENDBRANCH  10  11
ENDBRANCH   9  10
TORSDOF 4
ENDMDL
MODEL 2
REMARK VINA RESULT:      -7.3      2.352      2.707
REMARK  Name = 
REMARK  4 active torsions:
REMARK  status: ('A' for Active; 'I' for Inactive)
REMARK    1  A    between atoms: N_4  and  C_5
REMARK    2  A    between atoms: C_5  and  C_6
REMARK    3  A    between atoms: C_9  and  N_10
REMARK    4  A    between atoms: N_10  and  C_11
REMARK                            x       y       z     vdW  Elec       q    Type
REMARK                         _______ _______ _______ _____ _____    ______ ____
ROOT
ATOM      6  C   UNL     1      -1.166   0.160  25.112  0.00  0.00    +0.169 C 
ATOM      7  O   UNL     1      -1.888   0.172  25.509  0.00  0.00    -0.350 OA
ATOM      8  C   UNL     1      -2.272  -0.543  25.361  0.00  0.00    +0.162 C 
ATOM      9  C   UNL     1      -1.786  -0.998  24.873  0.00  0.00    +0.135 C 
ATOM     15  C   UNL     1      -1.102  -0.562  24.719  0.00  0.00    +0.199 C 
ATOM     16  O   UNL     1      -0.466  -0.807  24.254  0.00  0.00    -0.219 OA
ENDROOT
BRANCH   6   5
ATOM      5  C   UNL     1      -0.605   0.765  25.109  0.00  0.00    +0.147 C 
BRANCH   5   4
ATOM      1  C   UNL     1      -0.248   2.691  26.072  0.00  0.00    +0.096 C 
ATOM      2  C   UNL     1      -0.151   2.035  25.581  0.00  0.00    +0.242 C 
ATOM      3  O   UNL     1       0.496   1.993  25.072  0.00  0.00    -0.273 OA
ATOM      4  N   UNL     1      -0.702   1.420  25.600  0.00  0.00    -0.203 NA
ENDBRANCH   5   4
ENDBRANCH   6   5
BRANCH   9  10
ATOM     10  N   UNL     1      -1.954  -1.753  24.589  0.00  0.00    -0.216 NA
BRANCH  10  11
ATOM     11  C   UNL     1      -2.734  -2.022  24.569  0.00  0.00    +0.073 C 
ATOM     12  C   UNL     1      -3.383  -1.895  24.074  0.00  0.00    +0.017 C 
ATOM     13  C   UNL     1      -3.837  -2.402  24.541  0.00  0.00    +0.003 C 
ATOM     14  C   UNL     1      -3.190  -2.528  25.035  0.00  0.00    +0.017 C 
ENDBRANCH  10  11
ENDBRANCH   9  10
TORSDOF 4
ENDMDL
MODEL 3
REMARK VINA RESULT:      -7.2      0.877      4.093
REMARK  Name = 
REMARK  4 active torsions:
REMARK  status: ('A' for Active; 'I' for Inactive)
REMARK    1  A    between atoms: N_4  and  C_5
REMARK    2  A    between atoms: C_5  and  C_6
REMARK    3  A    between atoms: C_9  and  N_10
REMARK    4  A    between atoms: N_10  and  C_11
REMARK                            x       y       z     vdW  Elec       q    Type
REMARK                         _______ _______ _______ _____ _____    ______ ____
ROOT
ATOM      6  C   UNL     1      -3.507   0.994  24.626  0.00  0.00    +0.169 C 
ATOM      7  O   UNL     1      -2.717   1.120  24.824  0.00  0.00    -0.350 OA
ATOM      8  C   UNL     1      -2.606   1.932  24.921  0.00  0.00    +0.162 C 
ATOM      9  C   UNL     1      -3.328   2.307  24.783  0.00  0.00    +0.135 C 
ATOM     15  C   UNL     1      -3.885   1.727  24.600  0.00  0.00    +0.199 C 
ATOM     16  O   UNL     1      -4.680   1.856  24.423  0.00  0.00    -0.219 OA
ENDROOT
BRANCH   6   5
ATOM      5  C   UNL     1      -3.858   0.262  24.479  0.00  0.00    +0.147 C 
BRANCH   5   4
ATOM      1  C   UNL     1      -3.511  -1.850  24.909  0.00  0.00    +0.096 C 
ATOM      2  C   UNL     1      -3.845  -1.162  24.599  0.00  0.00    +0.242 C 
ATOM      3  O   UNL     1      -4.498  -1.210  24.097  0.00  0.00    -0.273 OA
ATOM      4  N   UNL     1      -3.525  -0.425  24.790  0.00  0.00    -0.203 NA
ENDBRANCH   5   4
ENDBRANCH   6   5
BRANCH   9  10
ATOM     10  N   UNL     1      -3.468   3.119  24.820  0.00  0.00    -0.216 NA
BRANCH  10  11
ATOM     11  C   UNL     1      -2.911   3.617  25.170  0.00  0.00    +0.073 C 
ATOM     12  C   UNL     1      -2.230   4.005  24.911  0.00  0.00    +0.017 C 
ATOM     13  C   UNL     1      -2.124   4.323  25.665  0.00  0.00    +0.003 C 
ATOM     14  C   UNL     1      -2.805   3.936  25.924  0.00  0.00    +0.017 C 
ENDBRANCH  10  11
ENDBRANCH   9  10
TORSDOF 4
ENDMDL
