MODEL 1
REMARK VINA RESULT:      -7.8      0.000      0.000
REMARK  Name = 
REMARK  14 active torsions:
REMARK  status: ('A' for Active; 'I' for Inactive)
REMARK    1  A    between atoms: O_2  and  C_3
REMARK    2  A    between atoms: C_5  and  N_6
REMARK    3  A    between atoms: N_9  and  C_10
REMARK    4  A    between atoms: C_14  and  C_15
REMARK    5  A    between atoms: N_17  and  C_18
REMARK    6  A    between atoms: C_18  and  C_19
REMARK    7  A    between atoms: C_18  and  C_28
REMARK    8  A    between atoms: C_19  and  C_20
REMARK    9  A    between atoms: C_20  and  C_21
REMARK   10  A    between atoms: C_21  and  N_22
REMARK   11  A    between atoms: C_23  and  C_25
REMARK   12  A    between atoms: C_25  and  S_26
REMARK   13  A    between atoms: C_31  and  C_33
REMARK   14  A    between atoms: C_33  and  S_34
REMARK                            x       y       z     vdW  Elec       q    Type
REMARK                         _______ _______ _______ _____ _____    ______ ____
ROOT
ATOM     10  C   UNL     1      -0.493   0.167  24.224  0.00  0.00    +0.126 C 
ATOM     11  C   UNL     1      -0.173  -0.506  23.869  0.00  0.00    +0.045 C 
ATOM     12  C   UNL     1       0.567  -0.306  23.564  0.00  0.00    +0.096 C 
ATOM     13  N   UNL     1       0.704   0.490  23.729  0.00  0.00    -0.271 N 
ATOM     14  C   UNL     1       0.049   0.783  24.137  0.00  0.00    +0.174 C 
ATOM     31  C   UNL     1       1.377   0.920  23.523  0.00  0.00    +0.237 C 
ATOM     32  O   UNL     1       1.437   1.717  23.727  0.00  0.00    -0.274 OA
ENDROOT
BRANCH  10   9
ATOM      6  N   UNL     1      -2.561  -0.265  24.773  0.00  0.00    -0.161 NA
ATOM      7  C   UNL     1      -1.828  -0.314  24.398  0.00  0.00    +0.344 C 
ATOM      8  O   UNL     1      -1.696  -0.890  23.824  0.00  0.00    -0.249 OA
ATOM      9  N   UNL     1      -1.227   0.215  24.599  0.00  0.00    -0.186 NA
BRANCH   6   5
ATOM      3  C   UNL     1      -3.753  -2.091  24.674  0.00  0.00    +0.140 A 
ATOM      4  C   UNL     1      -3.152  -1.562  24.874  0.00  0.00    +0.054 A 
ATOM      5  C   UNL     1      -3.162  -0.793  24.574  0.00  0.00    +0.078 A 
ATOM     36  C   UNL     1      -3.774  -0.554  24.075  0.00  0.00    +0.017 A 
ATOM     37  C   UNL     1      -4.375  -1.083  23.876  0.00  0.00    +0.004 A 
ATOM     38  C   UNL     1      -4.365  -1.851  24.175  0.00  0.00    +0.037 A 
BRANCH   3   2
ATOM      1  C   UNL     1      -3.637  -3.499  24.464  0.00  0.00    +0.252 C 
ATOM      2  O   UNL     1      -3.742  -2.860  24.974  0.00  0.00    -0.471 OA
ENDBRANCH   3   2
ENDBRANCH   6   5
ENDBRANCH  10   9
BRANCH  14  15
ATOM     15  C   UNL     1      -0.047   1.555  24.410  0.00  0.00    +0.262 C 
ATOM     16  O   UNL     1      -0.027   2.186  23.879  0.00  0.00    -0.271 OA
ATOM     17  N   UNL     1      -0.164   1.697  25.214  0.00  0.00    -0.196 NA
BRANCH  17  18
ATOM     18  C   UNL     1      -0.260   2.470  25.488  0.00  0.00    +0.174 C 
BRANCH  18  28
ATOM     28  C   UNL     1       0.246   2.768  26.067  0.00  0.00    +0.281 C 
ATOM     29  N   UNL     1       0.359   2.352  26.771  0.00  0.00    -0.086 NA
ATOM     30  O   UNL     1       0.641   3.482  25.943  0.00  0.00    -0.270 OA
ENDBRANCH  18  28
BRANCH  18  19
ATOM     19  C   UNL     1      -0.862   2.944  25.184  0.00  0.00    +0.033 C 
BRANCH  19  20
ATOM     20  C   UNL     1      -1.503   3.152  25.658  0.00  0.00    +0.026 C 
BRANCH  20  21
ATOM     21  C   UNL     1      -2.186   3.463  25.316  0.00  0.00    +0.115 C 
BRANCH  21  22
ATOM     22  N   UNL     1      -2.917   3.358  25.684  0.00  0.00    -0.205 NA
ATOM     23  C   UNL     1      -3.614   3.507  25.269  0.00  0.00    +0.252 C 
ATOM     24  O   UNL     1      -3.580   3.761  24.485  0.00  0.00    -0.272 OA
BRANCH  23  25
ATOM     25  C   UNL     1      -4.344   3.402  25.637  0.00  0.00    +0.144 C 
BRANCH  25  26
ATOM     26  S   UNL     1      -4.948   2.995  25.248  0.00  0.00    -0.130 S 
ATOM     27  C   UNL     1      -5.623   2.764  25.662  0.00  0.00    +0.070 C 
ENDBRANCH  25  26
ENDBRANCH  23  25
ENDBRANCH  21  22
ENDBRANCH  20  21
ENDBRANCH  19  20
ENDBRANCH  18  19
ENDBRANCH  17  18
ENDBRANCH  14  15
BRANCH  31  33
ATOM     33  C   UNL     1       1.992   0.551  23.113  0.00  0.00    +0.143 C 
BRANCH  33  34
ATOM     34  S   UNL     1       2.715   0.937  23.020  0.00  0.00    -0.130 S 
ATOM     35  C   UNL     1       3.310   0.593  22.563  0.00  0.00    +0.070 C 
ENDBRANCH  33  34
ENDBRANCH  31  33
TORSDOF 14
ENDMDL
MODEL 2
REMARK VINA RESULT:      -7.0      1.352      4.732
REMARK  Name = 
REMARK  14 active torsions:
REMARK  status: ('A' for Active; 'I' for Inactive)
REMARK    1  A    between atoms: O_2  and  C_3
REMARK    2  A    between atoms: C_5  and  N_6
REMARK    3  A    between atoms: N_9  and  C_10
REMARK    4  A    between atoms: C_14  and  C_15
REMARK    5  A    between atoms: N_17  and  C_18
REMARK    6  A    between atoms: C_18  and  C_19
REMARK    7  A    between atoms: C_18  and  C_28
REMARK    8  A    between atoms: C_19  and  C_20
REMARK    9  A    between atoms: C_20  and  C_21
REMARK   10  A    between atoms: C_21  and  N_22
REMARK   11  A    between atoms: C_23  and  C_25
REMARK   12  A    between atoms: C_25  and  S_26
REMARK   13  A    between atoms: C_31  and  C_33
REMARK   14  A    between atoms: C_33  and  S_34
REMARK                            x       y       z     vdW  Elec       q    Type
REMARK                         _______ _______ _______ _____ _____    ______ ____
ROOT
ATOM     10  C   UNL     1      -4.175   1.488  24.465  0.00  0.00    +0.126 C 
ATOM     11  C   UNL     1      -4.964   1.376  24.678  0.00  0.00    +0.045 C 
ATOM     12  C   UNL     1      -5.250   2.088  24.980  0.00  0.00    +0.096 C 
ATOM     13  N   UNL     1      -4.638   2.640  24.954  0.00  0.00    -0.271 N 
ATOM     14  C   UNL     1      -3.973   2.270  24.635  0.00  0.00    +0.174 C 
ATOM     31  C   UNL     1      -4.683   3.426  25.202  0.00  0.00    +0.237 C 
ATOM     32  O   UNL     1      -4.022   3.916  25.141  0.00  0.00    -0.274 OA
ENDROOT
BRANCH  10   9
ATOM      6  N   UNL     1      -3.314  -0.452  23.956  0.00  0.00    -0.161 NA
ATOM      7  C   UNL     1      -3.814   0.117  24.282  0.00  0.00    +0.344 C 
ATOM      8  O   UNL     1      -4.451  -0.114  24.750  0.00  0.00    -0.249 OA
ATOM      9  N   UNL     1      -3.675   0.918  24.139  0.00  0.00    -0.186 NA
BRANCH   6   5
ATOM      3  C   UNL     1      -3.050  -2.492  24.685  0.00  0.00    +0.140 A 
ATOM      4  C   UNL     1      -2.912  -1.691  24.542  0.00  0.00    +0.054 A 
ATOM      5  C   UNL     1      -3.452  -1.253  24.098  0.00  0.00    +0.078 A 
ATOM     36  C   UNL     1      -4.129  -1.615  23.796  0.00  0.00    +0.017 A 
ATOM     37  C   UNL     1      -4.266  -2.416  23.939  0.00  0.00    +0.004 A 
ATOM     38  C   UNL     1      -3.727  -2.855  24.383  0.00  0.00    +0.037 A 
BRANCH   3   2
ATOM      1  C   UNL     1      -1.700  -2.834  25.006  0.00  0.00    +0.252 C 
ATOM      2  O   UNL     1      -2.510  -2.931  25.129  0.00  0.00    -0.471 OA
ENDBRANCH   3   2
ENDBRANCH   6   5
ENDBRANCH  10   9
BRANCH  14  15
ATOM     15  C   UNL     1      -3.237   2.619  24.509  0.00  0.00    +0.262 C 
ATOM     16  O   UNL     1      -3.123   3.117  23.862  0.00  0.00    -0.271 OA
ATOM     17  N   UNL     1      -2.615   2.470  25.030  0.00  0.00    -0.196 NA
BRANCH  17  18
ATOM     18  C   UNL     1      -1.878   2.820  24.905  0.00  0.00    +0.174 C 
BRANCH  18  28
ATOM     28  C   UNL     1      -1.610   3.411  25.414  0.00  0.00    +0.281 C 
ATOM     29  N   UNL     1      -1.383   4.144  25.113  0.00  0.00    -0.086 NA
ATOM     30  O   UNL     1      -1.568   3.268  26.226  0.00  0.00    -0.270 OA
ENDBRANCH  18  28
BRANCH  18  19
ATOM     19  C   UNL     1      -1.409   2.578  24.271  0.00  0.00    +0.033 C 
BRANCH  19  20
ATOM     20  C   UNL     1      -0.710   2.164  24.409  0.00  0.00    +0.026 C 
BRANCH  20  21
ATOM     21  C   UNL     1      -0.479   1.561  23.895  0.00  0.00    +0.115 C 
BRANCH  21  22
ATOM     22  N   UNL     1       0.321   1.384  23.800  0.00  0.00    -0.205 NA
ATOM     23  C   UNL     1       0.548   0.653  23.491  0.00  0.00    +0.252 C 
ATOM     24  O   UNL     1      -0.025   0.099  23.278  0.00  0.00    -0.272 OA
BRANCH  23  25
ATOM     25  C   UNL     1       1.348   0.476  23.396  0.00  0.00    +0.144 C 
BRANCH  25  26
ATOM     26  S   UNL     1       1.600   0.043  22.740  0.00  0.00    -0.130 S 
ATOM     27  C   UNL     1       2.400   0.020  22.543  0.00  0.00    +0.070 C 
ENDBRANCH  25  26
ENDBRANCH  23  25
ENDBRANCH  21  22
ENDBRANCH  20  21
ENDBRANCH  19  20
ENDBRANCH  18  19
ENDBRANCH  17  18
ENDBRANCH  14  15
BRANCH  31  33
ATOM     33  C   UNL     1      -5.389   3.721  25.511  0.00  0.00    +0.143 C 
BRANCH  33  34
ATOM     34  S   UNL     1      -5.450   4.520  25.707  0.00  0.00    -0.130 S 
ATOM     35  C   UNL     1      -6.187   4.892  25.698  0.00  0.00    +0.070 C 
ENDBRANCH  33  34
ENDBRANCH  31  33
TORSDOF 14
ENDMDL
MODEL 3
REMARK VINA RESULT:      -6.9      1.359      3.914
REMARK  Name = 
REMARK  14 active torsions:
REMARK  status: ('A' for Active; 'I' for Inactive)
REMARK    1  A    between atoms: O_2  and  C_3
REMARK    2  A    between atoms: C_5  and  N_6
REMARK    3  A    between atoms: N_9  and  C_10
REMARK    4  A    between atoms: C_14  and  C_15
REMARK    5  A    between atoms: N_17  and  C_18
REMARK    6  A    between atoms: C_18  and  C_19
REMARK    7  A    between atoms: C_18  and  C_28
REMARK    8  A    between atoms: C_19  and  C_20
REMARK    9  A    between atoms: C_20  and  C_21
REMARK   10  A    between atoms: C_21  and  N_22
REMARK   11  A    between atoms: C_23  and  C_25
REMARK   12  A    between atoms: C_25  and  S_26
REMARK   13  A    between atoms: C_31  and  C_33
REMARK   14  A    between atoms: C_33  and  S_34
REMARK                            x       y       z     vdW  Elec       q    Type
REMARK                         _______ _______ _______ _____ _____    ______ ____
ROOT
ATOM     10  C   UNL     1      -0.095   1.470  24.541  0.00  0.00    +0.126 C 
ATOM     11  C   UNL     1       0.559   1.948  24.389  0.00  0.00    +0.045 C 
ATOM     12  C   UNL     1       1.066   1.536  23.886  0.00  0.00    +0.096 C 
ATOM     13  N   UNL     1       0.725   0.802  23.727  0.00  0.00    -0.271 N 
ATOM     14  C   UNL     1       0.007   0.760  24.132  0.00  0.00    +0.174 C 
ATOM     31  C   UNL     1       1.045   0.212  23.248  0.00  0.00    +0.237 C 
ATOM     32  O   UNL     1       0.638  -0.498  23.139  0.00  0.00    -0.274 OA
ENDROOT
BRANCH  10   9
ATOM      6  N   UNL     1      -1.728   2.608  25.437  0.00  0.00    -0.161 NA
ATOM      7  C   UNL     1      -1.084   2.413  24.960  0.00  0.00    +0.344 C 
ATOM      8  O   UNL     1      -0.786   2.964  24.424  0.00  0.00    -0.249 OA
ATOM      9  N   UNL     1      -0.739   1.665  25.019  0.00  0.00    -0.186 NA
BRANCH   6   5
ATOM      3  C   UNL     1      -3.143   4.192  24.935  0.00  0.00    +0.140 A 
ATOM      4  C   UNL     1      -2.798   3.445  24.993  0.00  0.00    +0.054 A 
ATOM      5  C   UNL     1      -2.073   3.355  25.378  0.00  0.00    +0.078 A 
ATOM     36  C   UNL     1      -1.695   4.012  25.704  0.00  0.00    +0.017 A 
ATOM     37  C   UNL     1      -2.041   4.758  25.645  0.00  0.00    +0.004 A 
ATOM     38  C   UNL     1      -2.765   4.849  25.261  0.00  0.00    +0.037 A 
BRANCH   3   2
ATOM      1  C   UNL     1      -3.919   4.162  23.735  0.00  0.00    +0.252 C 
ATOM      2  O   UNL     1      -3.868   4.282  24.550  0.00  0.00    -0.471 OA
ENDBRANCH   3   2
ENDBRANCH   6   5
ENDBRANCH  10   9
BRANCH  14  15
ATOM     15  C   UNL     1      -0.516   0.123  24.128  0.00  0.00    +0.262 C 
ATOM     16  O   UNL     1      -0.896  -0.094  23.429  0.00  0.00    -0.271 OA
ATOM     17  N   UNL     1      -0.660  -0.298  24.823  0.00  0.00    -0.196 NA
BRANCH  17  18
ATOM     18  C   UNL     1      -1.183  -0.935  24.819  0.00  0.00    +0.174 C 
BRANCH  18  28
ATOM     28  C   UNL     1      -0.929  -1.679  25.072  0.00  0.00    +0.281 C 
ATOM     29  N   UNL     1      -1.160  -2.356  24.662  0.00  0.00    -0.086 NA
ATOM     30  O   UNL     1      -0.443  -1.745  25.736  0.00  0.00    -0.270 OA
ENDBRANCH  18  28
BRANCH  18  19
ATOM     19  C   UNL     1      -1.960  -0.831  24.564  0.00  0.00    +0.033 C 
BRANCH  19  20
ATOM     20  C   UNL     1      -2.578  -0.840  25.109  0.00  0.00    +0.026 C 
BRANCH  20  21
ATOM     21  C   UNL     1      -3.343  -0.643  24.870  0.00  0.00    +0.115 C 
BRANCH  21  22
ATOM     22  N   UNL     1      -3.806  -0.145  25.335  0.00  0.00    -0.205 NA
ATOM     23  C   UNL     1      -4.476   0.215  25.015  0.00  0.00    +0.252 C 
ATOM     24  O   UNL     1      -4.682   0.076  24.229  0.00  0.00    -0.272 OA
BRANCH  23  25
ATOM     25  C   UNL     1      -4.939   0.714  25.481  0.00  0.00    +0.144 C 
BRANCH  25  26
ATOM     26  S   UNL     1      -5.538   1.165  25.135  0.00  0.00    -0.130 S 
ATOM     27  C   UNL     1      -5.970   1.697  25.592  0.00  0.00    +0.070 C 
ENDBRANCH  25  26
ENDBRANCH  23  25
ENDBRANCH  21  22
ENDBRANCH  20  21
ENDBRANCH  19  20
ENDBRANCH  18  19
ENDBRANCH  17  18
ENDBRANCH  14  15
BRANCH  31  33
ATOM     33  C   UNL     1       1.772   0.332  22.876  0.00  0.00    +0.143 C 
BRANCH  33  34
ATOM     34  S   UNL     1       2.076  -0.244  22.369  0.00  0.00    -0.130 S 
ATOM     35  C   UNL     1       2.798  -0.119  21.989  0.00  0.00    +0.070 C 
ENDBRANCH  33  34
ENDBRANCH  31  33
TORSDOF 14
ENDMDL
MODEL 4
REMARK VINA RESULT:      -6.4      1.718      4.508
REMARK  Name = 
REMARK  14 active torsions:
REMARK  status: ('A' for Active; 'I' for Inactive)
REMARK    1  A    between atoms: O_2  and  C_3
REMARK    2  A    between atoms: C_5  and  N_6
REMARK    3  A    between atoms: N_9  and  C_10
REMARK    4  A    between atoms: C_14  and  C_15
REMARK    5  A    between atoms: N_17  and  C_18
REMARK    6  A    between atoms: C_18  and  C_19
REMARK    7  A    between atoms: C_18  and  C_28
REMARK    8  A    between atoms: C_19  and  C_20
REMARK    9  A    between atoms: C_20  and  C_21
REMARK   10  A    between atoms: C_21  and  N_22
REMARK   11  A    between atoms: C_23  and  C_25
REMARK   12  A    between atoms: C_25  and  S_26
REMARK   13  A    between atoms: C_31  and  C_33
REMARK   14  A    between atoms: C_33  and  S_34
REMARK                            x       y       z     vdW  Elec       q    Type
REMARK                         _______ _______ _______ _____ _____    ______ ____
ROOT
ATOM     10  C   UNL     1      -0.042   0.264  24.004  0.00  0.00    +0.126 C 
ATOM     11  C   UNL     1      -0.116  -0.519  23.754  0.00  0.00    +0.045 C 
ATOM     12  C   UNL     1      -0.777  -0.845  24.124  0.00  0.00    +0.096 C 
ATOM     13  N   UNL     1      -1.112  -0.263  24.604  0.00  0.00    -0.271 N 
ATOM     14  C   UNL     1      -0.659   0.422  24.530  0.00  0.00    +0.174 C 
ATOM     31  C   UNL     1      -1.783  -0.351  25.075  0.00  0.00    +0.237 C 
ATOM     32  O   UNL     1      -2.056   0.283  25.528  0.00  0.00    -0.274 OA
ENDROOT
BRANCH  10   9
ATOM      6  N   UNL     1       1.838   1.045  23.219  0.00  0.00    -0.161 NA
ATOM      7  C   UNL     1       1.252   0.514  23.453  0.00  0.00    +0.344 C 
ATOM      8  O   UNL     1       1.375  -0.297  23.372  0.00  0.00    -0.249 OA
ATOM      9  N   UNL     1       0.544   0.795  23.769  0.00  0.00    -0.186 NA
BRANCH   6   5
ATOM      3  C   UNL     1       3.971   0.657  22.962  0.00  0.00    +0.140 A 
ATOM      4  C   UNL     1       3.262   0.937  23.278  0.00  0.00    +0.054 A 
ATOM      5  C   UNL     1       2.547   0.765  22.903  0.00  0.00    +0.078 A 
ATOM     36  C   UNL     1       2.541   0.314  22.213  0.00  0.00    +0.017 A 
ATOM     37  C   UNL     1       3.251   0.034  21.897  0.00  0.00    +0.004 A 
ATOM     38  C   UNL     1       3.965   0.206  22.272  0.00  0.00    +0.037 A 
BRANCH   3   2
ATOM      1  C   UNL     1       5.218   0.222  23.508  0.00  0.00    +0.252 C 
ATOM      2  O   UNL     1       4.686   0.829  23.337  0.00  0.00    -0.471 OA
ENDBRANCH   3   2
ENDBRANCH   6   5
ENDBRANCH  10   9
BRANCH  14  15
ATOM     15  C   UNL     1      -0.796   1.139  24.913  0.00  0.00    +0.262 C 
ATOM     16  O   UNL     1      -0.669   1.203  25.726  0.00  0.00    -0.271 OA
ATOM     17  N   UNL     1      -1.061   1.792  24.485  0.00  0.00    -0.196 NA
BRANCH  17  18
ATOM     18  C   UNL     1      -1.199   2.510  24.868  0.00  0.00    +0.174 C 
BRANCH  18  28
ATOM     28  C   UNL     1      -0.618   3.096  24.867  0.00  0.00    +0.281 C 
ATOM     29  N   UNL     1      -0.447   3.507  24.172  0.00  0.00    -0.086 NA
ATOM     30  O   UNL     1      -0.207   3.271  25.561  0.00  0.00    -0.270 OA
ENDBRANCH  18  28
BRANCH  18  19
ATOM     19  C   UNL     1      -1.916   2.642  25.252  0.00  0.00    +0.033 C 
BRANCH  19  20
ATOM     20  C   UNL     1      -2.509   3.079  24.880  0.00  0.00    +0.026 C 
BRANCH  20  21
ATOM     21  C   UNL     1      -3.232   3.199  25.258  0.00  0.00    +0.115 C 
BRANCH  21  22
ATOM     22  N   UNL     1      -3.924   2.888  24.934  0.00  0.00    -0.205 NA
ATOM     23  C   UNL     1      -4.645   2.996  25.321  0.00  0.00    +0.252 C 
ATOM     24  O   UNL     1      -4.674   3.414  26.031  0.00  0.00    -0.272 OA
BRANCH  23  25
ATOM     25  C   UNL     1      -5.337   2.685  24.997  0.00  0.00    +0.144 C 
BRANCH  25  26
ATOM     26  S   UNL     1      -5.780   2.133  25.422  0.00  0.00    -0.130 S 
ATOM     27  C   UNL     1      -6.381   1.711  25.048  0.00  0.00    +0.070 C 
ENDBRANCH  25  26
ENDBRANCH  23  25
ENDBRANCH  21  22
ENDBRANCH  20  21
ENDBRANCH  19  20
ENDBRANCH  18  19
ENDBRANCH  17  18
ENDBRANCH  14  15
BRANCH  31  33
ATOM     33  C   UNL     1      -2.182  -1.073  25.094  0.00  0.00    +0.143 C 
BRANCH  33  34
ATOM     34  S   UNL     1      -2.927  -1.124  25.445  0.00  0.00    -0.130 S 
ATOM     35  C   UNL     1      -3.361  -1.824  25.394  0.00  0.00    +0.070 C 
ENDBRANCH  33  34
ENDBRANCH  31  33
TORSDOF 14
ENDMDL
MODEL 5
REMARK VINA RESULT:      -6.1      1.874      4.645
REMARK  Name = 
REMARK  14 active torsions:
REMARK  status: ('A' for Active; 'I' for Inactive)
REMARK    1  A    between atoms: O_2  and  C_3
REMARK    2  A    between atoms: C_5  and  N_6
REMARK    3  A    between atoms: N_9  and  C_10
REMARK    4  A    between atoms: C_14  and  C_15
REMARK    5  A    between atoms: N_17  and  C_18
REMARK    6  A    between atoms: C_18  and  C_19
REMARK    7  A    between atoms: C_18  and  C_28
REMARK    8  A    between atoms: C_19  and  C_20
REMARK    9  A    between atoms: C_20  and  C_21
REMARK   10  A    between atoms: C_21  and  N_22
REMARK   11  A    between atoms: C_23  and  C_25
REMARK   12  A    between atoms: C_25  and  S_26
REMARK   13  A    between atoms: C_31  and  C_33
REMARK   14  A    between atoms: C_33  and  S_34
REMARK                            x       y       z     vdW  Elec       q    Type
REMARK                         _______ _______ _______ _____ _____    ______ ____
ROOT
ATOM     10  C   UNL     1      -3.459   0.160  24.261  0.00  0.00    +0.126 C 
ATOM     11  C   UNL     1      -4.190  -0.174  24.073  0.00  0.00    +0.045 C 
ATOM     12  C   UNL     1      -4.141  -0.987  24.202  0.00  0.00    +0.096 C 
ATOM     13  N   UNL     1      -3.379  -1.157  24.469  0.00  0.00    -0.271 N 
ATOM     14  C   UNL     1      -2.958  -0.448  24.506  0.00  0.00    +0.174 C 
ATOM     31  C   UNL     1      -3.088  -1.903  24.666  0.00  0.00    +0.237 C 
ATOM     32  O   UNL     1      -2.311  -1.988  24.927  0.00  0.00    -0.274 OA
ENDROOT
BRANCH  10   9
ATOM      6  N   UNL     1      -3.582   2.328  24.473  0.00  0.00    -0.161 NA
ATOM      7  C   UNL     1      -3.777   1.528  24.522  0.00  0.00    +0.344 C 
ATOM      8  O   UNL     1      -4.483   1.297  24.879  0.00  0.00    -0.249 OA
ATOM      9  N   UNL     1      -3.265   0.960  24.213  0.00  0.00    -0.186 NA
BRANCH   6   5
ATOM      3  C   UNL     1      -4.520   3.714  25.874  0.00  0.00    +0.140 A 
ATOM      4  C   UNL     1      -4.009   3.145  25.565  0.00  0.00    +0.054 A 
ATOM      5  C   UNL     1      -4.093   2.897  24.782  0.00  0.00    +0.078 A 
ATOM     36  C   UNL     1      -4.688   3.218  24.310  0.00  0.00    +0.017 A 
ATOM     37  C   UNL     1      -5.199   3.787  24.619  0.00  0.00    +0.004 A 
ATOM     38  C   UNL     1      -5.115   4.035  25.401  0.00  0.00    +0.037 A 
BRANCH   3   2
ATOM      1  C   UNL     1      -3.705   4.233  26.927  0.00  0.00    +0.252 C 
ATOM      2  O   UNL     1      -4.436   3.962  26.657  0.00  0.00    -0.471 OA
ENDBRANCH   3   2
ENDBRANCH   6   5
ENDBRANCH  10   9
BRANCH  14  15
ATOM     15  C   UNL     1      -2.174  -0.362  24.746  0.00  0.00    +0.262 C 
ATOM     16  O   UNL     1      -1.973  -0.455  25.541  0.00  0.00    -0.271 OA
ATOM     17  N   UNL     1      -1.589  -0.183  24.191  0.00  0.00    -0.196 NA
BRANCH  17  18
ATOM     18  C   UNL     1      -0.804  -0.096  24.431  0.00  0.00    +0.174 C 
BRANCH  18  28
ATOM     28  C   UNL     1      -0.231  -0.625  24.162  0.00  0.00    +0.281 C 
ATOM     29  N   UNL     1      -0.046  -0.661  23.359  0.00  0.00    -0.086 NA
ATOM     30  O   UNL     1       0.158  -1.119  24.697  0.00  0.00    -0.270 OA
ENDBRANCH  18  28
BRANCH  18  19
ATOM     19  C   UNL     1      -0.593   0.518  24.938  0.00  0.00    +0.033 C 
BRANCH  19  20
ATOM     20  C   UNL     1      -0.153   1.155  24.653  0.00  0.00    +0.026 C 
BRANCH  20  21
ATOM     21  C   UNL     1      -0.120   1.859  25.083  0.00  0.00    +0.115 C 
BRANCH  21  22
ATOM     22  N   UNL     1      -0.195   2.583  24.695  0.00  0.00    -0.205 NA
ATOM     23  C   UNL     1      -0.364   3.266  25.125  0.00  0.00    +0.252 C 
ATOM     24  O   UNL     1      -0.458   3.225  25.944  0.00  0.00    -0.272 OA
BRANCH  23  25
ATOM     25  C   UNL     1      -0.439   3.990  24.738  0.00  0.00    +0.144 C 
BRANCH  25  26
ATOM     26  S   UNL     1      -0.755   4.641  25.135  0.00  0.00    -0.130 S 
ATOM     27  C   UNL     1      -1.002   5.303  24.712  0.00  0.00    +0.070 C 
ENDBRANCH  25  26
ENDBRANCH  23  25
ENDBRANCH  21  22
ENDBRANCH  20  21
ENDBRANCH  19  20
ENDBRANCH  18  19
ENDBRANCH  17  18
ENDBRANCH  14  15
BRANCH  31  33
ATOM     33  C   UNL     1      -3.577  -2.566  24.601  0.00  0.00    +0.143 C 
BRANCH  33  34
ATOM     34  S   UNL     1      -3.246  -3.321  24.587  0.00  0.00    -0.130 S 
ATOM     35  C   UNL     1      -3.633  -3.933  24.190  0.00  0.00    +0.070 C 
ENDBRANCH  33  34
ENDBRANCH  31  33
TORSDOF 14
ENDMDL
MODEL 6
REMARK VINA RESULT:      -5.9      1.955      4.655
REMARK  Name = 
REMARK  14 active torsions:
REMARK  status: ('A' for Active; 'I' for Inactive)
REMARK    1  A    between atoms: O_2  and  C_3
REMARK    2  A    between atoms: C_5  and  N_6
REMARK    3  A    between atoms: N_9  and  C_10
REMARK    4  A    between atoms: C_14  and  C_15
REMARK    5  A    between atoms: N_17  and  C_18
REMARK    6  A    between atoms: C_18  and  C_19
REMARK    7  A    between atoms: C_18  and  C_28
REMARK    8  A    between atoms: C_19  and  C_20
REMARK    9  A    between atoms: C_20  and  C_21
REMARK   10  A    between atoms: C_21  and  N_22
REMARK   11  A    between atoms: C_23  and  C_25
REMARK   12  A    between atoms: C_25  and  S_26
REMARK   13  A    between atoms: C_31  and  C_33
REMARK   14  A    between atoms: C_33  and  S_34
REMARK                            x       y       z     vdW  Elec       q    Type
REMARK                         _______ _______ _______ _____ _____    ______ ____
ROOT
ATOM     10  C   UNL     1      -1.425   0.682  24.567  0.00  0.00    +0.126 C 
ATOM     11  C   UNL     1      -0.603   0.702  24.501  0.00  0.00    +0.045 C 
ATOM     12  C   UNL     1      -0.315  -0.053  24.667  0.00  0.00    +0.096 C 
ATOM     13  N   UNL     1      -0.959  -0.540  24.836  0.00  0.00    -0.271 N 
ATOM     14  C   UNL     1      -1.645  -0.086  24.775  0.00  0.00    +0.174 C 
ATOM     31  C   UNL     1      -0.924  -1.340  25.033  0.00  0.00    +0.237 C 
ATOM     32  O   UNL     1      -1.618  -1.758  25.188  0.00  0.00    -0.274 OA
ENDROOT
BRANCH  10   9
ATOM      6  N   UNL     1      -2.294   2.681  24.685  0.00  0.00    -0.161 NA
ATOM      7  C   UNL     1      -1.782   2.045  24.805  0.00  0.00    +0.344 C 
ATOM      8  O   UNL     1      -1.116   2.137  25.282  0.00  0.00    -0.249 OA
ATOM      9  N   UNL     1      -1.937   1.318  24.447  0.00  0.00    -0.186 NA
BRANCH   6   5
ATOM      3  C   UNL     1      -1.615   4.735  24.971  0.00  0.00    +0.140 A 
ATOM      4  C   UNL     1      -1.769   4.008  24.613  0.00  0.00    +0.054 A 
ATOM      5  C   UNL     1      -2.140   3.408  25.042  0.00  0.00    +0.078 A 
ATOM     36  C   UNL     1      -2.356   3.536  25.828  0.00  0.00    +0.017 A 
ATOM     37  C   UNL     1      -2.202   4.264  26.185  0.00  0.00    +0.004 A 
ATOM     38  C   UNL     1      -1.831   4.863  25.756  0.00  0.00    +0.037 A 
BRANCH   3   2
ATOM      1  C   UNL     1      -0.431   5.455  24.619  0.00  0.00    +0.252 C 
ATOM      2  O   UNL     1      -1.244   5.335  24.542  0.00  0.00    -0.471 OA
ENDBRANCH   3   2
ENDBRANCH   6   5
ENDBRANCH  10   9
BRANCH  14  15
ATOM     15  C   UNL     1      -2.415  -0.352  24.898  0.00  0.00    +0.262 C 
ATOM     16  O   UNL     1      -2.664  -0.557  25.658  0.00  0.00    -0.271 OA
ATOM     17  N   UNL     1      -2.938  -0.414  24.263  0.00  0.00    -0.196 NA
BRANCH  17  18
ATOM     18  C   UNL     1      -3.710  -0.680  24.386  0.00  0.00    +0.174 C 
BRANCH  18  28
ATOM     28  C   UNL     1      -3.987  -1.343  23.980  0.00  0.00    +0.281 C 
ATOM     29  N   UNL     1      -4.278  -1.992  24.397  0.00  0.00    -0.086 NA
ATOM     30  O   UNL     1      -3.973  -1.356  23.154  0.00  0.00    -0.270 OA
ENDBRANCH  18  28
BRANCH  18  19
ATOM     19  C   UNL     1      -4.203  -0.285  24.915  0.00  0.00    +0.033 C 
BRANCH  19  20
ATOM     20  C   UNL     1      -4.820   0.184  24.632  0.00  0.00    +0.026 C 
BRANCH  20  21
ATOM     21  C   UNL     1      -5.221   0.692  25.144  0.00  0.00    +0.115 C 
BRANCH  21  22
ATOM     22  N   UNL     1      -5.380   1.468  24.915  0.00  0.00    -0.205 NA
ATOM     23  C   UNL     1      -5.738   1.990  25.444  0.00  0.00    +0.252 C 
ATOM     24  O   UNL     1      -5.938   1.734  26.203  0.00  0.00    -0.272 OA
BRANCH  23  25
ATOM     25  C   UNL     1      -5.897   2.765  25.216  0.00  0.00    +0.144 C 
BRANCH  25  26
ATOM     26  S   UNL     1      -5.827   3.380  25.762  0.00  0.00    -0.130 S 
ATOM     27  C   UNL     1      -5.812   4.163  25.503  0.00  0.00    +0.070 C 
ENDBRANCH  25  26
ENDBRANCH  23  25
ENDBRANCH  21  22
ENDBRANCH  20  21
ENDBRANCH  19  20
ENDBRANCH  18  19
ENDBRANCH  17  18
ENDBRANCH  14  15
BRANCH  31  33
ATOM     33  C   UNL     1      -0.194  -1.723  25.074  0.00  0.00    +0.143 C 
BRANCH  33  34
ATOM     34  S   UNL     1      -0.150  -2.499  25.349  0.00  0.00    -0.130 S 
ATOM     35  C   UNL     1       0.586  -2.858  25.457  0.00  0.00    +0.070 C 
ENDBRANCH  33  34
ENDBRANCH  31  33
TORSDOF 14
ENDMDL
MODEL 7
REMARK VINA RESULT:      -5.7      1.820      4.972
REMARK  Name = 
REMARK  14 active torsions:
REMARK  status: ('A' for Active; 'I' for Inactive)
REMARK    1  A    between atoms: O_2  and  C_3
REMARK    2  A    between atoms: C_5  and  N_6
REMARK    3  A    between atoms: N_9  and  C_10
REMARK    4  A    between atoms: C_14  and  C_15
REMARK    5  A    between atoms: N_17  and  C_18
REMARK    6  A    between atoms: C_18  and  C_19
REMARK    7  A    between atoms: C_18  and  C_28
REMARK    8  A    between atoms: C_19  and  C_20
REMARK    9  A    between atoms: C_20  and  C_21
REMARK   10  A    between atoms: C_21  and  N_22
REMARK   11  A    between atoms: C_23  and  C_25
REMARK   12  A    between atoms: C_25  and  S_26
REMARK   13  A    between atoms: C_31  and  C_33
REMARK   14  A    between atoms: C_33  and  S_34
REMARK                            x       y       z     vdW  Elec       q    Type
REMARK                         _______ _______ _______ _____ _____    ______ ____
ROOT
ATOM     10  C   UNL     1       0.353   1.491  24.118  0.00  0.00    +0.126 C 
ATOM     11  C   UNL     1       0.529   2.278  23.943  0.00  0.00    +0.045 C 
ATOM     12  C   UNL     1      -0.014   2.756  24.339  0.00  0.00    +0.096 C 
ATOM     13  N   UNL     1      -0.527   2.265  24.758  0.00  0.00    -0.271 N 
ATOM     14  C   UNL     1      -0.301   1.483  24.622  0.00  0.00    +0.174 C 
ATOM     31  C   UNL     1      -1.157   2.511  25.231  0.00  0.00    +0.237 C 
ATOM     32  O   UNL     1      -1.625   1.953  25.619  0.00  0.00    -0.274 OA
ENDROOT
BRANCH  10   9
ATOM      6  N   UNL     1       1.914   0.253  23.227  0.00  0.00    -0.161 NA
ATOM      7  C   UNL     1       1.509   0.915  23.507  0.00  0.00    +0.344 C 
ATOM      8  O   UNL     1       1.854   1.662  23.454  0.00  0.00    -0.249 OA
ATOM      9  N   UNL     1       0.758   0.829  23.839  0.00  0.00    -0.186 NA
BRANCH   6   5
ATOM      3  C   UNL     1       4.069   0.549  23.050  0.00  0.00    +0.140 A 
ATOM      4  C   UNL     1       3.319   0.464  23.382  0.00  0.00    +0.054 A 
ATOM      5  C   UNL     1       2.664   0.338  22.895  0.00  0.00    +0.078 A 
ATOM     36  C   UNL     1       2.761   0.297  22.077  0.00  0.00    +0.017 A 
ATOM     37  C   UNL     1       3.512   0.382  21.746  0.00  0.00    +0.004 A 
ATOM     38  C   UNL     1       4.166   0.508  22.232  0.00  0.00    +0.037 A 
BRANCH   3   2
ATOM      1  C   UNL     1       5.390   0.194  23.464  0.00  0.00    +0.252 C 
ATOM      2  O   UNL     1       4.723   0.675  23.538  0.00  0.00    -0.471 OA
ENDBRANCH   3   2
ENDBRANCH   6   5
ENDBRANCH  10   9
BRANCH  14  15
ATOM     15  C   UNL     1      -0.663   0.812  24.934  0.00  0.00    +0.262 C 
ATOM     16  O   UNL     1      -0.599   0.645  25.740  0.00  0.00    -0.271 OA
ATOM     17  N   UNL     1      -1.090   0.306  24.442  0.00  0.00    -0.196 NA
BRANCH  17  18
ATOM     18  C   UNL     1      -1.453  -0.366  24.754  0.00  0.00    +0.174 C 
BRANCH  18  28
ATOM     28  C   UNL     1      -1.061  -1.092  24.737  0.00  0.00    +0.281 C 
ATOM     29  N   UNL     1      -0.805  -1.439  25.440  0.00  0.00    -0.086 NA
ATOM     30  O   UNL     1      -0.924  -1.471  24.016  0.00  0.00    -0.270 OA
ENDBRANCH  18  28
BRANCH  18  19
ATOM     19  C   UNL     1      -2.208  -0.314  25.082  0.00  0.00    +0.033 C 
BRANCH  19  20
ATOM     20  C   UNL     1      -2.873  -0.419  24.607  0.00  0.00    +0.026 C 
BRANCH  20  21
ATOM     21  C   UNL     1      -3.624  -0.253  24.904  0.00  0.00    +0.115 C 
BRANCH  21  22
ATOM     22  N   UNL     1      -4.037   0.409  24.637  0.00  0.00    -0.205 NA
ATOM     23  C   UNL     1      -4.687   0.690  25.060  0.00  0.00    +0.252 C 
ATOM     24  O   UNL     1      -4.925   0.307  25.752  0.00  0.00    -0.272 OA
BRANCH  23  25
ATOM     25  C   UNL     1      -5.100   1.351  24.793  0.00  0.00    +0.144 C 
BRANCH  25  26
ATOM     26  S   UNL     1      -5.483   1.845  25.332  0.00  0.00    -0.130 S 
ATOM     27  C   UNL     1      -5.713   2.604  25.105  0.00  0.00    +0.070 C 
ENDBRANCH  25  26
ENDBRANCH  23  25
ENDBRANCH  21  22
ENDBRANCH  20  21
ENDBRANCH  19  20
ENDBRANCH  18  19
ENDBRANCH  17  18
ENDBRANCH  14  15
BRANCH  31  33
ATOM     33  C   UNL     1      -1.318   3.316  25.316  0.00  0.00    +0.143 C 
BRANCH  33  34
ATOM     34  S   UNL     1      -1.984   3.561  25.736  0.00  0.00    -0.130 S 
ATOM     35  C   UNL     1      -2.260   4.335  25.657  0.00  0.00    +0.070 C 
ENDBRANCH  33  34
ENDBRANCH  31  33
TORSDOF 14
ENDMDL
MODEL 8
REMARK VINA RESULT:      -5.4      1.934      4.788
REMARK  Name = 
REMARK  14 active torsions:
REMARK  status: ('A' for Active; 'I' for Inactive)
REMARK    1  A    between atoms: O_2  and  C_3
REMARK    2  A    between atoms: C_5  and  N_6
REMARK    3  A    between atoms: N_9  and  C_10
REMARK    4  A    between atoms: C_14  and  C_15
REMARK    5  A    between atoms: N_17  and  C_18
REMARK    6  A    between atoms: C_18  and  C_19
REMARK    7  A    between atoms: C_18  and  C_28
REMARK    8  A    between atoms: C_19  and  C_20
REMARK    9  A    between atoms: C_20  and  C_21
REMARK   10  A    between atoms: C_21  and  N_22
REMARK   11  A    between atoms: C_23  and  C_25
REMARK   12  A    between atoms: C_25  and  S_26
REMARK   13  A    between atoms: C_31  and  C_33
REMARK   14  A    between atoms: C_33  and  S_34
REMARK                            x       y       z     vdW  Elec       q    Type
REMARK                         _______ _______ _______ _____ _____    ______ ____
ROOT
ATOM     10  C   UNL     1      -1.376   2.514  24.323  0.00  0.00    +0.126 C 
ATOM     11  C   UNL     1      -0.718   2.993  24.191  0.00  0.00    +0.045 C 
ATOM     12  C   UNL     1      -0.875   3.738  24.509  0.00  0.00    +0.096 C 
ATOM     13  N   UNL     1      -1.632   3.720  24.838  0.00  0.00    -0.271 N 
ATOM     14  C   UNL     1      -1.942   2.964  24.723  0.00  0.00    +0.174 C 
ATOM     31  C   UNL     1      -2.012   4.347  25.215  0.00  0.00    +0.237 C 
ATOM     32  O   UNL     1      -2.773   4.246  25.518  0.00  0.00    -0.274 OA
ENDROOT
BRANCH  10   9
ATOM      6  N   UNL     1      -0.865   0.465  23.776  0.00  0.00    -0.161 NA
ATOM      7  C   UNL     1      -0.785   1.253  24.003  0.00  0.00    +0.344 C 
ATOM      8  O   UNL     1      -0.036   1.569  24.139  0.00  0.00    -0.249 OA
ATOM      9  N   UNL     1      -1.456   1.726  24.095  0.00  0.00    -0.186 NA
BRANCH   6   5
ATOM      3  C   UNL     1       0.998  -0.338  22.970  0.00  0.00    +0.140 A 
ATOM      4  C   UNL     1       0.328   0.135  23.062  0.00  0.00    +0.054 A 
ATOM      5  C   UNL     1      -0.195  -0.008  23.684  0.00  0.00    +0.078 A 
ATOM     36  C   UNL     1      -0.049  -0.624  24.213  0.00  0.00    +0.017 A 
ATOM     37  C   UNL     1       0.621  -1.096  24.120  0.00  0.00    +0.004 A 
ATOM     38  C   UNL     1       1.144  -0.954  23.499  0.00  0.00    +0.037 A 
BRANCH   3   2
ATOM      1  C   UNL     1       2.320  -0.064  22.504  0.00  0.00    +0.252 C 
ATOM      2  O   UNL     1       1.521  -0.195  22.348  0.00  0.00    -0.471 OA
ENDBRANCH   3   2
ENDBRANCH   6   5
ENDBRANCH  10   9
BRANCH  14  15
ATOM     15  C   UNL     1      -2.685   2.702  24.965  0.00  0.00    +0.262 C 
ATOM     16  O   UNL     1      -2.853   2.621  25.768  0.00  0.00    -0.271 OA
ATOM     17  N   UNL     1      -3.262   2.522  24.403  0.00  0.00    -0.196 NA
BRANCH  17  18
ATOM     18  C   UNL     1      -4.007   2.260  24.645  0.00  0.00    +0.174 C 
BRANCH  18  28
ATOM     28  C   UNL     1      -4.679   2.698  24.454  0.00  0.00    +0.281 C 
ATOM     29  N   UNL     1      -5.245   2.859  25.032  0.00  0.00    -0.086 NA
ATOM     30  O   UNL     1      -4.786   2.976  23.684  0.00  0.00    -0.270 OA
ENDBRANCH  18  28
BRANCH  18  19
ATOM     19  C   UNL     1      -4.079   1.561  25.076  0.00  0.00    +0.033 C 
BRANCH  19  20
ATOM     20  C   UNL     1      -4.363   0.879  24.711  0.00  0.00    +0.026 C 
BRANCH  20  21
ATOM     21  C   UNL     1      -4.275   0.146  25.081  0.00  0.00    +0.115 C 
BRANCH  21  22
ATOM     22  N   UNL     1      -4.194  -0.538  24.627  0.00  0.00    -0.205 NA
ATOM     23  C   UNL     1      -3.872  -1.220  24.962  0.00  0.00    +0.252 C 
ATOM     24  O   UNL     1      -3.632  -1.218  25.752  0.00  0.00    -0.272 OA
BRANCH  23  25
ATOM     25  C   UNL     1      -3.791  -1.904  24.509  0.00  0.00    +0.144 C 
BRANCH  25  26
ATOM     26  S   UNL     1      -3.336  -2.533  24.788  0.00  0.00    -0.130 S 
ATOM     27  C   UNL     1      -3.247  -3.213  24.331  0.00  0.00    +0.070 C 
ENDBRANCH  25  26
ENDBRANCH  23  25
ENDBRANCH  21  22
ENDBRANCH  20  21
ENDBRANCH  19  20
ENDBRANCH  18  19
ENDBRANCH  17  18
ENDBRANCH  14  15
BRANCH  31  33
ATOM     33  C   UNL     1      -1.632   5.075  25.290  0.00  0.00    +0.143 C 
BRANCH  33  34
ATOM     34  S   UNL     1      -2.073   5.772  25.306  0.00  0.00    -0.130 S 
ATOM     35  C   UNL     1      -1.760   6.466  24.989  0.00  0.00    +0.070 C 
ENDBRANCH  33  34
ENDBRANCH  31  33
TORSDOF 14
ENDMDL
MODEL 9
REMARK VINA RESULT:      -5.4      1.966      4.888
REMARK  Name = 
REMARK  14 active torsions:
REMARK  status: ('A' for Active; 'I' for Inactive)
REMARK    1  A    between atoms: O_2  and  C_3
REMARK    2  A    between atoms: C_5  and  N_6
REMARK    3  A    between atoms: N_9  and  C_10
REMARK    4  A    between atoms: C_14  and  C_15
REMARK    5  A    between atoms: N_17  and  C_18
REMARK    6  A    between atoms: C_18  and  C_19
REMARK    7  A    between atoms: C_18  and  C_28
REMARK    8  A    between atoms: C_19  and  C_20
REMARK    9  A    between atoms: C_20  and  C_21
REMARK   10  A    between atoms: C_21  and  N_22
REMARK   11  A    between atoms: C_23  and  C_25
REMARK   12  A    between atoms: C_25  and  S_26
REMARK   13  A    between atoms: C_31  and  C_33
REMARK   14  A    between atoms: C_33  and  S_34
REMARK                            x       y       z     vdW  Elec       q    Type
REMARK                         _______ _______ _______ _____ _____    ______ ____
ROOT
ATOM     10  C   UNL     1      -2.538   0.352  24.607  0.00  0.00    +0.126 C 
ATOM     11  C   UNL     1      -2.909  -0.291  24.966  0.00  0.00    +0.045 C 
ATOM     12  C   UNL     1      -2.340  -0.875  25.096  0.00  0.00    +0.096 C 
ATOM     13  N   UNL     1      -1.617  -0.592  24.818  0.00  0.00    -0.271 N 
ATOM     14  C   UNL     1      -1.739   0.166  24.515  0.00  0.00    +0.174 C 
ATOM     31  C   UNL     1      -0.898  -0.995  24.838  0.00  0.00    +0.237 C 
ATOM     32  O   UNL     1      -0.217  -0.641  24.537  0.00  0.00    -0.274 OA
ENDROOT
BRANCH  10   9
ATOM      6  N   UNL     1      -3.989   1.978  24.483  0.00  0.00    -0.161 NA
ATOM      7  C   UNL     1      -3.625   1.273  24.710  0.00  0.00    +0.344 C 
ATOM      8  O   UNL     1      -3.986   0.785  25.269  0.00  0.00    -0.249 OA
ATOM      9  N   UNL     1      -2.901   1.057  24.379  0.00  0.00    -0.186 NA
BRANCH   6   5
ATOM      3  C   UNL     1      -5.498   3.110  25.580  0.00  0.00    +0.140 A 
ATOM      4  C   UNL     1      -4.774   2.893  25.249  0.00  0.00    +0.054 A 
ATOM      5  C   UNL     1      -4.712   2.194  24.814  0.00  0.00    +0.078 A 
ATOM     36  C   UNL     1      -5.375   1.714  24.710  0.00  0.00    +0.017 A 
ATOM     37  C   UNL     1      -6.098   1.932  25.041  0.00  0.00    +0.004 A 
ATOM     38  C   UNL     1      -6.160   2.629  25.476  0.00  0.00    +0.037 A 
BRANCH   3   2
ATOM      1  C   UNL     1      -5.778   4.510  25.641  0.00  0.00    +0.252 C 
ATOM      2  O   UNL     1      -5.559   3.808  26.016  0.00  0.00    -0.471 OA
ENDBRANCH   3   2
ENDBRANCH   6   5
ENDBRANCH  10   9
BRANCH  14  15
ATOM     15  C   UNL     1      -1.164   0.653  24.180  0.00  0.00    +0.262 C 
ATOM     16  O   UNL     1      -1.030   0.632  23.366  0.00  0.00    -0.271 OA
ATOM     17  N   UNL     1      -0.722   1.160  24.657  0.00  0.00    -0.196 NA
BRANCH  17  18
ATOM     18  C   UNL     1      -0.146   1.647  24.322  0.00  0.00    +0.174 C 
BRANCH  18  28
ATOM     28  C   UNL     1      -0.079   2.432  24.566  0.00  0.00    +0.281 C 
ATOM     29  N   UNL     1       0.161   2.607  25.335  0.00  0.00    -0.086 NA
ATOM     30  O   UNL     1      -0.252   3.044  24.039  0.00  0.00    -0.270 OA
ENDBRANCH  18  28
BRANCH  18  19
ATOM     19  C   UNL     1       0.361   1.350  23.745  0.00  0.00    +0.033 C 
BRANCH  19  20
ATOM     20  C   UNL     1       1.176   1.450  23.821  0.00  0.00    +0.026 C 
BRANCH  20  21
ATOM     21  C   UNL     1       1.692   1.015  23.345  0.00  0.00    +0.115 C 
BRANCH  21  22
ATOM     22  N   UNL     1       2.495   1.201  23.329  0.00  0.00    -0.205 NA
ATOM     23  C   UNL     1       3.020   0.729  22.903  0.00  0.00    +0.252 C 
ATOM     24  O   UNL     1       2.742   0.070  22.492  0.00  0.00    -0.272 OA
BRANCH  23  25
ATOM     25  C   UNL     1       3.823   0.916  22.887  0.00  0.00    +0.144 C 
BRANCH  25  26
ATOM     26  S   UNL     1       4.388   0.315  22.932  0.00  0.00    -0.130 S 
ATOM     27  C   UNL     1       5.102   0.448  23.321  0.00  0.00    +0.070 C 
ENDBRANCH  25  26
ENDBRANCH  23  25
ENDBRANCH  21  22
ENDBRANCH  20  21
ENDBRANCH  19  20
ENDBRANCH  18  19
ENDBRANCH  17  18
ENDBRANCH  14  15
BRANCH  31  33
ATOM     33  C   UNL     1      -0.860  -1.755  25.159  0.00  0.00    +0.143 C 
BRANCH  33  34
ATOM     34  S   UNL     1      -0.136  -2.145  25.210  0.00  0.00    -0.130 S 
ATOM     35  C   UNL     1      -0.097  -2.903  25.535  0.00  0.00    +0.070 C 
ENDBRANCH  33  34
ENDBRANCH  31  33
TORSDOF 14
ENDMDL
MODEL 10
REMARK VINA RESULT:      -4.0     15.544     17.290
REMARK  Name = 
REMARK  14 active torsions:
REMARK  status: ('A' for Active; 'I' for Inactive)
REMARK    1  A    between atoms: O_2  and  C_3
REMARK    2  A    between atoms: C_5  and  N_6
REMARK    3  A    between atoms: N_9  and  C_10
REMARK    4  A    between atoms: C_14  and  C_15
REMARK    5  A    between atoms: N_17  and  C_18
REMARK    6  A    between atoms: C_18  and  C_19
REMARK    7  A    between atoms: C_18  and  C_28
REMARK    8  A    between atoms: C_19  and  C_20
REMARK    9  A    between atoms: C_20  and  C_21
REMARK   10  A    between atoms: C_21  and  N_22
REMARK   11  A    between atoms: C_23  and  C_25
REMARK   12  A    between atoms: C_25  and  S_26
REMARK   13  A    between atoms: C_31  and  C_33
REMARK   14  A    between atoms: C_33  and  S_34
REMARK                            x       y       z     vdW  Elec       q    Type
REMARK                         _______ _______ _______ _____ _____    ______ ____
ROOT
ATOM     10  C   UNL     1      -5.881  -9.991  13.223  0.00  0.00    +0.126 C 
ATOM     11  C   UNL     1      -5.527 -10.208  13.936  0.00  0.00    +0.045 C 
ATOM     12  C   UNL     1      -4.744 -10.416  13.780  0.00  0.00    +0.096 C 
ATOM     13  N   UNL     1      -4.614 -10.328  12.970  0.00  0.00    -0.271 N 
ATOM     14  C   UNL     1      -5.316 -10.066  12.625  0.00  0.00    +0.174 C 
ATOM     31  C   UNL     1      -3.906 -10.477  12.573  0.00  0.00    +0.237 C 
ATOM     32  O   UNL     1      -3.858 -10.364  11.758  0.00  0.00    -0.274 OA
ENDROOT
BRANCH  10   9
ATOM      6  N   UNL     1      -8.003  -9.660  13.608  0.00  0.00    -0.161 NA
ATOM      7  C   UNL     1      -7.223  -9.907  13.706  0.00  0.00    +0.344 C 
ATOM      8  O   UNL     1      -7.004 -10.319  14.387  0.00  0.00    -0.249 OA
ATOM      9  N   UNL     1      -6.661  -9.743  13.124  0.00  0.00    -0.186 NA
BRANCH   6   5
ATOM      3  C   UNL     1      -9.337  -9.404  15.317  0.00  0.00    +0.140 A 
ATOM      4  C   UNL     1      -8.775  -9.241  14.735  0.00  0.00    +0.054 A 
ATOM      5  C   UNL     1      -8.565  -9.823  14.189  0.00  0.00    +0.078 A 
ATOM     36  C   UNL     1      -8.917 -10.568  14.226  0.00  0.00    +0.017 A 
ATOM     37  C   UNL     1      -9.479 -10.731  14.808  0.00  0.00    +0.004 A 
ATOM     38  C   UNL     1      -9.688 -10.149  15.353  0.00  0.00    +0.037 A 
BRANCH   3   2
ATOM      1  C   UNL     1      -9.201  -8.815  16.611  0.00  0.00    +0.252 C 
ATOM      2  O   UNL     1      -9.547  -8.822  15.862  0.00  0.00    -0.471 OA
ENDBRANCH   3   2
ENDBRANCH   6   5
ENDBRANCH  10   9
BRANCH  14  15
ATOM     15  C   UNL     1      -5.434  -9.905  11.825  0.00  0.00    +0.262 C 
ATOM     16  O   UNL     1      -5.480 -10.526  11.283  0.00  0.00    -0.271 OA
ATOM     17  N   UNL     1      -5.505  -9.125  11.566  0.00  0.00    -0.196 NA
BRANCH  17  18
ATOM     18  C   UNL     1      -5.623  -8.964  10.765  0.00  0.00    +0.174 C 
BRANCH  18  28
ATOM     28  C   UNL     1      -5.050  -8.551  10.340  0.00  0.00    +0.281 C 
ATOM     29  N   UNL     1      -4.816  -7.799  10.584  0.00  0.00    -0.086 NA
ATOM     30  O   UNL     1      -4.709  -8.891   9.668  0.00  0.00    -0.270 OA
ENDBRANCH  18  28
BRANCH  18  19
ATOM     19  C   UNL     1      -6.313  -9.216  10.391  0.00  0.00    +0.033 C 
BRANCH  19  20
ATOM     20  C   UNL     1      -6.848  -8.662  10.097  0.00  0.00    +0.026 C 
BRANCH  20  21
ATOM     21  C   UNL     1      -7.618  -8.892   9.907  0.00  0.00    +0.115 C 
BRANCH  21  22
ATOM     22  N   UNL     1      -8.122  -8.367   9.520  0.00  0.00    -0.205 NA
ATOM     23  C   UNL     1      -8.929  -8.530   9.471  0.00  0.00    +0.252 C 
ATOM     24  O   UNL     1      -9.232  -9.219   9.808  0.00  0.00    -0.272 OA
BRANCH  23  25
ATOM     25  C   UNL     1      -9.434  -8.004   9.084  0.00  0.00    +0.144 C 
BRANCH  25  26
ATOM     26  S   UNL     1     -10.226  -7.950   9.310  0.00  0.00    -0.130 S 
ATOM     27  C   UNL     1     -10.720  -7.395   8.952  0.00  0.00    +0.070 C 
ENDBRANCH  25  26
ENDBRANCH  23  25
ENDBRANCH  21  22
ENDBRANCH  20  21
ENDBRANCH  19  20
ENDBRANCH  18  19
ENDBRANCH  17  18
ENDBRANCH  14  15
BRANCH  31  33
ATOM     33  C   UNL     1      -3.246 -10.739  12.993  0.00  0.00    +0.143 C 
BRANCH  33  34
ATOM     34  S   UNL     1      -2.495 -10.687  12.655  0.00  0.00    -0.130 S 
ATOM     35  C   UNL     1      -1.823 -10.781  13.126  0.00  0.00    +0.070 C 
ENDBRANCH  33  34
ENDBRANCH  31  33
TORSDOF 14
ENDMDL
