MODEL 1
REMARK VINA RESULT:     -10.6      0.000      0.000
REMARK  Name = 
REMARK  2 active torsions:
REMARK  status: ('A' for Active; 'I' for Inactive)
REMARK    1  A    between atoms: N_8  and  C_9
REMARK    2  A    between atoms: C_9  and  C_10
REMARK                            x       y       z     vdW  Elec       q    Type
REMARK                         _______ _______ _______ _____ _____    ______ ____
ROOT
ATOM      1  C   UNL     1      -1.752   3.485  24.691  0.00  0.00    +0.090 C 
ATOM      2  N   UNL     1      -2.467   3.072  24.688  0.00  0.00    -0.269 NA
ATOM      3  C   UNL     1      -3.170   3.464  24.506  0.00  0.00    +0.094 C 
ATOM      4  C   UNL     1      -3.883   3.051  24.503  0.00  0.00    +0.112 C 
ATOM      5  N   UNL     1      -3.895   2.245  24.682  0.00  0.00    -0.261 N 
ATOM      6  C   UNL     1      -3.193   1.853  24.864  0.00  0.00    +0.113 C 
ATOM      7  C   UNL     1      -3.373   1.063  25.016  0.00  0.00    +0.116 C 
ATOM      8  N   UNL     1      -4.188   0.967  24.929  0.00  0.00    -0.258 N 
ATOM     17  C   UNL     1      -4.510   1.698  24.722  0.00  0.00    +0.308 C 
ATOM     18  O   UNL     1      -5.308   1.853  24.580  0.00  0.00    -0.252 OA
ATOM     19  C   UNL     1      -2.478   2.266  24.867  0.00  0.00    +0.094 C 
ENDROOT
BRANCH   8   9
ATOM      9  C   UNL     1      -4.607   0.263  25.030  0.00  0.00    +0.122 C 
BRANCH   9  10
ATOM     10  C   UNL     1      -4.237  -0.461  24.893  0.00  0.00    -0.002 A 
ATOM     11  C   UNL     1      -4.262  -0.803  24.143  0.00  0.00    -0.003 A 
ATOM     12  C   UNL     1      -3.892  -1.528  24.008  0.00  0.00    -0.005 A 
ATOM     13  C   UNL     1      -3.496  -1.910  24.622  0.00  0.00    -0.022 A 
ATOM     14  C   UNL     1      -3.125  -2.635  24.486  0.00  0.00    +0.031 C 
ATOM     15  C   UNL     1      -3.470  -1.568  25.372  0.00  0.00    -0.005 A 
ATOM     16  C   UNL     1      -3.840  -0.844  25.508  0.00  0.00    -0.003 A 
ENDBRANCH   9  10
ENDBRANCH   8   9
TORSDOF 2
ENDMDL
MODEL 2
REMARK VINA RESULT:     -10.3      1.153      1.802
REMARK  Name = 
REMARK  2 active torsions:
REMARK  status: ('A' for Active; 'I' for Inactive)
REMARK    1  A    between atoms: N_8  and  C_9
REMARK    2  A    between atoms: C_9  and  C_10
REMARK                            x       y       z     vdW  Elec       q    Type
REMARK                         _______ _______ _______ _____ _____    ______ ____
ROOT
ATOM      1  C   UNL     1      -5.744   3.253  25.816  0.00  0.00    +0.090 C 
ATOM      2  N   UNL     1      -5.130   2.904  25.388  0.00  0.00    -0.269 NA
ATOM      3  C   UNL     1      -4.482   3.357  25.153  0.00  0.00    +0.094 C 
ATOM      4  C   UNL     1      -3.870   3.008  24.725  0.00  0.00    +0.112 C 
ATOM      5  N   UNL     1      -3.904   2.206  24.533  0.00  0.00    -0.261 N 
ATOM      6  C   UNL     1      -4.552   1.754  24.768  0.00  0.00    +0.113 C 
ATOM      7  C   UNL     1      -4.435   0.982  24.501  0.00  0.00    +0.116 C 
ATOM      8  N   UNL     1      -3.715   0.958  24.101  0.00  0.00    -0.258 N 
ATOM     17  C   UNL     1      -3.387   1.714  24.120  0.00  0.00    +0.308 C 
ATOM     18  O   UNL     1      -2.667   1.940  23.786  0.00  0.00    -0.252 OA
ATOM     19  C   UNL     1      -5.166   2.103  25.196  0.00  0.00    +0.094 C 
ENDROOT
BRANCH   8   9
ATOM      9  C   UNL     1      -3.381   0.294  23.743  0.00  0.00    +0.122 C 
BRANCH   9  10
ATOM     10  C   UNL     1      -3.419  -0.440  24.118  0.00  0.00    -0.002 A 
ATOM     11  C   UNL     1      -2.883  -0.627  24.716  0.00  0.00    -0.003 A 
ATOM     12  C   UNL     1      -2.922  -1.361  25.090  0.00  0.00    -0.005 A 
ATOM     13  C   UNL     1      -3.497  -1.909  24.866  0.00  0.00    -0.022 A 
ATOM     14  C   UNL     1      -3.536  -2.643  25.240  0.00  0.00    +0.031 C 
ATOM     15  C   UNL     1      -4.033  -1.722  24.268  0.00  0.00    -0.005 A 
ATOM     16  C   UNL     1      -3.995  -0.988  23.893  0.00  0.00    -0.003 A 
ENDBRANCH   9  10
ENDBRANCH   8   9
TORSDOF 2
ENDMDL
MODEL 3
REMARK VINA RESULT:      -9.6      2.586      3.021
REMARK  Name = 
REMARK  2 active torsions:
REMARK  status: ('A' for Active; 'I' for Inactive)
REMARK    1  A    between atoms: N_8  and  C_9
REMARK    2  A    between atoms: C_9  and  C_10
REMARK                            x       y       z     vdW  Elec       q    Type
REMARK                         _______ _______ _______ _____ _____    ______ ____
ROOT
ATOM      1  C   UNL     1       1.170   0.089  23.081  0.00  0.00    +0.090 C 
ATOM      2  N   UNL     1       0.510   0.226  23.557  0.00  0.00    -0.269 NA
ATOM      3  C   UNL     1       0.354   0.986  23.838  0.00  0.00    +0.094 C 
ATOM      4  C   UNL     1      -0.306   1.123  24.313  0.00  0.00    +0.112 C 
ATOM      5  N   UNL     1      -0.811   0.500  24.507  0.00  0.00    -0.261 N 
ATOM      6  C   UNL     1      -0.656  -0.260  24.226  0.00  0.00    +0.113 C 
ATOM      7  C   UNL     1      -1.248  -0.761  24.505  0.00  0.00    +0.116 C 
ATOM      8  N   UNL     1      -1.769  -0.312  24.960  0.00  0.00    -0.258 N 
ATOM     17  C   UNL     1      -1.498   0.467  24.961  0.00  0.00    +0.308 C 
ATOM     18  O   UNL     1      -1.854   1.103  25.348  0.00  0.00    -0.252 OA
ATOM     19  C   UNL     1       0.005  -0.397  23.750  0.00  0.00    +0.094 C 
ENDROOT
BRANCH   8   9
ATOM      9  C   UNL     1      -2.442  -0.593  25.346  0.00  0.00    +0.122 C 
BRANCH   9  10
ATOM     10  C   UNL     1      -2.957  -1.106  24.957  0.00  0.00    -0.002 A 
ATOM     11  C   UNL     1      -2.885  -1.921  25.061  0.00  0.00    -0.003 A 
ATOM     12  C   UNL     1      -3.401  -2.433  24.672  0.00  0.00    -0.005 A 
ATOM     13  C   UNL     1      -3.989  -2.131  24.179  0.00  0.00    -0.022 A 
ATOM     14  C   UNL     1      -4.505  -2.644  23.789  0.00  0.00    +0.031 C 
ATOM     15  C   UNL     1      -4.061  -1.316  24.075  0.00  0.00    -0.005 A 
ATOM     16  C   UNL     1      -3.546  -0.803  24.464  0.00  0.00    -0.003 A 
ENDBRANCH   9  10
ENDBRANCH   8   9
TORSDOF 2
ENDMDL
MODEL 4
REMARK VINA RESULT:      -9.5      2.337      3.281
REMARK  Name = 
REMARK  2 active torsions:
REMARK  status: ('A' for Active; 'I' for Inactive)
REMARK    1  A    between atoms: N_8  and  C_9
REMARK    2  A    between atoms: C_9  and  C_10
REMARK                            x       y       z     vdW  Elec       q    Type
REMARK                         _______ _______ _______ _____ _____    ______ ____
ROOT
ATOM      1  C   UNL     1       0.182   2.517  26.219  0.00  0.00    +0.090 C 
ATOM      2  N   UNL     1      -0.345   2.431  25.589  0.00  0.00    -0.269 NA
ATOM      3  C   UNL     1      -0.085   2.109  24.876  0.00  0.00    +0.094 C 
ATOM      4  C   UNL     1      -0.611   2.022  24.247  0.00  0.00    +0.112 C 
ATOM      5  N   UNL     1      -1.398   2.257  24.331  0.00  0.00    -0.261 N 
ATOM      6  C   UNL     1      -1.658   2.579  25.045  0.00  0.00    +0.113 C 
ATOM      7  C   UNL     1      -2.458   2.760  24.966  0.00  0.00    +0.116 C 
ATOM      8  N   UNL     1      -2.693   2.550  24.204  0.00  0.00    -0.258 N 
ATOM     17  C   UNL     1      -2.038   2.239  23.812  0.00  0.00    +0.308 C 
ATOM     18  O   UNL     1      -2.024   1.960  23.035  0.00  0.00    -0.252 OA
ATOM     19  C   UNL     1      -1.131   2.666  25.675  0.00  0.00    +0.094 C 
ENDROOT
BRANCH   8   9
ATOM      9  C   UNL     1      -3.451   2.635  23.889  0.00  0.00    +0.122 C 
BRANCH   9  10
ATOM     10  C   UNL     1      -4.112   2.464  24.352  0.00  0.00    -0.002 A 
ATOM     11  C   UNL     1      -4.505   3.070  24.751  0.00  0.00    -0.003 A 
ATOM     12  C   UNL     1      -5.167   2.898  25.213  0.00  0.00    -0.005 A 
ATOM     13  C   UNL     1      -5.434   2.121  25.278  0.00  0.00    -0.022 A 
ATOM     14  C   UNL     1      -6.096   1.949  25.740  0.00  0.00    +0.031 C 
ATOM     15  C   UNL     1      -5.041   1.515  24.879  0.00  0.00    -0.005 A 
ATOM     16  C   UNL     1      -4.380   1.686  24.416  0.00  0.00    -0.003 A 
ENDBRANCH   9  10
ENDBRANCH   8   9
TORSDOF 2
ENDMDL
MODEL 5
REMARK VINA RESULT:      -9.1      1.754      3.704
REMARK  Name = 
REMARK  2 active torsions:
REMARK  status: ('A' for Active; 'I' for Inactive)
REMARK    1  A    between atoms: N_8  and  C_9
REMARK    2  A    between atoms: C_9  and  C_10
REMARK                            x       y       z     vdW  Elec       q    Type
REMARK                         _______ _______ _______ _____ _____    ______ ____
ROOT
ATOM      1  C   UNL     1      -0.599  -1.346  25.300  0.00  0.00    +0.090 C 
ATOM      2  N   UNL     1      -1.380  -1.252  25.049  0.00  0.00    -0.269 NA
ATOM      3  C   UNL     1      -1.861  -1.913  24.940  0.00  0.00    +0.094 C 
ATOM      4  C   UNL     1      -2.641  -1.819  24.690  0.00  0.00    +0.112 C 
ATOM      5  N   UNL     1      -2.941  -1.064  24.547  0.00  0.00    -0.261 N 
ATOM      6  C   UNL     1      -2.460  -0.402  24.656  0.00  0.00    +0.113 C 
ATOM      7  C   UNL     1      -2.903   0.268  24.474  0.00  0.00    +0.116 C 
ATOM      8  N   UNL     1      -3.659   0.022  24.253  0.00  0.00    -0.258 N 
ATOM     17  C   UNL     1      -3.681  -0.801  24.298  0.00  0.00    +0.308 C 
ATOM     18  O   UNL     1      -4.332  -1.278  24.125  0.00  0.00    -0.252 OA
ATOM     19  C   UNL     1      -1.679  -0.496  24.907  0.00  0.00    +0.094 C 
ENDROOT
BRANCH   8   9
ATOM      9  C   UNL     1      -4.282   0.513  24.026  0.00  0.00    +0.122 C 
BRANCH   9  10
ATOM     10  C   UNL     1      -4.403   1.231  24.412  0.00  0.00    -0.002 A 
ATOM     11  C   UNL     1      -4.045   1.919  24.129  0.00  0.00    -0.003 A 
ATOM     12  C   UNL     1      -4.168   2.637  24.517  0.00  0.00    -0.005 A 
ATOM     13  C   UNL     1      -4.648   2.668  25.186  0.00  0.00    -0.022 A 
ATOM     14  C   UNL     1      -4.770   3.386  25.574  0.00  0.00    +0.031 C 
ATOM     15  C   UNL     1      -5.006   1.981  25.469  0.00  0.00    -0.005 A 
ATOM     16  C   UNL     1      -4.884   1.262  25.083  0.00  0.00    -0.003 A 
ENDBRANCH   9  10
ENDBRANCH   8   9
TORSDOF 2
ENDMDL
