MODEL 1
REMARK VINA RESULT:      -9.6      0.000      0.000
REMARK  Name = 
REMARK  7 active torsions:
REMARK  status: ('A' for Active; 'I' for Inactive)
REMARK    1  A    between atoms: O_2  and  C_3
REMARK    2  A    between atoms: C_6  and  C_11
REMARK    3  A    between atoms: C_8  and  O_9
REMARK    4  A    between atoms: C_15  and  C_17
REMARK    5  A    between atoms: C_24  and  C_25
REMARK    6  A    between atoms: C_25  and  N_26
REMARK    7  A    between atoms: C_27  and  C_29
REMARK                            x       y       z     vdW  Elec       q    Type
REMARK                         _______ _______ _______ _____ _____    ______ ____
ROOT
ATOM     11  C   UNL     1      -2.717   0.846  24.876  0.00  0.00    +0.102 A 
ATOM     12  N   UNL     1      -2.459   0.284  25.422  0.00  0.00    -0.170 NA
ATOM     13  N   UNL     1      -1.689   0.066  25.218  0.00  0.00    -0.253 N 
ATOM     14  C   UNL     1      -1.219  -0.483  25.616  0.00  0.00    +0.153 C 
ATOM     15  C   UNL     1      -1.472   0.494  24.547  0.00  0.00    +0.058 A 
ATOM     16  C   UNL     1      -2.107   0.976  24.335  0.00  0.00    +0.035 A 
ENDROOT
BRANCH  15  17
ATOM     17  C   UNL     1      -0.746   0.448  24.156  0.00  0.00    +0.056 C 
ATOM     18  C   UNL     1      -0.596  -0.205  23.760  0.00  0.00    +0.078 C 
ATOM     19  N   UNL     1      -0.098   0.449  23.828  0.00  0.00    -0.272 NA
ATOM     20  C   UNL     1      -0.593   1.155  24.425  0.00  0.00    +0.072 C 
ATOM     21  C   UNL     1      -0.610   1.738  24.719  0.00  0.00    +0.018 C 
ATOM     22  C   UNL     1      -0.252   1.086  24.218  0.00  0.00    +0.010 C 
ATOM     23  C   UNL     1       0.547   1.245  23.891  0.00  0.00    +0.018 C 
ATOM     24  C   UNL     1       0.733   0.622  23.491  0.00  0.00    +0.079 C 
BRANCH  24  25
ATOM     25  C   UNL     1       1.332   0.296  23.028  0.00  0.00    +0.131 C 
BRANCH  25  26
ATOM     26  N   UNL     1       2.114   0.536  23.135  0.00  0.00    -0.204 NA
ATOM     27  C   UNL     1       2.691   0.319  22.587  0.00  0.00    +0.241 C 
ATOM     28  O   UNL     1       2.486  -0.139  21.932  0.00  0.00    -0.273 OA
BRANCH  27  29
ATOM     29  C   UNL     1       3.473   0.559  22.695  0.00  0.00    +0.078 C 
ATOM     30  C   UNL     1       4.165   0.557  23.143  0.00  0.00    +0.010 C 
ATOM     31  C   UNL     1       4.134   0.976  22.432  0.00  0.00    +0.010 C 
ENDBRANCH  27  29
ENDBRANCH  25  26
ENDBRANCH  24  25
ENDBRANCH  15  17
BRANCH  11   6
ATOM      3  C   UNL     1      -4.932   1.949  24.863  0.00  0.00    +0.172 A 
ATOM      4  C   UNL     1      -4.874   1.140  24.711  0.00  0.00    +0.040 A 
ATOM      5  C   UNL     1      -4.135   0.773  24.716  0.00  0.00    +0.005 A 
ATOM      6  C   UNL     1      -3.455   1.213  24.871  0.00  0.00    +0.023 A 
ATOM      7  C   UNL     1      -3.514   2.022  25.023  0.00  0.00    +0.042 A 
ATOM      8  C   UNL     1      -4.253   2.390  25.018  0.00  0.00    +0.172 A 
BRANCH   3   2
ATOM      1  C   UNL     1      -6.353   1.873  24.991  0.00  0.00    +0.253 C 
ATOM      2  O   UNL     1      -5.671   2.317  24.858  0.00  0.00    -0.468 OA
ENDBRANCH   3   2
BRANCH   8   9
ATOM      9  O   UNL     1      -4.312   3.199  25.169  0.00  0.00    -0.468 OA
ATOM     10  C   UNL     1      -3.663   3.611  25.468  0.00  0.00    +0.253 C 
ENDBRANCH   8   9
ENDBRANCH  11   6
TORSDOF 7
ENDMDL
MODEL 2
REMARK VINA RESULT:      -8.9      3.615      4.901
REMARK  Name = 
REMARK  7 active torsions:
REMARK  status: ('A' for Active; 'I' for Inactive)
REMARK    1  A    between atoms: O_2  and  C_3
REMARK    2  A    between atoms: C_6  and  C_11
REMARK    3  A    between atoms: C_8  and  O_9
REMARK    4  A    between atoms: C_15  and  C_17
REMARK    5  A    between atoms: C_24  and  C_25
REMARK    6  A    between atoms: C_25  and  N_26
REMARK    7  A    between atoms: C_27  and  C_29
REMARK                            x       y       z     vdW  Elec       q    Type
REMARK                         _______ _______ _______ _____ _____    ______ ____
ROOT
ATOM     11  C   UNL     1      -4.149  -0.215  24.766  0.00  0.00    +0.102 A 
ATOM     12  N   UNL     1      -4.872   0.038  25.069  0.00  0.00    -0.170 NA
ATOM     13  N   UNL     1      -4.844   0.859  25.143  0.00  0.00    -0.253 N 
ATOM     14  C   UNL     1      -5.450   1.342  25.426  0.00  0.00    +0.153 C 
ATOM     15  C   UNL     1      -4.102   1.113  24.885  0.00  0.00    +0.058 A 
ATOM     16  C   UNL     1      -3.672   0.449  24.652  0.00  0.00    +0.035 A 
ENDROOT
BRANCH  15  17
ATOM     17  C   UNL     1      -3.837   1.895  24.865  0.00  0.00    +0.056 C 
ATOM     18  C   UNL     1      -3.657   2.227  25.545  0.00  0.00    +0.078 C 
ATOM     19  N   UNL     1      -3.609   2.582  24.801  0.00  0.00    -0.272 NA
ATOM     20  C   UNL     1      -3.922   1.870  24.098  0.00  0.00    +0.072 C 
ATOM     21  C   UNL     1      -4.042   1.697  23.479  0.00  0.00    +0.018 C 
ATOM     22  C   UNL     1      -3.788   2.249  24.139  0.00  0.00    +0.010 C 
ATOM     23  C   UNL     1      -3.537   3.054  23.893  0.00  0.00    +0.018 C 
ATOM     24  C   UNL     1      -3.350   3.416  24.538  0.00  0.00    +0.079 C 
BRANCH  24  25
ATOM     25  C   UNL     1      -3.075   4.138  24.826  0.00  0.00    +0.131 C 
BRANCH  25  26
ATOM     26  N   UNL     1      -2.310   4.390  24.647  0.00  0.00    -0.204 NA
ATOM     27  C   UNL     1      -1.929   4.932  25.139  0.00  0.00    +0.241 C 
ATOM     28  O   UNL     1      -2.313   5.222  25.809  0.00  0.00    -0.273 OA
BRANCH  27  29
ATOM     29  C   UNL     1      -1.164   5.184  24.960  0.00  0.00    +0.078 C 
ATOM     30  C   UNL     1      -0.352   5.042  24.940  0.00  0.00    +0.010 C 
ATOM     31  C   UNL     1      -0.652   5.762  24.671  0.00  0.00    +0.010 C 
ENDBRANCH  27  29
ENDBRANCH  25  26
ENDBRANCH  24  25
ENDBRANCH  15  17
BRANCH  11   6
ATOM      3  C   UNL     1      -3.515  -2.559  24.281  0.00  0.00    +0.172 A 
ATOM      4  C   UNL     1      -4.209  -2.245  23.963  0.00  0.00    +0.040 A 
ATOM      5  C   UNL     1      -4.420  -1.464  24.125  0.00  0.00    +0.005 A 
ATOM      6  C   UNL     1      -3.938  -0.996  24.604  0.00  0.00    +0.023 A 
ATOM      7  C   UNL     1      -3.244  -1.310  24.921  0.00  0.00    +0.042 A 
ATOM      8  C   UNL     1      -3.032  -2.092  24.760  0.00  0.00    +0.172 A 
BRANCH   3   2
ATOM      1  C   UNL     1      -3.827  -3.833  23.715  0.00  0.00    +0.253 C 
ATOM      2  O   UNL     1      -3.304  -3.340  24.119  0.00  0.00    -0.468 OA
ENDBRANCH   3   2
BRANCH   8   9
ATOM      9  O   UNL     1      -2.338  -2.406  25.077  0.00  0.00    -0.468 OA
ATOM     10  C   UNL     1      -1.654  -1.946  25.106  0.00  0.00    +0.253 C 
ENDBRANCH   8   9
ENDBRANCH  11   6
TORSDOF 7
ENDMDL
MODEL 3
REMARK VINA RESULT:      -8.4      2.462      4.364
REMARK  Name = 
REMARK  7 active torsions:
REMARK  status: ('A' for Active; 'I' for Inactive)
REMARK    1  A    between atoms: O_2  and  C_3
REMARK    2  A    between atoms: C_6  and  C_11
REMARK    3  A    between atoms: C_8  and  O_9
REMARK    4  A    between atoms: C_15  and  C_17
REMARK    5  A    between atoms: C_24  and  C_25
REMARK    6  A    between atoms: C_25  and  N_26
REMARK    7  A    between atoms: C_27  and  C_29
REMARK                            x       y       z     vdW  Elec       q    Type
REMARK                         _______ _______ _______ _____ _____    ______ ____
ROOT
ATOM     11  C   UNL     1      -0.764   2.734  24.708  0.00  0.00    +0.102 A 
ATOM     12  N   UNL     1      -0.049   2.518  24.357  0.00  0.00    -0.170 NA
ATOM     13  N   UNL     1      -0.030   1.695  24.304  0.00  0.00    -0.253 N 
ATOM     14  C   UNL     1       0.585   1.244  23.988  0.00  0.00    +0.153 C 
ATOM     15  C   UNL     1      -0.732   1.402  24.622  0.00  0.00    +0.058 A 
ATOM     16  C   UNL     1      -1.187   2.044  24.872  0.00  0.00    +0.035 A 
ENDROOT
BRANCH  15  17
ATOM     17  C   UNL     1      -0.944   0.606  24.680  0.00  0.00    +0.056 C 
ATOM     18  C   UNL     1      -1.125   0.237  24.019  0.00  0.00    +0.078 C 
ATOM     19  N   UNL     1      -1.123  -0.092  24.776  0.00  0.00    -0.272 NA
ATOM     20  C   UNL     1      -0.835   0.665  25.442  0.00  0.00    +0.072 C 
ATOM     21  C   UNL     1      -0.706   0.869  26.049  0.00  0.00    +0.018 C 
ATOM     22  C   UNL     1      -0.945   0.276  25.419  0.00  0.00    +0.010 C 
ATOM     23  C   UNL     1      -1.133  -0.533  25.702  0.00  0.00    +0.018 C 
ATOM     24  C   UNL     1      -1.317  -0.931  25.077  0.00  0.00    +0.079 C 
BRANCH  24  25
ATOM     25  C   UNL     1      -1.553  -1.679  24.825  0.00  0.00    +0.131 C 
BRANCH  25  26
ATOM     26  N   UNL     1      -2.354  -1.846  24.719  0.00  0.00    -0.204 NA
ATOM     27  C   UNL     1      -2.583  -2.550  24.354  0.00  0.00    +0.241 C 
ATOM     28  O   UNL     1      -2.013  -3.087  24.096  0.00  0.00    -0.273 OA
BRANCH  27  29
ATOM     29  C   UNL     1      -3.384  -2.717  24.248  0.00  0.00    +0.078 C 
ATOM     30  C   UNL     1      -4.128  -2.501  23.963  0.00  0.00    +0.010 C 
ATOM     31  C   UNL     1      -4.028  -3.223  24.350  0.00  0.00    +0.010 C 
ENDBRANCH  27  29
ENDBRANCH  25  26
ENDBRANCH  24  25
ENDBRANCH  15  17
BRANCH  11   6
ATOM      3  C   UNL     1      -1.512   5.044  25.188  0.00  0.00    +0.172 A 
ATOM      4  C   UNL     1      -0.791   4.914  24.809  0.00  0.00    +0.040 A 
ATOM      5  C   UNL     1      -0.542   4.144  24.649  0.00  0.00    +0.005 A 
ATOM      6  C   UNL     1      -1.013   3.504  24.868  0.00  0.00    +0.023 A 
ATOM      7  C   UNL     1      -1.734   3.633  25.247  0.00  0.00    +0.042 A 
ATOM      8  C   UNL     1      -1.984   4.404  25.407  0.00  0.00    +0.172 A 
BRANCH   3   2
ATOM      1  C   UNL     1      -1.494   6.439  24.879  0.00  0.00    +0.253 C 
ATOM      2  O   UNL     1      -1.761   5.814  25.348  0.00  0.00    -0.468 OA
ENDBRANCH   3   2
BRANCH   8   9
ATOM      9  O   UNL     1      -2.705   4.534  25.786  0.00  0.00    -0.468 OA
ATOM     10  C   UNL     1      -3.058   3.928  26.220  0.00  0.00    +0.253 C 
ENDBRANCH   8   9
ENDBRANCH  11   6
TORSDOF 7
ENDMDL
MODEL 4
REMARK VINA RESULT:      -8.4      3.403      5.028
REMARK  Name = 
REMARK  7 active torsions:
REMARK  status: ('A' for Active; 'I' for Inactive)
REMARK    1  A    between atoms: O_2  and  C_3
REMARK    2  A    between atoms: C_6  and  C_11
REMARK    3  A    between atoms: C_8  and  O_9
REMARK    4  A    between atoms: C_15  and  C_17
REMARK    5  A    between atoms: C_24  and  C_25
REMARK    6  A    between atoms: C_25  and  N_26
REMARK    7  A    between atoms: C_27  and  C_29
REMARK                            x       y       z     vdW  Elec       q    Type
REMARK                         _______ _______ _______ _____ _____    ______ ____
ROOT
ATOM     11  C   UNL     1      -3.064   3.088  25.076  0.00  0.00    +0.102 A 
ATOM     12  N   UNL     1      -3.850   3.202  25.298  0.00  0.00    -0.170 NA
ATOM     13  N   UNL     1      -4.256   2.496  25.170  0.00  0.00    -0.253 N 
ATOM     14  C   UNL     1      -5.057   2.362  25.318  0.00  0.00    +0.153 C 
ATOM     15  C   UNL     1      -3.721   1.945  24.869  0.00  0.00    +0.058 A 
ATOM     16  C   UNL     1      -2.984   2.311  24.810  0.00  0.00    +0.035 A 
ENDROOT
BRANCH  15  17
ATOM     17  C   UNL     1      -3.893   1.164  24.662  0.00  0.00    +0.056 C 
ATOM     18  C   UNL     1      -4.183   0.704  25.219  0.00  0.00    +0.078 C 
ATOM     19  N   UNL     1      -4.030   0.486  24.437  0.00  0.00    -0.272 NA
ATOM     20  C   UNL     1      -3.647   1.332  23.950  0.00  0.00    +0.072 C 
ATOM     21  C   UNL     1      -3.413   1.621  23.412  0.00  0.00    +0.018 C 
ATOM     22  C   UNL     1      -3.746   0.943  23.897  0.00  0.00    +0.010 C 
ATOM     23  C   UNL     1      -3.852   0.182  23.473  0.00  0.00    +0.018 C 
ATOM     24  C   UNL     1      -4.138  -0.302  23.990  0.00  0.00    +0.079 C 
BRANCH  24  25
ATOM     25  C   UNL     1      -4.393  -1.080  24.087  0.00  0.00    +0.131 C 
BRANCH  25  26
ATOM     26  N   UNL     1      -3.871  -1.654  24.368  0.00  0.00    -0.204 NA
ATOM     27  C   UNL     1      -3.993  -2.448  24.181  0.00  0.00    +0.241 C 
ATOM     28  O   UNL     1      -4.636  -2.668  23.714  0.00  0.00    -0.273 OA
BRANCH  27  29
ATOM     29  C   UNL     1      -3.472  -3.022  24.462  0.00  0.00    +0.078 C 
ATOM     30  C   UNL     1      -2.724  -3.371  24.460  0.00  0.00    +0.010 C 
ATOM     31  C   UNL     1      -3.316  -3.668  24.952  0.00  0.00    +0.010 C 
ENDBRANCH  27  29
ENDBRANCH  25  26
ENDBRANCH  24  25
ENDBRANCH  15  17
BRANCH  11   6
ATOM      3  C   UNL     1      -1.261   4.780  25.187  0.00  0.00    +0.172 A 
ATOM      4  C   UNL     1      -2.028   5.007  24.985  0.00  0.00    +0.040 A 
ATOM      5  C   UNL     1      -2.629   4.443  24.948  0.00  0.00    +0.005 A 
ATOM      6  C   UNL     1      -2.464   3.652  25.113  0.00  0.00    +0.023 A 
ATOM      7  C   UNL     1      -1.696   3.425  25.314  0.00  0.00    +0.042 A 
ATOM      8  C   UNL     1      -1.095   3.989  25.351  0.00  0.00    +0.172 A 
BRANCH   3   2
ATOM      1  C   UNL     1      -0.714   6.033  24.773  0.00  0.00    +0.253 C 
ATOM      2  O   UNL     1      -0.660   5.344  25.223  0.00  0.00    -0.468 OA
ENDBRANCH   3   2
BRANCH   8   9
ATOM      9  O   UNL     1      -0.328   3.762  25.552  0.00  0.00    -0.468 OA
ATOM     10  C   UNL     1      -0.172   2.981  25.767  0.00  0.00    +0.253 C 
ENDBRANCH   8   9
ENDBRANCH  11   6
TORSDOF 7
ENDMDL
MODEL 5
REMARK VINA RESULT:      -7.8      2.623      4.300
REMARK  Name = 
REMARK  7 active torsions:
REMARK  status: ('A' for Active; 'I' for Inactive)
REMARK    1  A    between atoms: O_2  and  C_3
REMARK    2  A    between atoms: C_6  and  C_11
REMARK    3  A    between atoms: C_8  and  O_9
REMARK    4  A    between atoms: C_15  and  C_17
REMARK    5  A    between atoms: C_24  and  C_25
REMARK    6  A    between atoms: C_25  and  N_26
REMARK    7  A    between atoms: C_27  and  C_29
REMARK                            x       y       z     vdW  Elec       q    Type
REMARK                         _______ _______ _______ _____ _____    ______ ____
ROOT
ATOM     11  C   UNL     1      -1.597  -0.752  24.349  0.00  0.00    +0.102 A 
ATOM     12  N   UNL     1      -0.843  -0.832  24.025  0.00  0.00    -0.170 NA
ATOM     13  N   UNL     1      -0.453  -0.109  24.104  0.00  0.00    -0.253 N 
ATOM     14  C   UNL     1       0.315   0.058  23.853  0.00  0.00    +0.153 C 
ATOM     15  C   UNL     1      -0.967   0.418  24.477  0.00  0.00    +0.058 A 
ATOM     16  C   UNL     1      -1.674   0.021  24.629  0.00  0.00    +0.035 A 
ENDROOT
BRANCH  15  17
ATOM     17  C   UNL     1      -0.802   1.205  24.665  0.00  0.00    +0.056 C 
ATOM     18  C   UNL     1      -0.763   1.711  24.075  0.00  0.00    +0.078 C 
ATOM     19  N   UNL     1      -0.655   1.885  24.875  0.00  0.00    -0.272 NA
ATOM     20  C   UNL     1      -0.773   0.989  25.405  0.00  0.00    +0.072 C 
ATOM     21  C   UNL     1      -0.782   0.659  25.969  0.00  0.00    +0.018 C 
ATOM     22  C   UNL     1      -0.695   1.383  25.447  0.00  0.00    +0.010 C 
ATOM     23  C   UNL     1      -0.515   2.137  25.860  0.00  0.00    +0.018 C 
ATOM     24  C   UNL     1      -0.468   2.665  25.310  0.00  0.00    +0.079 C 
BRANCH  24  25
ATOM     25  C   UNL     1      -0.330   3.468  25.185  0.00  0.00    +0.131 C 
BRANCH  25  26
ATOM     26  N   UNL     1      -0.948   4.010  25.254  0.00  0.00    -0.204 NA
ATOM     27  C   UNL     1      -0.844   4.788  25.000  0.00  0.00    +0.241 C 
ATOM     28  O   UNL     1      -0.123   5.024  24.677  0.00  0.00    -0.273 OA
BRANCH  27  29
ATOM     29  C   UNL     1      -1.463   5.329  25.069  0.00  0.00    +0.078 C 
ATOM     30  C   UNL     1      -2.205   5.533  25.367  0.00  0.00    +0.010 C 
ATOM     31  C   UNL     1      -1.792   6.064  24.889  0.00  0.00    +0.010 C 
ENDBRANCH  27  29
ENDBRANCH  25  26
ENDBRANCH  24  25
ENDBRANCH  15  17
BRANCH  11   6
ATOM      3  C   UNL     1      -3.327  -2.518  24.464  0.00  0.00    +0.172 A 
ATOM      4  C   UNL     1      -2.534  -2.708  24.590  0.00  0.00    +0.040 A 
ATOM      5  C   UNL     1      -1.958  -2.119  24.552  0.00  0.00    +0.005 A 
ATOM      6  C   UNL     1      -2.173  -1.341  24.388  0.00  0.00    +0.023 A 
ATOM      7  C   UNL     1      -2.966  -1.150  24.262  0.00  0.00    +0.042 A 
ATOM      8  C   UNL     1      -3.543  -1.740  24.300  0.00  0.00    +0.172 A 
BRANCH   3   2
ATOM      1  C   UNL     1      -3.681  -3.902  24.509  0.00  0.00    +0.253 C 
ATOM      2  O   UNL     1      -3.903  -3.107  24.503  0.00  0.00    -0.468 OA
ENDBRANCH   3   2
BRANCH   8   9
ATOM      9  O   UNL     1      -4.336  -1.549  24.174  0.00  0.00    -0.468 OA
ATOM     10  C   UNL     1      -4.573  -0.759  24.159  0.00  0.00    +0.253 C 
ENDBRANCH   8   9
ENDBRANCH  11   6
TORSDOF 7
ENDMDL
MODEL 6
REMARK VINA RESULT:      -7.8      1.378      2.109
REMARK  Name = 
REMARK  7 active torsions:
REMARK  status: ('A' for Active; 'I' for Inactive)
REMARK    1  A    between atoms: O_2  and  C_3
REMARK    2  A    between atoms: C_6  and  C_11
REMARK    3  A    between atoms: C_8  and  O_9
REMARK    4  A    between atoms: C_15  and  C_17
REMARK    5  A    between atoms: C_24  and  C_25
REMARK    6  A    between atoms: C_25  and  N_26
REMARK    7  A    between atoms: C_27  and  C_29
REMARK                            x       y       z     vdW  Elec       q    Type
REMARK                         _______ _______ _______ _____ _____    ______ ____
ROOT
ATOM     11  C   UNL     1      -3.484   2.545  24.085  0.00  0.00    +0.102 A 
ATOM     12  N   UNL     1      -3.481   2.412  23.271  0.00  0.00    -0.170 NA
ATOM     13  N   UNL     1      -2.738   2.118  23.065  0.00  0.00    -0.253 N 
ATOM     14  C   UNL     1      -2.493   1.910  22.305  0.00  0.00    +0.153 C 
ATOM     15  C   UNL     1      -2.283   2.070  23.751  0.00  0.00    +0.058 A 
ATOM     16  C   UNL     1      -2.744   2.334  24.382  0.00  0.00    +0.035 A 
ENDROOT
BRANCH  15  17
ATOM     17  C   UNL     1      -1.502   1.805  23.798  0.00  0.00    +0.056 C 
ATOM     18  C   UNL     1      -0.946   2.285  23.539  0.00  0.00    +0.078 C 
ATOM     19  N   UNL     1      -0.831   1.532  23.857  0.00  0.00    -0.272 NA
ATOM     20  C   UNL     1      -1.776   1.152  24.106  0.00  0.00    +0.072 C 
ATOM     21  C   UNL     1      -2.150   0.675  24.348  0.00  0.00    +0.018 C 
ATOM     22  C   UNL     1      -1.380   1.067  24.109  0.00  0.00    +0.010 C 
ATOM     23  C   UNL     1      -0.650   0.600  24.247  0.00  0.00    +0.018 C 
ATOM     24  C   UNL     1      -0.076   1.041  24.005  0.00  0.00    +0.079 C 
BRANCH  24  25
ATOM     25  C   UNL     1       0.744   1.061  23.924  0.00  0.00    +0.131 C 
BRANCH  25  26
ATOM     26  N   UNL     1       1.113   0.612  23.337  0.00  0.00    -0.204 NA
ATOM     27  C   UNL     1       1.918   0.708  23.190  0.00  0.00    +0.241 C 
ATOM     28  O   UNL     1       2.356   1.253  23.629  0.00  0.00    -0.273 OA
BRANCH  27  29
ATOM     29  C   UNL     1       2.287   0.259  22.604  0.00  0.00    +0.078 C 
ATOM     30  C   UNL     1       2.938   0.113  22.120  0.00  0.00    +0.010 C 
ATOM     31  C   UNL     1       2.273  -0.372  22.073  0.00  0.00    +0.010 C 
ENDBRANCH  27  29
ENDBRANCH  25  26
ENDBRANCH  24  25
ENDBRANCH  15  17
BRANCH  11   6
ATOM      3  C   UNL     1      -5.385   3.421  25.407  0.00  0.00    +0.172 A 
ATOM      4  C   UNL     1      -4.766   3.923  25.191  0.00  0.00    +0.040 A 
ATOM      5  C   UNL     1      -4.133   3.630  24.750  0.00  0.00    +0.005 A 
ATOM      6  C   UNL     1      -4.117   2.837  24.526  0.00  0.00    +0.023 A 
ATOM      7  C   UNL     1      -4.736   2.336  24.742  0.00  0.00    +0.042 A 
ATOM      8  C   UNL     1      -5.370   2.628  25.183  0.00  0.00    +0.172 A 
BRANCH   3   2
ATOM      1  C   UNL     1      -6.143   4.528  25.899  0.00  0.00    +0.253 C 
ATOM      2  O   UNL     1      -6.018   3.714  25.847  0.00  0.00    -0.468 OA
ENDBRANCH   3   2
BRANCH   8   9
ATOM      9  O   UNL     1      -5.989   2.127  25.399  0.00  0.00    -0.468 OA
ATOM     10  C   UNL     1      -6.046   1.375  25.064  0.00  0.00    +0.253 C 
ENDBRANCH   8   9
ENDBRANCH  11   6
TORSDOF 7
ENDMDL
MODEL 7
REMARK VINA RESULT:      -7.8      1.084      6.244
REMARK  Name = 
REMARK  7 active torsions:
REMARK  status: ('A' for Active; 'I' for Inactive)
REMARK    1  A    between atoms: O_2  and  C_3
REMARK    2  A    between atoms: C_6  and  C_11
REMARK    3  A    between atoms: C_8  and  O_9
REMARK    4  A    between atoms: C_15  and  C_17
REMARK    5  A    between atoms: C_24  and  C_25
REMARK    6  A    between atoms: C_25  and  N_26
REMARK    7  A    between atoms: C_27  and  C_29
REMARK                            x       y       z     vdW  Elec       q    Type
REMARK                         _______ _______ _______ _____ _____    ______ ____
ROOT
ATOM     11  C   UNL     1       0.102   0.470  23.747  0.00  0.00    +0.102 A 
ATOM     12  N   UNL     1      -0.267  -0.165  24.123  0.00  0.00    -0.170 NA
ATOM     13  N   UNL     1      -1.004   0.092  24.391  0.00  0.00    -0.253 N 
ATOM     14  C   UNL     1      -1.559  -0.365  24.797  0.00  0.00    +0.153 C 
ATOM     15  C   UNL     1      -1.090   0.885  24.181  0.00  0.00    +0.058 A 
ATOM     16  C   UNL     1      -0.406   1.119  23.783  0.00  0.00    +0.035 A 
ENDROOT
BRANCH  15  17
ATOM     17  C   UNL     1      -1.745   1.361  24.341  0.00  0.00    +0.056 C 
ATOM     18  C   UNL     1      -1.929   1.475  25.089  0.00  0.00    +0.078 C 
ATOM     19  N   UNL     1      -2.328   1.786  24.437  0.00  0.00    -0.272 NA
ATOM     20  C   UNL     1      -1.831   1.446  23.579  0.00  0.00    +0.072 C 
ATOM     21  C   UNL     1      -1.772   1.421  22.929  0.00  0.00    +0.018 C 
ATOM     22  C   UNL     1      -2.142   1.670  23.707  0.00  0.00    +0.010 C 
ATOM     23  C   UNL     1      -2.847   2.189  23.650  0.00  0.00    +0.018 C 
ATOM     24  C   UNL     1      -3.061   2.325  24.370  0.00  0.00    +0.079 C 
BRANCH  24  25
ATOM     25  C   UNL     1      -3.623   2.725  24.821  0.00  0.00    +0.131 C 
BRANCH  25  26
ATOM     26  N   UNL     1      -4.352   2.373  24.979  0.00  0.00    -0.204 NA
ATOM     27  C   UNL     1      -4.920   2.780  25.418  0.00  0.00    +0.241 C 
ATOM     28  O   UNL     1      -4.758   3.538  25.700  0.00  0.00    -0.273 OA
BRANCH  27  29
ATOM     29  C   UNL     1      -5.649   2.428  25.575  0.00  0.00    +0.078 C 
ATOM     30  C   UNL     1      -6.237   2.211  26.111  0.00  0.00    +0.010 C 
ATOM     31  C   UNL     1      -6.325   2.035  25.310  0.00  0.00    +0.010 C 
ENDBRANCH  27  29
ENDBRANCH  25  26
ENDBRANCH  24  25
ENDBRANCH  15  17
BRANCH  11   6
ATOM      3  C   UNL     1       2.343   0.433  22.696  0.00  0.00    +0.172 A 
ATOM      4  C   UNL     1       2.220   0.861  23.392  0.00  0.00    +0.040 A 
ATOM      5  C   UNL     1       1.473   0.873  23.742  0.00  0.00    +0.005 A 
ATOM      6  C   UNL     1       0.849   0.458  23.397  0.00  0.00    +0.023 A 
ATOM      7  C   UNL     1       0.972   0.031  22.702  0.00  0.00    +0.042 A 
ATOM      8  C   UNL     1       1.719   0.019  22.352  0.00  0.00    +0.172 A 
BRANCH   3   2
ATOM      1  C   UNL     1       3.723   0.801  22.714  0.00  0.00    +0.253 C 
ATOM      2  O   UNL     1       3.090   0.421  22.346  0.00  0.00    -0.468 OA
ENDBRANCH   3   2
BRANCH   8   9
ATOM      9  O   UNL     1       1.842  -0.409  21.656  0.00  0.00    -0.468 OA
ATOM     10  C   UNL     1       1.201  -0.742  21.259  0.00  0.00    +0.253 C 
ENDBRANCH   8   9
ENDBRANCH  11   6
TORSDOF 7
ENDMDL
