MODEL 1
REMARK VINA RESULT:     -11.2      0.000      0.000
REMARK  Name = 
REMARK  6 active torsions:
REMARK  status: ('A' for Active; 'I' for Inactive)
REMARK    1  A    between atoms: C_2  and  C_3
REMARK    2  A    between atoms: C_5  and  C_6
REMARK    3  A    between atoms: C_6  and  N_7
REMARK    4  A    between atoms: N_10  and  C_11
REMARK    5  A    between atoms: C_18  and  N_21
REMARK    6  A    between atoms: N_24  and  C_27
REMARK                            x       y       z     vdW  Elec       q    Type
REMARK                         _______ _______ _______ _____ _____    ______ ____
ROOT
ATOM      3  C   UNL     1      -5.927   2.084  25.222  0.00  0.00    +0.180 C 
ATOM      4  O   UNL     1      -5.497   1.390  25.110  0.00  0.00    -0.350 OA
ATOM      5  C   UNL     1      -4.699   1.592  25.041  0.00  0.00    +0.154 C 
ATOM     18  C   UNL     1      -4.638   2.412  25.111  0.00  0.00    +0.120 C 
ATOM     19  C   UNL     1      -5.397   2.716  25.224  0.00  0.00    +0.198 C 
ATOM     20  O   UNL     1      -5.591   3.512  25.320  0.00  0.00    -0.219 OA
ENDROOT
BRANCH  18  21
ATOM     21  N   UNL     1      -3.940   2.850  25.076  0.00  0.00    -0.267 NA
ATOM     22  C   UNL     1      -3.531   3.030  25.770  0.00  0.00    +0.094 C 
ATOM     23  C   UNL     1      -2.832   3.469  25.735  0.00  0.00    +0.108 C 
ATOM     24  N   UNL     1      -2.544   3.728  25.006  0.00  0.00    -0.305 N 
ATOM     25  C   UNL     1      -2.954   3.548  24.313  0.00  0.00    +0.108 C 
ATOM     26  C   UNL     1      -3.652   3.109  24.348  0.00  0.00    +0.094 C 
BRANCH  24  27
ATOM     27  C   UNL     1      -1.846   4.167  24.971  0.00  0.00    +0.048 A 
ATOM     28  C   UNL     1      -1.870   4.986  25.059  0.00  0.00    +0.015 A 
ATOM     29  C   UNL     1      -1.172   5.425  25.024  0.00  0.00    +0.001 A 
ATOM     30  C   UNL     1      -0.450   5.044  24.901  0.00  0.00    +0.000 A 
ATOM     31  C   UNL     1      -0.428   4.224  24.813  0.00  0.00    +0.001 A 
ATOM     32  C   UNL     1      -1.125   3.786  24.848  0.00  0.00    +0.015 A 
ENDBRANCH  24  27
ENDBRANCH  18  21
BRANCH   3   2
ATOM      1  O   UNL     1      -7.247   1.731  24.804  0.00  0.00    -0.218 OA
ATOM      2  C   UNL     1      -6.744   2.137  25.317  0.00  0.00    +0.214 C 
ENDBRANCH   3   2
BRANCH   5   6
ATOM      6  C   UNL     1      -4.075   1.067  24.923  0.00  0.00    +0.148 C 
BRANCH   6   7
ATOM      7  N   UNL     1      -4.089   0.322  25.276  0.00  0.00    -0.184 NA
ATOM      8  C   UNL     1      -3.678  -0.306  24.932  0.00  0.00    +0.344 C 
ATOM      9  O   UNL     1      -3.253  -0.189  24.236  0.00  0.00    -0.249 OA
ATOM     10  N   UNL     1      -3.693  -1.051  25.287  0.00  0.00    -0.161 NA
BRANCH  10  11
ATOM     11  C   UNL     1      -3.281  -1.679  24.943  0.00  0.00    +0.076 A 
ATOM     12  C   UNL     1      -2.468  -1.751  25.057  0.00  0.00    +0.028 A 
ATOM     13  C   UNL     1      -2.057  -2.378  24.713  0.00  0.00    +0.059 A 
ATOM     14 CL   UNL     1      -1.242  -2.450  24.828  0.00  0.00    -0.082 Cl
ATOM     15  C   UNL     1      -2.460  -2.934  24.256  0.00  0.00    +0.011 A 
ATOM     16  C   UNL     1      -3.273  -2.862  24.142  0.00  0.00    +0.002 A 
ATOM     17  C   UNL     1      -3.685  -2.235  24.485  0.00  0.00    +0.017 A 
ENDBRANCH  10  11
ENDBRANCH   6   7
ENDBRANCH   5   6
TORSDOF 6
ENDMDL
MODEL 2
REMARK VINA RESULT:     -10.6      2.681      4.295
REMARK  Name = 
REMARK  6 active torsions:
REMARK  status: ('A' for Active; 'I' for Inactive)
REMARK    1  A    between atoms: C_2  and  C_3
REMARK    2  A    between atoms: C_5  and  C_6
REMARK    3  A    between atoms: C_6  and  N_7
REMARK    4  A    between atoms: N_10  and  C_11
REMARK    5  A    between atoms: C_18  and  N_21
REMARK    6  A    between atoms: N_24  and  C_27
REMARK                            x       y       z     vdW  Elec       q    Type
REMARK                         _______ _______ _______ _____ _____    ______ ____
ROOT
ATOM      3  C   UNL     1       1.371   0.366  23.363  0.00  0.00    +0.180 C 
ATOM      4  O   UNL     1       0.745  -0.133  23.562  0.00  0.00    -0.350 OA
ATOM      5  C   UNL     1       0.150   0.326  23.903  0.00  0.00    +0.154 C 
ATOM     18  C   UNL     1       0.408   1.109  23.915  0.00  0.00    +0.120 C 
ATOM     19  C   UNL     1       1.163   1.135  23.581  0.00  0.00    +0.198 C 
ATOM     20  O   UNL     1       1.627   1.810  23.483  0.00  0.00    -0.219 OA
ENDROOT
BRANCH  18  21
ATOM     21  N   UNL     1      -0.014   1.754  24.208  0.00  0.00    -0.267 NA
ATOM     22  C   UNL     1      -0.552   2.150  23.723  0.00  0.00    +0.094 C 
ATOM     23  C   UNL     1      -0.975   2.796  24.017  0.00  0.00    +0.108 C 
ATOM     24  N   UNL     1      -0.858   3.045  24.795  0.00  0.00    -0.305 N 
ATOM     25  C   UNL     1      -0.321   2.649  25.279  0.00  0.00    +0.108 C 
ATOM     26  C   UNL     1       0.102   2.004  24.986  0.00  0.00    +0.094 C 
BRANCH  24  27
ATOM     27  C   UNL     1      -1.281   3.690  25.089  0.00  0.00    +0.048 A 
ATOM     28  C   UNL     1      -1.008   4.457  24.955  0.00  0.00    +0.015 A 
ATOM     29  C   UNL     1      -1.431   5.102  25.248  0.00  0.00    +0.001 A 
ATOM     30  C   UNL     1      -2.126   4.981  25.675  0.00  0.00    +0.000 A 
ATOM     31  C   UNL     1      -2.398   4.213  25.809  0.00  0.00    +0.001 A 
ATOM     32  C   UNL     1      -1.976   3.569  25.516  0.00  0.00    +0.015 A 
ENDBRANCH  24  27
ENDBRANCH  18  21
BRANCH   3   2
ATOM      1  O   UNL     1       2.070  -0.262  22.287  0.00  0.00    -0.218 OA
ATOM      2  C   UNL     1       2.079   0.139  23.009  0.00  0.00    +0.214 C 
ENDBRANCH   3   2
BRANCH   5   6
ATOM      6  C   UNL     1      -0.575   0.049  24.182  0.00  0.00    +0.148 C 
BRANCH   6   7
ATOM      7  N   UNL     1      -0.739  -0.759  24.176  0.00  0.00    -0.184 NA
ATOM      8  C   UNL     1      -1.488  -1.030  24.392  0.00  0.00    +0.344 C 
ATOM      9  O   UNL     1      -2.072  -0.493  24.615  0.00  0.00    -0.249 OA
ATOM     10  N   UNL     1      -1.651  -1.839  24.386  0.00  0.00    -0.161 NA
BRANCH  10  11
ATOM     11  C   UNL     1      -2.400  -2.110  24.602  0.00  0.00    +0.076 A 
ATOM     12  C   UNL     1      -2.986  -2.202  24.029  0.00  0.00    +0.028 A 
ATOM     13  C   UNL     1      -3.735  -2.473  24.245  0.00  0.00    +0.059 A 
ATOM     14 CL   UNL     1      -4.322  -2.565  23.672  0.00  0.00    -0.082 Cl
ATOM     15  C   UNL     1      -3.897  -2.651  25.034  0.00  0.00    +0.011 A 
ATOM     16  C   UNL     1      -3.311  -2.559  25.607  0.00  0.00    +0.002 A 
ATOM     17  C   UNL     1      -2.562  -2.288  25.391  0.00  0.00    +0.017 A 
ENDBRANCH  10  11
ENDBRANCH   6   7
ENDBRANCH   5   6
TORSDOF 6
ENDMDL
MODEL 3
REMARK VINA RESULT:     -10.2      3.855      5.135
REMARK  Name = 
REMARK  6 active torsions:
REMARK  status: ('A' for Active; 'I' for Inactive)
REMARK    1  A    between atoms: C_2  and  C_3
REMARK    2  A    between atoms: C_5  and  C_6
REMARK    3  A    between atoms: C_6  and  N_7
REMARK    4  A    between atoms: N_10  and  C_11
REMARK    5  A    between atoms: C_18  and  N_21
REMARK    6  A    between atoms: N_24  and  C_27
REMARK                            x       y       z     vdW  Elec       q    Type
REMARK                         _______ _______ _______ _____ _____    ______ ____
ROOT
ATOM      3  C   UNL     1      -1.075  -1.002  24.488  0.00  0.00    +0.180 C 
ATOM      4  O   UNL     1      -0.374  -0.840  24.083  0.00  0.00    -0.350 OA
ATOM      5  C   UNL     1      -0.266  -0.021  24.079  0.00  0.00    +0.154 C 
ATOM     18  C   UNL     1      -0.900   0.322  24.480  0.00  0.00    +0.120 C 
ATOM     19  C   UNL     1      -1.400  -0.284  24.733  0.00  0.00    +0.198 C 
ATOM     20  O   UNL     1      -2.102  -0.189  25.157  0.00  0.00    -0.219 OA
ENDROOT
BRANCH  18  21
ATOM     21  N   UNL     1      -1.014   1.129  24.607  0.00  0.00    -0.267 NA
ATOM     22  C   UNL     1      -0.756   1.476  25.310  0.00  0.00    +0.094 C 
ATOM     23  C   UNL     1      -0.870   2.284  25.437  0.00  0.00    +0.108 C 
ATOM     24  N   UNL     1      -1.242   2.743  24.861  0.00  0.00    -0.305 N 
ATOM     25  C   UNL     1      -1.500   2.396  24.159  0.00  0.00    +0.108 C 
ATOM     26  C   UNL     1      -1.386   1.588  24.032  0.00  0.00    +0.094 C 
BRANCH  24  27
ATOM     27  C   UNL     1      -1.356   3.551  24.988  0.00  0.00    +0.048 A 
ATOM     28  C   UNL     1      -0.774   4.089  24.764  0.00  0.00    +0.015 A 
ATOM     29  C   UNL     1      -0.888   4.897  24.891  0.00  0.00    +0.001 A 
ATOM     30  C   UNL     1      -1.585   5.165  25.243  0.00  0.00    +0.000 A 
ATOM     31  C   UNL     1      -2.167   4.625  25.467  0.00  0.00    +0.001 A 
ATOM     32  C   UNL     1      -2.052   3.818  25.340  0.00  0.00    +0.015 A 
ENDBRANCH  24  27
ENDBRANCH  18  21
BRANCH   3   2
ATOM      1  O   UNL     1      -1.391  -2.315  24.021  0.00  0.00    -0.218 OA
ATOM      2  C   UNL     1      -1.394  -1.750  24.623  0.00  0.00    +0.214 C 
ENDBRANCH   3   2
BRANCH   5   6
ATOM      6  C   UNL     1       0.365   0.382  23.733  0.00  0.00    +0.148 C 
BRANCH   6   7
ATOM      7  N   UNL     1       0.944  -0.035  23.321  0.00  0.00    -0.184 NA
ATOM      8  C   UNL     1       1.717   0.254  23.291  0.00  0.00    +0.344 C 
ATOM      9  O   UNL     1       1.910   0.958  23.673  0.00  0.00    -0.249 OA
ATOM     10  N   UNL     1       2.297  -0.164  22.877  0.00  0.00    -0.161 NA
BRANCH  10  11
ATOM     11  C   UNL     1       3.070   0.125  22.847  0.00  0.00    +0.076 A 
ATOM     12  C   UNL     1       3.673  -0.269  23.249  0.00  0.00    +0.028 A 
ATOM     13  C   UNL     1       4.445   0.019  23.220  0.00  0.00    +0.059 A 
ATOM     14 CL   UNL     1       5.049  -0.375  23.622  0.00  0.00    -0.082 Cl
ATOM     15  C   UNL     1       4.615   0.701  22.788  0.00  0.00    +0.011 A 
ATOM     16  C   UNL     1       4.012   1.095  22.386  0.00  0.00    +0.002 A 
ATOM     17  C   UNL     1       3.240   0.807  22.415  0.00  0.00    +0.017 A 
ENDBRANCH  10  11
ENDBRANCH   6   7
ENDBRANCH   5   6
TORSDOF 6
ENDMDL
MODEL 4
REMARK VINA RESULT:      -9.8      1.758      5.215
REMARK  Name = 
REMARK  6 active torsions:
REMARK  status: ('A' for Active; 'I' for Inactive)
REMARK    1  A    between atoms: C_2  and  C_3
REMARK    2  A    between atoms: C_5  and  C_6
REMARK    3  A    between atoms: C_6  and  N_7
REMARK    4  A    between atoms: N_10  and  C_11
REMARK    5  A    between atoms: C_18  and  N_21
REMARK    6  A    between atoms: N_24  and  C_27
REMARK                            x       y       z     vdW  Elec       q    Type
REMARK                         _______ _______ _______ _____ _____    ______ ____
ROOT
ATOM      3  C   UNL     1      -5.661   2.299  25.366  0.00  0.00    +0.180 C 
ATOM      4  O   UNL     1      -4.916   2.643  25.287  0.00  0.00    -0.350 OA
ATOM      5  C   UNL     1      -4.373   2.041  25.130  0.00  0.00    +0.154 C 
ATOM     18  C   UNL     1      -4.783   1.326  25.113  0.00  0.00    +0.120 C 
ATOM     19  C   UNL     1      -5.580   1.485  25.258  0.00  0.00    +0.198 C 
ATOM     20  O   UNL     1      -6.188   0.928  25.290  0.00  0.00    -0.219 OA
ENDROOT
BRANCH  18  21
ATOM     21  N   UNL     1      -4.455   0.582  24.974  0.00  0.00    -0.267 NA
ATOM     22  C   UNL     1      -4.220   0.110  25.609  0.00  0.00    +0.094 C 
ATOM     23  C   UNL     1      -3.892  -0.635  25.471  0.00  0.00    +0.108 C 
ATOM     24  N   UNL     1      -3.798  -0.907  24.697  0.00  0.00    -0.305 N 
ATOM     25  C   UNL     1      -4.033  -0.435  24.063  0.00  0.00    +0.108 C 
ATOM     26  C   UNL     1      -4.361   0.310  24.201  0.00  0.00    +0.094 C 
BRANCH  24  27
ATOM     27  C   UNL     1      -3.470  -1.651  24.559  0.00  0.00    +0.048 A 
ATOM     28  C   UNL     1      -3.955  -2.281  24.338  0.00  0.00    +0.015 A 
ATOM     29  C   UNL     1      -3.626  -3.025  24.200  0.00  0.00    +0.001 A 
ATOM     30  C   UNL     1      -2.813  -3.140  24.283  0.00  0.00    +0.000 A 
ATOM     31  C   UNL     1      -2.329  -2.509  24.504  0.00  0.00    +0.001 A 
ATOM     32  C   UNL     1      -2.658  -1.765  24.642  0.00  0.00    +0.015 A 
ENDBRANCH  24  27
ENDBRANCH  18  21
BRANCH   3   2
ATOM      1  O   UNL     1      -6.345   3.479  25.792  0.00  0.00    -0.218 OA
ATOM      2  C   UNL     1      -6.365   2.699  25.524  0.00  0.00    +0.214 C 
ENDBRANCH   3   2
BRANCH   5   6
ATOM      6  C   UNL     1      -3.562   2.139  25.013  0.00  0.00    +0.148 C 
BRANCH   6   7
ATOM      7  N   UNL     1      -3.135   2.657  25.491  0.00  0.00    -0.184 NA
ATOM      8  C   UNL     1      -2.523   3.107  25.168  0.00  0.00    +0.344 C 
ATOM      9  O   UNL     1      -2.339   3.039  24.367  0.00  0.00    -0.249 OA
ATOM     10  N   UNL     1      -2.096   3.626  25.647  0.00  0.00    -0.161 NA
BRANCH  10  11
ATOM     11  C   UNL     1      -1.484   4.077  25.324  0.00  0.00    +0.076 A 
ATOM     12  C   UNL     1      -1.591   4.884  25.194  0.00  0.00    +0.028 A 
ATOM     13  C   UNL     1      -0.981   5.334  24.871  0.00  0.00    +0.059 A 
ATOM     14 CL   UNL     1      -1.088   6.142  24.741  0.00  0.00    -0.082 Cl
ATOM     15  C   UNL     1      -0.262   4.976  24.679  0.00  0.00    +0.011 A 
ATOM     16  C   UNL     1      -0.155   4.169  24.809  0.00  0.00    +0.002 A 
ATOM     17  C   UNL     1      -0.766   3.719  25.132  0.00  0.00    +0.017 A 
ENDBRANCH  10  11
ENDBRANCH   6   7
ENDBRANCH   5   6
TORSDOF 6
ENDMDL
MODEL 5
REMARK VINA RESULT:      -9.6      2.989      6.586
REMARK  Name = 
REMARK  6 active torsions:
REMARK  status: ('A' for Active; 'I' for Inactive)
REMARK    1  A    between atoms: C_2  and  C_3
REMARK    2  A    between atoms: C_5  and  C_6
REMARK    3  A    between atoms: C_6  and  N_7
REMARK    4  A    between atoms: N_10  and  C_11
REMARK    5  A    between atoms: C_18  and  N_21
REMARK    6  A    between atoms: N_24  and  C_27
REMARK                            x       y       z     vdW  Elec       q    Type
REMARK                         _______ _______ _______ _____ _____    ______ ____
ROOT
ATOM      3  C   UNL     1       1.437   0.531  23.316  0.00  0.00    +0.180 C 
ATOM      4  O   UNL     1       1.025   1.210  23.538  0.00  0.00    -0.350 OA
ATOM      5  C   UNL     1       0.287   0.979  23.827  0.00  0.00    +0.154 C 
ATOM     18  C   UNL     1       0.243   0.156  23.783  0.00  0.00    +0.120 C 
ATOM     19  C   UNL     1       0.953  -0.121  23.467  0.00  0.00    +0.198 C 
ATOM     20  O   UNL     1       1.146  -0.912  23.328  0.00  0.00    -0.219 OA
ENDROOT
BRANCH  18  21
ATOM     21  N   UNL     1      -0.399  -0.308  24.014  0.00  0.00    -0.267 NA
ATOM     22  C   UNL     1      -0.383  -0.701  24.739  0.00  0.00    +0.094 C 
ATOM     23  C   UNL     1      -1.025  -1.165  24.971  0.00  0.00    +0.108 C 
ATOM     24  N   UNL     1      -1.682  -1.236  24.476  0.00  0.00    -0.305 N 
ATOM     25  C   UNL     1      -1.697  -0.844  23.752  0.00  0.00    +0.108 C 
ATOM     26  C   UNL     1      -1.055  -0.379  23.520  0.00  0.00    +0.094 C 
BRANCH  24  27
ATOM     27  C   UNL     1      -2.324  -1.701  24.708  0.00  0.00    +0.048 A 
ATOM     28  C   UNL     1      -2.402  -2.469  24.419  0.00  0.00    +0.015 A 
ATOM     29  C   UNL     1      -3.044  -2.934  24.651  0.00  0.00    +0.001 A 
ATOM     30  C   UNL     1      -3.607  -2.629  25.171  0.00  0.00    +0.000 A 
ATOM     31  C   UNL     1      -3.529  -1.860  25.459  0.00  0.00    +0.001 A 
ATOM     32  C   UNL     1      -2.887  -1.396  25.227  0.00  0.00    +0.015 A 
ENDBRANCH  24  27
ENDBRANCH  18  21
BRANCH   3   2
ATOM      1  O   UNL     1       2.722   1.128  23.137  0.00  0.00    -0.218 OA
ATOM      2  C   UNL     1       2.197   0.506  22.999  0.00  0.00    +0.214 C 
ENDBRANCH   3   2
BRANCH   5   6
ATOM      6  C   UNL     1      -0.302   1.482  24.109  0.00  0.00    +0.148 C 
BRANCH   6   7
ATOM      7  N   UNL     1      -0.099   2.150  24.548  0.00  0.00    -0.184 NA
ATOM      8  C   UNL     1      -0.649   2.755  24.656  0.00  0.00    +0.344 C 
ATOM      9  O   UNL     1      -1.401   2.694  24.325  0.00  0.00    -0.249 OA
ATOM     10  N   UNL     1      -0.445   3.424  25.096  0.00  0.00    -0.161 NA
BRANCH  10  11
ATOM     11  C   UNL     1      -0.995   4.029  25.204  0.00  0.00    +0.076 A 
ATOM     12  C   UNL     1      -1.668   3.898  25.662  0.00  0.00    +0.028 A 
ATOM     13  C   UNL     1      -2.218   4.503  25.770  0.00  0.00    +0.059 A 
ATOM     14 CL   UNL     1      -2.892   4.372  26.228  0.00  0.00    -0.082 Cl
ATOM     15  C   UNL     1      -2.094   5.240  25.420  0.00  0.00    +0.011 A 
ATOM     16  C   UNL     1      -1.421   5.372  24.963  0.00  0.00    +0.002 A 
ATOM     17  C   UNL     1      -0.871   4.767  24.854  0.00  0.00    +0.017 A 
ENDBRANCH  10  11
ENDBRANCH   6   7
ENDBRANCH   5   6
TORSDOF 6
ENDMDL
MODEL 6
REMARK VINA RESULT:      -9.6      2.044      3.721
REMARK  Name = 
REMARK  6 active torsions:
REMARK  status: ('A' for Active; 'I' for Inactive)
REMARK    1  A    between atoms: C_2  and  C_3
REMARK    2  A    between atoms: C_5  and  C_6
REMARK    3  A    between atoms: C_6  and  N_7
REMARK    4  A    between atoms: N_10  and  C_11
REMARK    5  A    between atoms: C_18  and  N_21
REMARK    6  A    between atoms: N_24  and  C_27
REMARK                            x       y       z     vdW  Elec       q    Type
REMARK                         _______ _______ _______ _____ _____    ______ ____
ROOT
ATOM      3  C   UNL     1       0.025   2.042  24.383  0.00  0.00    +0.180 C 
ATOM      4  O   UNL     1      -0.250   1.285  24.560  0.00  0.00    -0.350 OA
ATOM      5  C   UNL     1      -1.052   1.343  24.750  0.00  0.00    +0.154 C 
ATOM     18  C   UNL     1      -1.271   2.137  24.691  0.00  0.00    +0.120 C 
ATOM     19  C   UNL     1      -0.605   2.569  24.465  0.00  0.00    +0.198 C 
ATOM     20  O   UNL     1      -0.575   3.384  24.341  0.00  0.00    -0.219 OA
ENDROOT
BRANCH  18  21
ATOM     21  N   UNL     1      -2.023   2.444  24.834  0.00  0.00    -0.267 NA
ATOM     22  C   UNL     1      -2.566   2.507  24.216  0.00  0.00    +0.094 C 
ATOM     23  C   UNL     1      -3.319   2.814  24.358  0.00  0.00    +0.108 C 
ATOM     24  N   UNL     1      -3.527   3.058  25.118  0.00  0.00    -0.305 N 
ATOM     25  C   UNL     1      -2.984   2.995  25.735  0.00  0.00    +0.108 C 
ATOM     26  C   UNL     1      -2.232   2.688  25.593  0.00  0.00    +0.094 C 
BRANCH  24  27
ATOM     27  C   UNL     1      -4.280   3.366  25.261  0.00  0.00    +0.048 A 
ATOM     28  C   UNL     1      -4.897   2.862  25.473  0.00  0.00    +0.015 A 
ATOM     29  C   UNL     1      -5.650   3.170  25.615  0.00  0.00    +0.001 A 
ATOM     30  C   UNL     1      -5.785   3.981  25.545  0.00  0.00    +0.000 A 
ATOM     31  C   UNL     1      -5.166   4.484  25.332  0.00  0.00    +0.001 A 
ATOM     32  C   UNL     1      -4.415   4.176  25.190  0.00  0.00    +0.015 A 
ENDBRANCH  24  27
ENDBRANCH  18  21
BRANCH   3   2
ATOM      1  O   UNL     1       1.311   1.652  23.897  0.00  0.00    -0.218 OA
ATOM      2  C   UNL     1       0.795   2.239  24.165  0.00  0.00    +0.214 C 
ENDBRANCH   3   2
BRANCH   5   6
ATOM      6  C   UNL     1      -1.546   0.718  24.961  0.00  0.00    +0.148 C 
BRANCH   6   7
ATOM      7  N   UNL     1      -1.487  -0.005  24.570  0.00  0.00    -0.184 NA
ATOM      8  C   UNL     1      -2.048  -0.595  24.707  0.00  0.00    +0.344 C 
ATOM      9  O   UNL     1      -2.666  -0.462  25.235  0.00  0.00    -0.249 OA
ATOM     10  N   UNL     1      -1.988  -1.319  24.314  0.00  0.00    -0.161 NA
BRANCH  10  11
ATOM     11  C   UNL     1      -2.549  -1.910  24.451  0.00  0.00    +0.076 A 
ATOM     12  C   UNL     1      -3.247  -1.925  24.013  0.00  0.00    +0.028 A 
ATOM     13  C   UNL     1      -3.807  -2.514  24.150  0.00  0.00    +0.059 A 
ATOM     14 CL   UNL     1      -4.506  -2.529  23.711  0.00  0.00    -0.082 Cl
ATOM     15  C   UNL     1      -3.669  -3.089  24.725  0.00  0.00    +0.011 A 
ATOM     16  C   UNL     1      -2.970  -3.074  25.163  0.00  0.00    +0.002 A 
ATOM     17  C   UNL     1      -2.410  -2.485  25.027  0.00  0.00    +0.017 A 
ENDBRANCH  10  11
ENDBRANCH   6   7
ENDBRANCH   5   6
TORSDOF 6
ENDMDL
MODEL 7
REMARK VINA RESULT:      -9.2      3.355      5.393
REMARK  Name = 
REMARK  6 active torsions:
REMARK  status: ('A' for Active; 'I' for Inactive)
REMARK    1  A    between atoms: C_2  and  C_3
REMARK    2  A    between atoms: C_5  and  C_6
REMARK    3  A    between atoms: C_6  and  N_7
REMARK    4  A    between atoms: N_10  and  C_11
REMARK    5  A    between atoms: C_18  and  N_21
REMARK    6  A    between atoms: N_24  and  C_27
REMARK                            x       y       z     vdW  Elec       q    Type
REMARK                         _______ _______ _______ _____ _____    ______ ____
ROOT
ATOM      3  C   UNL     1      -1.519   3.083  25.143  0.00  0.00    +0.180 C 
ATOM      4  O   UNL     1      -0.823   2.764  24.836  0.00  0.00    -0.350 OA
ATOM      5  C   UNL     1      -0.968   1.974  24.643  0.00  0.00    +0.154 C 
ATOM     18  C   UNL     1      -1.753   1.805  24.832  0.00  0.00    +0.120 C 
ATOM     19  C   UNL     1      -2.094   2.491  25.141  0.00  0.00    +0.198 C 
ATOM     20  O   UNL     1      -2.873   2.570  25.401  0.00  0.00    -0.219 OA
ENDROOT
BRANCH  18  21
ATOM     21  N   UNL     1      -2.131   1.080  24.729  0.00  0.00    -0.267 NA
ATOM     22  C   UNL     1      -2.081   0.502  25.317  0.00  0.00    +0.094 C 
ATOM     23  C   UNL     1      -2.459  -0.225  25.215  0.00  0.00    +0.108 C 
ATOM     24  N   UNL     1      -2.887  -0.373  24.525  0.00  0.00    -0.305 N 
ATOM     25  C   UNL     1      -2.938   0.204  23.939  0.00  0.00    +0.108 C 
ATOM     26  C   UNL     1      -2.559   0.931  24.041  0.00  0.00    +0.094 C 
BRANCH  24  27
ATOM     27  C   UNL     1      -3.266  -1.099  24.423  0.00  0.00    +0.048 A 
ATOM     28  C   UNL     1      -3.978  -1.138  24.010  0.00  0.00    +0.015 A 
ATOM     29  C   UNL     1      -4.356  -1.865  23.908  0.00  0.00    +0.001 A 
ATOM     30  C   UNL     1      -4.022  -2.552  24.220  0.00  0.00    +0.000 A 
ATOM     31  C   UNL     1      -3.309  -2.512  24.633  0.00  0.00    +0.001 A 
ATOM     32  C   UNL     1      -2.931  -1.785  24.735  0.00  0.00    +0.015 A 
ENDBRANCH  24  27
ENDBRANCH  18  21
BRANCH   3   2
ATOM      1  O   UNL     1      -1.063   4.435  25.218  0.00  0.00    -0.218 OA
ATOM      2  C   UNL     1      -1.622   3.857  25.406  0.00  0.00    +0.214 C 
ENDBRANCH   3   2
BRANCH   5   6
ATOM      6  C   UNL     1      -0.423   1.447  24.319  0.00  0.00    +0.148 C 
BRANCH   6   7
ATOM      7  N   UNL     1       0.345   1.697  24.152  0.00  0.00    -0.184 NA
ATOM      8  C   UNL     1       0.860   1.202  23.740  0.00  0.00    +0.344 C 
ATOM      9  O   UNL     1       0.608   0.457  23.494  0.00  0.00    -0.249 OA
ATOM     10  N   UNL     1       1.629   1.454  23.573  0.00  0.00    -0.161 NA
BRANCH  10  11
ATOM     11  C   UNL     1       2.144   0.958  23.160  0.00  0.00    +0.076 A 
ATOM     12  C   UNL     1       2.958   1.078  23.209  0.00  0.00    +0.028 A 
ATOM     13  C   UNL     1       3.474   0.583  22.796  0.00  0.00    +0.059 A 
ATOM     14 CL   UNL     1       4.289   0.703  22.845  0.00  0.00    -0.082 Cl
ATOM     15  C   UNL     1       3.174  -0.032  22.335  0.00  0.00    +0.011 A 
ATOM     16  C   UNL     1       2.359  -0.152  22.286  0.00  0.00    +0.002 A 
ATOM     17  C   UNL     1       1.844   0.343  22.699  0.00  0.00    +0.017 A 
ENDBRANCH  10  11
ENDBRANCH   6   7
ENDBRANCH   5   6
TORSDOF 6
ENDMDL
MODEL 8
REMARK VINA RESULT:      -8.9     16.385     19.310
REMARK  Name = 
REMARK  6 active torsions:
REMARK  status: ('A' for Active; 'I' for Inactive)
REMARK    1  A    between atoms: C_2  and  C_3
REMARK    2  A    between atoms: C_5  and  C_6
REMARK    3  A    between atoms: C_6  and  N_7
REMARK    4  A    between atoms: N_10  and  C_11
REMARK    5  A    between atoms: C_18  and  N_21
REMARK    6  A    between atoms: N_24  and  C_27
REMARK                            x       y       z     vdW  Elec       q    Type
REMARK                         _______ _______ _______ _____ _____    ______ ____
ROOT
ATOM      3  C   UNL     1      12.834   8.837  16.859  0.00  0.00    +0.180 C 
ATOM      4  O   UNL     1      12.452   8.950  17.582  0.00  0.00    -0.350 OA
ATOM      5  C   UNL     1      12.935   8.644  18.177  0.00  0.00    +0.154 C 
ATOM     18  C   UNL     1      13.615   8.340  17.822  0.00  0.00    +0.120 C 
ATOM     19  C   UNL     1      13.553   8.460  17.008  0.00  0.00    +0.198 C 
ATOM     20  O   UNL     1      14.112   8.240  16.441  0.00  0.00    -0.219 OA
ENDROOT
BRANCH  18  21
ATOM     21  N   UNL     1      14.246   7.981  18.212  0.00  0.00    -0.267 NA
ATOM     22  C   UNL     1      14.330   7.160  18.193  0.00  0.00    +0.094 C 
ATOM     23  C   UNL     1      14.962   6.800  18.584  0.00  0.00    +0.108 C 
ATOM     24  N   UNL     1      15.510   7.262  18.993  0.00  0.00    -0.305 N 
ATOM     25  C   UNL     1      15.426   8.082  19.012  0.00  0.00    +0.108 C 
ATOM     26  C   UNL     1      14.794   8.442  18.622  0.00  0.00    +0.094 C 
BRANCH  24  27
ATOM     27  C   UNL     1      16.142   6.902  19.384  0.00  0.00    +0.048 A 
ATOM     28  C   UNL     1      16.683   6.447  18.959  0.00  0.00    +0.015 A 
ATOM     29  C   UNL     1      17.315   6.087  19.350  0.00  0.00    +0.001 A 
ATOM     30  C   UNL     1      17.405   6.182  20.165  0.00  0.00    +0.000 A 
ATOM     31  C   UNL     1      16.862   6.638  20.588  0.00  0.00    +0.001 A 
ATOM     32  C   UNL     1      16.231   6.997  20.198  0.00  0.00    +0.015 A 
ENDBRANCH  24  27
ENDBRANCH  18  21
BRANCH   3   2
ATOM      1  O   UNL     1      11.742   8.996  15.952  0.00  0.00    -0.218 OA
ATOM      2  C   UNL     1      12.548   9.060  16.120  0.00  0.00    +0.214 C 
ENDBRANCH   3   2
BRANCH   5   6
ATOM      6  C   UNL     1      12.766   8.641  18.984  0.00  0.00    +0.148 C 
BRANCH   6   7
ATOM      7  N   UNL     1      11.993   8.759  19.245  0.00  0.00    -0.184 NA
ATOM      8  C   UNL     1      11.787   8.576  20.023  0.00  0.00    +0.344 C 
ATOM      9  O   UNL     1      12.355   8.275  20.540  0.00  0.00    -0.249 OA
ATOM     10  N   UNL     1      11.013   8.695  20.283  0.00  0.00    -0.161 NA
BRANCH  10  11
ATOM     11  C   UNL     1      10.807   8.512  21.061  0.00  0.00    +0.076 A 
ATOM     12  C   UNL     1      10.566   7.748  21.255  0.00  0.00    +0.028 A 
ATOM     13  C   UNL     1      10.360   7.564  22.032  0.00  0.00    +0.059 A 
ATOM     14 CL   UNL     1      10.118   6.799  22.226  0.00  0.00    -0.082 Cl
ATOM     15  C   UNL     1      10.396   8.146  22.616  0.00  0.00    +0.011 A 
ATOM     16  C   UNL     1      10.638   8.910  22.423  0.00  0.00    +0.002 A 
ATOM     17  C   UNL     1      10.843   9.094  21.645  0.00  0.00    +0.017 A 
ENDBRANCH  10  11
ENDBRANCH   6   7
ENDBRANCH   5   6
TORSDOF 6
ENDMDL
MODEL 9
REMARK VINA RESULT:      -8.1     16.292     19.061
REMARK  Name = 
REMARK  6 active torsions:
REMARK  status: ('A' for Active; 'I' for Inactive)
REMARK    1  A    between atoms: C_2  and  C_3
REMARK    2  A    between atoms: C_5  and  C_6
REMARK    3  A    between atoms: C_6  and  N_7
REMARK    4  A    between atoms: N_10  and  C_11
REMARK    5  A    between atoms: C_18  and  N_21
REMARK    6  A    between atoms: N_24  and  C_27
REMARK                            x       y       z     vdW  Elec       q    Type
REMARK                         _______ _______ _______ _____ _____    ______ ____
ROOT
ATOM      3  C   UNL     1      12.472   8.516  17.175  0.00  0.00    +0.180 C 
ATOM      4  O   UNL     1      13.143   8.127  17.455  0.00  0.00    -0.350 OA
ATOM      5  C   UNL     1      13.053   8.016  18.268  0.00  0.00    +0.154 C 
ATOM     18  C   UNL     1      12.326   8.335  18.490  0.00  0.00    +0.120 C 
ATOM     19  C   UNL     1      11.966   8.644  17.815  0.00  0.00    +0.198 C 
ATOM     20  O   UNL     1      11.230   9.016  17.785  0.00  0.00    -0.219 OA
ENDROOT
BRANCH  18  21
ATOM     21  N   UNL     1      12.013   8.344  19.253  0.00  0.00    -0.267 NA
ATOM     22  C   UNL     1      12.028   9.040  19.697  0.00  0.00    +0.094 C 
ATOM     23  C   UNL     1      11.715   9.049  20.461  0.00  0.00    +0.108 C 
ATOM     24  N   UNL     1      11.387   8.362  20.780  0.00  0.00    -0.305 N 
ATOM     25  C   UNL     1      11.372   7.668  20.337  0.00  0.00    +0.108 C 
ATOM     26  C   UNL     1      11.685   7.658  19.573  0.00  0.00    +0.094 C 
BRANCH  24  27
ATOM     27  C   UNL     1      11.074   8.372  21.544  0.00  0.00    +0.048 A 
ATOM     28  C   UNL     1      10.520   7.804  21.769  0.00  0.00    +0.015 A 
ATOM     29  C   UNL     1      10.207   7.814  22.533  0.00  0.00    +0.001 A 
ATOM     30  C   UNL     1      10.448   8.391  23.071  0.00  0.00    +0.000 A 
ATOM     31  C   UNL     1      11.003   8.959  22.844  0.00  0.00    +0.001 A 
ATOM     32  C   UNL     1      11.315   8.949  22.081  0.00  0.00    +0.015 A 
ENDBRANCH  24  27
ENDBRANCH  18  21
BRANCH   3   2
ATOM      1  O   UNL     1      12.803   8.436  15.788  0.00  0.00    -0.218 OA
ATOM      2  C   UNL     1      12.330   8.737  16.394  0.00  0.00    +0.214 C 
ENDBRANCH   3   2
BRANCH   5   6
ATOM      6  C   UNL     1      13.596   7.649  18.769  0.00  0.00    +0.148 C 
BRANCH   6   7
ATOM      7  N   UNL     1      14.405   7.750  18.647  0.00  0.00    -0.184 NA
ATOM      8  C   UNL     1      14.947   7.296  19.073  0.00  0.00    +0.344 C 
ATOM      9  O   UNL     1      14.679   6.742  19.621  0.00  0.00    -0.249 OA
ATOM     10  N   UNL     1      15.757   7.398  18.950  0.00  0.00    -0.161 NA
BRANCH  10  11
ATOM     11  C   UNL     1      16.298   6.944  19.376  0.00  0.00    +0.076 A 
ATOM     12  C   UNL     1      16.567   7.205  20.111  0.00  0.00    +0.028 A 
ATOM     13  C   UNL     1      17.109   6.752  20.537  0.00  0.00    +0.059 A 
ATOM     14 CL   UNL     1      17.378   7.013  21.272  0.00  0.00    -0.082 Cl
ATOM     15  C   UNL     1      17.381   6.037  20.228  0.00  0.00    +0.011 A 
ATOM     16  C   UNL     1      17.112   5.776  19.493  0.00  0.00    +0.002 A 
ATOM     17  C   UNL     1      16.571   6.229  19.067  0.00  0.00    +0.017 A 
ENDBRANCH  10  11
ENDBRANCH   6   7
ENDBRANCH   5   6
TORSDOF 6
ENDMDL
