MODEL 1
REMARK VINA RESULT:     -12.2      0.000      0.000
REMARK  Name = 
REMARK  5 active torsions:
REMARK  status: ('A' for Active; 'I' for Inactive)
REMARK    1  A    between atoms: O_2  and  C_3
REMARK    2  A    between atoms: C_6  and  C_9
REMARK    3  A    between atoms: C_12  and  C_14
REMARK    4  A    between atoms: N_17  and  C_18
REMARK    5  A    between atoms: C_18  and  C_19
REMARK                            x       y       z     vdW  Elec       q    Type
REMARK                         _______ _______ _______ _____ _____    ______ ____
ROOT
ATOM     14  C   UNL     1      -4.053   2.375  24.813  0.00  0.00    +0.096 C 
ATOM     15  C   UNL     1      -4.291   2.989  24.316  0.00  0.00    +0.028 C 
ATOM     16  C   UNL     1      -3.859   3.662  24.517  0.00  0.00    +0.073 C 
ATOM     17  N   UNL     1      -3.353   3.463  25.138  0.00  0.00    -0.268 NA
ATOM     28  C   UNL     1      -3.474   2.667  25.321  0.00  0.00    +0.082 C 
ENDROOT
BRANCH  14  12
ATOM      9  C   UNL     1      -4.408   0.271  24.743  0.00  0.00    +0.250 A 
ATOM     10  N   UNL     1      -5.177   0.559  24.830  0.00  0.00    -0.107 NA
ATOM     11  N   UNL     1      -5.137   1.382  24.867  0.00  0.00    -0.111 NA
ATOM     12  C   UNL     1      -4.345   1.602  24.803  0.00  0.00    +0.227 A 
ATOM     13  O   UNL     1      -3.894   0.915  24.726  0.00  0.00    -0.419 OA
BRANCH   9   6
ATOM      3  C   UNL     1      -3.760  -2.112  24.566  0.00  0.00    +0.139 A 
ATOM      4  C   UNL     1      -4.131  -1.736  23.931  0.00  0.00    +0.037 A 
ATOM      5  C   UNL     1      -4.347  -0.943  23.990  0.00  0.00    +0.008 A 
ATOM      6  C   UNL     1      -4.192  -0.523  24.684  0.00  0.00    +0.055 A 
ATOM      7  C   UNL     1      -3.822  -0.898  25.318  0.00  0.00    +0.008 A 
ATOM      8  C   UNL     1      -3.606  -1.692  25.260  0.00  0.00    +0.037 A 
BRANCH   3   2
ATOM      1  C   UNL     1      -2.754  -3.110  24.392  0.00  0.00    +0.252 C 
ATOM      2  O   UNL     1      -3.545  -2.905  24.507  0.00  0.00    -0.471 OA
ENDBRANCH   3   2
ENDBRANCH   9   6
ENDBRANCH  14  12
BRANCH  17  18
ATOM     18  C   UNL     1      -2.821   3.971  25.512  0.00  0.00    +0.099 C 
BRANCH  18  19
ATOM     19  C   UNL     1      -2.013   3.802  25.502  0.00  0.00    -0.003 A 
ATOM     20  C   UNL     1      -1.514   4.198  24.978  0.00  0.00    +0.000 A 
ATOM     21  C   UNL     1      -0.707   4.029  24.969  0.00  0.00    +0.040 A 
ATOM     22  C   UNL     1      -0.398   3.463  25.484  0.00  0.00    +0.176 A 
ATOM     23  O   UNL     1       0.368   3.182  25.600  0.00  0.00    -0.435 OA
ATOM     24  C   UNL     1       0.343   2.611  26.195  0.00  0.00    +0.429 C 
ATOM     25  O   UNL     1      -0.439   2.540  26.447  0.00  0.00    -0.435 OA
ATOM     26  C   UNL     1      -0.897   3.066  26.008  0.00  0.00    +0.176 A 
ATOM     27  C   UNL     1      -1.705   3.236  26.017  0.00  0.00    +0.037 A 
ENDBRANCH  18  19
ENDBRANCH  17  18
TORSDOF 5
ENDMDL
MODEL 2
REMARK VINA RESULT:     -11.2      1.512      5.046
REMARK  Name = 
REMARK  5 active torsions:
REMARK  status: ('A' for Active; 'I' for Inactive)
REMARK    1  A    between atoms: O_2  and  C_3
REMARK    2  A    between atoms: C_6  and  C_9
REMARK    3  A    between atoms: C_12  and  C_14
REMARK    4  A    between atoms: N_17  and  C_18
REMARK    5  A    between atoms: C_18  and  C_19
REMARK                            x       y       z     vdW  Elec       q    Type
REMARK                         _______ _______ _______ _____ _____    ______ ____
ROOT
ATOM     14  C   UNL     1      -4.239   0.735  24.895  0.00  0.00    +0.096 C 
ATOM     15  C   UNL     1      -4.658   0.349  24.298  0.00  0.00    +0.028 C 
ATOM     16  C   UNL     1      -4.558  -0.463  24.401  0.00  0.00    +0.073 C 
ATOM     17  N   UNL     1      -4.078  -0.579  25.061  0.00  0.00    -0.268 NA
ATOM     28  C   UNL     1      -3.881   0.162  25.367  0.00  0.00    +0.082 C 
ENDROOT
BRANCH  14  12
ATOM      9  C   UNL     1      -3.698   2.786  25.136  0.00  0.00    +0.250 A 
ATOM     10  N   UNL     1      -4.521   2.831  25.191  0.00  0.00    -0.107 NA
ATOM     11  N   UNL     1      -4.822   2.068  25.107  0.00  0.00    -0.111 NA
ATOM     12  C   UNL     1      -4.188   1.552  25.001  0.00  0.00    +0.227 A 
ATOM     13  O   UNL     1      -3.493   1.996  25.018  0.00  0.00    -0.419 OA
BRANCH   9   6
ATOM      3  C   UNL     1      -2.124   4.690  25.295  0.00  0.00    +0.139 A 
ATOM      4  C   UNL     1      -2.567   4.464  25.953  0.00  0.00    +0.037 A 
ATOM      5  C   UNL     1      -3.092   3.830  25.901  0.00  0.00    +0.008 A 
ATOM      6  C   UNL     1      -3.173   3.420  25.189  0.00  0.00    +0.055 A 
ATOM      7  C   UNL     1      -2.731   3.645  24.531  0.00  0.00    +0.008 A 
ATOM      8  C   UNL     1      -2.206   4.280  24.583  0.00  0.00    +0.037 A 
BRANCH   3   2
ATOM      1  C   UNL     1      -0.875   5.294  24.954  0.00  0.00    +0.252 C 
ATOM      2  O   UNL     1      -1.600   5.324  25.348  0.00  0.00    -0.471 OA
ENDBRANCH   3   2
ENDBRANCH   9   6
ENDBRANCH  14  12
BRANCH  17  18
ATOM     18  C   UNL     1      -3.838  -1.308  25.364  0.00  0.00    +0.099 C 
BRANCH  18  19
ATOM     19  C   UNL     1      -3.099  -1.616  25.160  0.00  0.00    -0.003 A 
ATOM     20  C   UNL     1      -3.047  -2.239  24.622  0.00  0.00    +0.000 A 
ATOM     21  C   UNL     1      -2.309  -2.547  24.418  0.00  0.00    +0.040 A 
ATOM     22  C   UNL     1      -1.624  -2.232  24.753  0.00  0.00    +0.176 A 
ATOM     23  O   UNL     1      -0.827  -2.421  24.660  0.00  0.00    -0.435 OA
ATOM     24  C   UNL     1      -0.387  -1.915  25.140  0.00  0.00    +0.429 C 
ATOM     25  O   UNL     1      -0.912  -1.414  25.531  0.00  0.00    -0.435 OA
ATOM     26  C   UNL     1      -1.676  -1.610  25.292  0.00  0.00    +0.176 A 
ATOM     27  C   UNL     1      -2.415  -1.302  25.496  0.00  0.00    +0.037 A 
ENDBRANCH  18  19
ENDBRANCH  17  18
TORSDOF 5
ENDMDL
MODEL 3
REMARK VINA RESULT:     -11.2      1.956      3.085
REMARK  Name = 
REMARK  5 active torsions:
REMARK  status: ('A' for Active; 'I' for Inactive)
REMARK    1  A    between atoms: O_2  and  C_3
REMARK    2  A    between atoms: C_6  and  C_9
REMARK    3  A    between atoms: C_12  and  C_14
REMARK    4  A    between atoms: N_17  and  C_18
REMARK    5  A    between atoms: C_18  and  C_19
REMARK                            x       y       z     vdW  Elec       q    Type
REMARK                         _______ _______ _______ _____ _____    ______ ____
ROOT
ATOM     14  C   UNL     1      -0.832   1.502  25.298  0.00  0.00    +0.096 C 
ATOM     15  C   UNL     1      -0.248   1.869  25.752  0.00  0.00    +0.028 C 
ATOM     16  C   UNL     1      -0.395   2.681  25.747  0.00  0.00    +0.073 C 
ATOM     17  N   UNL     1      -1.069   2.815  25.291  0.00  0.00    -0.268 NA
ATOM     28  C   UNL     1      -1.339   2.086  25.013  0.00  0.00    +0.082 C 
ENDROOT
BRANCH  14  12
ATOM      9  C   UNL     1      -1.405  -0.530  24.984  0.00  0.00    +0.250 A 
ATOM     10  N   UNL     1      -0.586  -0.579  24.886  0.00  0.00    -0.107 NA
ATOM     11  N   UNL     1      -0.273   0.177  24.992  0.00  0.00    -0.111 NA
ATOM     12  C   UNL     1      -0.896   0.692  25.155  0.00  0.00    +0.227 A 
ATOM     13  O   UNL     1      -1.596   0.254  25.151  0.00  0.00    -0.419 OA
BRANCH   9   6
ATOM      3  C   UNL     1      -3.003  -2.412  24.810  0.00  0.00    +0.139 A 
ATOM      4  C   UNL     1      -3.213  -1.729  25.223  0.00  0.00    +0.037 A 
ATOM      5  C   UNL     1      -2.681  -1.102  25.281  0.00  0.00    +0.008 A 
ATOM      6  C   UNL     1      -1.937  -1.157  24.926  0.00  0.00    +0.055 A 
ATOM      7  C   UNL     1      -1.728  -1.839  24.514  0.00  0.00    +0.008 A 
ATOM      8  C   UNL     1      -2.260  -2.467  24.455  0.00  0.00    +0.037 A 
BRANCH   3   2
ATOM      1  C   UNL     1      -4.045  -3.089  24.105  0.00  0.00    +0.252 C 
ATOM      2  O   UNL     1      -3.535  -3.039  24.752  0.00  0.00    -0.471 OA
ENDBRANCH   3   2
ENDBRANCH   9   6
ENDBRANCH  14  12
BRANCH  17  18
ATOM     18  C   UNL     1      -1.413   3.550  25.138  0.00  0.00    +0.099 C 
BRANCH  18  19
ATOM     19  C   UNL     1      -2.200   3.688  25.346  0.00  0.00    -0.003 A 
ATOM     20  C   UNL     1      -2.382   3.992  26.091  0.00  0.00    +0.000 A 
ATOM     21  C   UNL     1      -3.168   4.130  26.298  0.00  0.00    +0.040 A 
ATOM     22  C   UNL     1      -3.772   3.965  25.761  0.00  0.00    +0.176 A 
ATOM     23  O   UNL     1      -4.591   4.044  25.809  0.00  0.00    -0.435 OA
ATOM     24  C   UNL     1      -4.915   3.789  25.095  0.00  0.00    +0.429 C 
ATOM     25  O   UNL     1      -4.296   3.553  24.605  0.00  0.00    -0.435 OA
ATOM     26  C   UNL     1      -3.590   3.661  25.016  0.00  0.00    +0.176 A 
ATOM     27  C   UNL     1      -2.803   3.523  24.808  0.00  0.00    +0.037 A 
ENDBRANCH  18  19
ENDBRANCH  17  18
TORSDOF 5
ENDMDL
MODEL 4
REMARK VINA RESULT:     -10.7      2.116      3.758
REMARK  Name = 
REMARK  5 active torsions:
REMARK  status: ('A' for Active; 'I' for Inactive)
REMARK    1  A    between atoms: O_2  and  C_3
REMARK    2  A    between atoms: C_6  and  C_9
REMARK    3  A    between atoms: C_12  and  C_14
REMARK    4  A    between atoms: N_17  and  C_18
REMARK    5  A    between atoms: C_18  and  C_19
REMARK                            x       y       z     vdW  Elec       q    Type
REMARK                         _______ _______ _______ _____ _____    ______ ____
ROOT
ATOM     14  C   UNL     1      -1.668   2.954  25.164  0.00  0.00    +0.096 C 
ATOM     15  C   UNL     1      -1.462   3.701  25.447  0.00  0.00    +0.028 C 
ATOM     16  C   UNL     1      -2.105   4.203  25.332  0.00  0.00    +0.073 C 
ATOM     17  N   UNL     1      -2.709   3.768  24.978  0.00  0.00    -0.268 NA
ATOM     28  C   UNL     1      -2.439   2.995  24.874  0.00  0.00    +0.082 C 
ENDROOT
BRANCH  14  12
ATOM      9  C   UNL     1      -0.782   1.012  25.138  0.00  0.00    +0.250 A 
ATOM     10  N   UNL     1      -0.114   1.490  25.222  0.00  0.00    -0.107 NA
ATOM     11  N   UNL     1      -0.366   2.276  25.242  0.00  0.00    -0.111 NA
ATOM     12  C   UNL     1      -1.187   2.283  25.170  0.00  0.00    +0.227 A 
ATOM     13  O   UNL     1      -1.444   1.501  25.106  0.00  0.00    -0.419 OA
BRANCH   9   6
ATOM      3  C   UNL     1      -0.790  -1.460  25.004  0.00  0.00    +0.139 A 
ATOM      4  C   UNL     1      -1.130  -1.080  25.654  0.00  0.00    +0.037 A 
ATOM      5  C   UNL     1      -1.127  -0.257  25.699  0.00  0.00    +0.008 A 
ATOM      6  C   UNL     1      -0.784   0.189  25.094  0.00  0.00    +0.055 A 
ATOM      7  C   UNL     1      -0.445  -0.191  24.445  0.00  0.00    +0.008 A 
ATOM      8  C   UNL     1      -0.448  -1.015  24.400  0.00  0.00    +0.037 A 
BRANCH   3   2
ATOM      1  C   UNL     1      -1.432  -2.675  24.617  0.00  0.00    +0.252 C 
ATOM      2  O   UNL     1      -0.793  -2.283  24.960  0.00  0.00    -0.471 OA
ENDBRANCH   3   2
ENDBRANCH   9   6
ENDBRANCH  14  12
BRANCH  17  18
ATOM     18  C   UNL     1      -3.453   4.054  24.764  0.00  0.00    +0.099 C 
BRANCH  18  19
ATOM     19  C   UNL     1      -4.134   3.661  25.016  0.00  0.00    -0.003 A 
ATOM     20  C   UNL     1      -4.501   3.882  25.721  0.00  0.00    +0.000 A 
ATOM     21  C   UNL     1      -5.181   3.490  25.972  0.00  0.00    +0.040 A 
ATOM     22  C   UNL     1      -5.496   2.877  25.519  0.00  0.00    +0.176 A 
ATOM     23  O   UNL     1      -6.154   2.393  25.625  0.00  0.00    -0.435 OA
ATOM     24  C   UNL     1      -6.196   1.873  24.986  0.00  0.00    +0.429 C 
ATOM     25  O   UNL     1      -5.561   2.036  24.485  0.00  0.00    -0.435 OA
ATOM     26  C   UNL     1      -5.129   2.656  24.814  0.00  0.00    +0.176 A 
ATOM     27  C   UNL     1      -4.447   3.048  24.562  0.00  0.00    +0.037 A 
ENDBRANCH  18  19
ENDBRANCH  17  18
TORSDOF 5
ENDMDL
MODEL 5
REMARK VINA RESULT:     -10.5      2.179      6.000
REMARK  Name = 
REMARK  5 active torsions:
REMARK  status: ('A' for Active; 'I' for Inactive)
REMARK    1  A    between atoms: O_2  and  C_3
REMARK    2  A    between atoms: C_6  and  C_9
REMARK    3  A    between atoms: C_12  and  C_14
REMARK    4  A    between atoms: N_17  and  C_18
REMARK    5  A    between atoms: C_18  and  C_19
REMARK                            x       y       z     vdW  Elec       q    Type
REMARK                         _______ _______ _______ _____ _____    ______ ____
ROOT
ATOM     14  C   UNL     1      -0.412   0.318  24.670  0.00  0.00    +0.096 C 
ATOM     15  C   UNL     1      -0.130  -0.180  24.076  0.00  0.00    +0.028 C 
ATOM     16  C   UNL     1      -0.414  -0.940  24.224  0.00  0.00    +0.073 C 
ATOM     17  N   UNL     1      -0.871  -0.911  24.910  0.00  0.00    -0.268 NA
ATOM     28  C   UNL     1      -0.870  -0.133  25.186  0.00  0.00    +0.082 C 
ENDROOT
BRANCH  14  12
ATOM      9  C   UNL     1      -0.432   2.441  24.899  0.00  0.00    +0.250 A 
ATOM     10  N   UNL     1       0.373   2.302  24.776  0.00  0.00    -0.107 NA
ATOM     11  N   UNL     1       0.477   1.489  24.675  0.00  0.00    -0.111 NA
ATOM     12  C   UNL     1      -0.261   1.127  24.736  0.00  0.00    +0.227 A 
ATOM     13  O   UNL     1      -0.823   1.715  24.874  0.00  0.00    -0.419 OA
BRANCH   9   6
ATOM      3  C   UNL     1      -1.484   4.649  25.278  0.00  0.00    +0.139 A 
ATOM      4  C   UNL     1      -0.875   4.571  24.726  0.00  0.00    +0.037 A 
ATOM      5  C   UNL     1      -0.524   3.836  24.600  0.00  0.00    +0.008 A 
ATOM      6  C   UNL     1      -0.782   3.176  25.025  0.00  0.00    +0.055 A 
ATOM      7  C   UNL     1      -1.391   3.255  25.576  0.00  0.00    +0.008 A 
ATOM      8  C   UNL     1      -1.742   3.990  25.702  0.00  0.00    +0.037 A 
BRANCH   3   2
ATOM      1  C   UNL     1      -1.609   6.032  24.945  0.00  0.00    +0.252 C 
ATOM      2  O   UNL     1      -1.834   5.385  25.404  0.00  0.00    -0.471 OA
ENDBRANCH   3   2
ENDBRANCH   9   6
ENDBRANCH  14  12
BRANCH  17  18
ATOM     18  C   UNL     1      -1.262  -1.548  25.260  0.00  0.00    +0.099 C 
BRANCH  18  19
ATOM     19  C   UNL     1      -2.060  -1.683  25.098  0.00  0.00    -0.003 A 
ATOM     20  C   UNL     1      -2.641  -1.294  25.536  0.00  0.00    +0.000 A 
ATOM     21  C   UNL     1      -3.438  -1.429  25.373  0.00  0.00    +0.040 A 
ATOM     22  C   UNL     1      -3.655  -1.952  24.773  0.00  0.00    +0.176 A 
ATOM     23  O   UNL     1      -4.391  -2.193  24.490  0.00  0.00    -0.435 OA
ATOM     24  C   UNL     1      -4.265  -2.730  23.877  0.00  0.00    +0.429 C 
ATOM     25  O   UNL     1      -3.451  -2.821  23.781  0.00  0.00    -0.435 OA
ATOM     26  C   UNL     1      -3.074  -2.340  24.335  0.00  0.00    +0.176 A 
ATOM     27  C   UNL     1      -2.276  -2.206  24.497  0.00  0.00    +0.037 A 
ENDBRANCH  18  19
ENDBRANCH  17  18
TORSDOF 5
ENDMDL
MODEL 6
REMARK VINA RESULT:     -10.4      2.089      5.282
REMARK  Name = 
REMARK  5 active torsions:
REMARK  status: ('A' for Active; 'I' for Inactive)
REMARK    1  A    between atoms: O_2  and  C_3
REMARK    2  A    between atoms: C_6  and  C_9
REMARK    3  A    between atoms: C_12  and  C_14
REMARK    4  A    between atoms: N_17  and  C_18
REMARK    5  A    between atoms: C_18  and  C_19
REMARK                            x       y       z     vdW  Elec       q    Type
REMARK                         _______ _______ _______ _____ _____    ______ ____
ROOT
ATOM     14  C   UNL     1      -0.941   1.090  24.525  0.00  0.00    +0.096 C 
ATOM     15  C   UNL     1      -0.306   0.891  24.038  0.00  0.00    +0.028 C 
ATOM     16  C   UNL     1      -0.112   0.102  24.181  0.00  0.00    +0.073 C 
ATOM     17  N   UNL     1      -0.627  -0.186  24.757  0.00  0.00    -0.268 NA
ATOM     28  C   UNL     1      -1.140   0.425  24.970  0.00  0.00    +0.082 C 
ENDROOT
BRANCH  14  12
ATOM      9  C   UNL     1      -2.237   2.775  24.717  0.00  0.00    +0.250 A 
ATOM     10  N   UNL     1      -1.526   3.144  24.517  0.00  0.00    -0.107 NA
ATOM     11  N   UNL     1      -0.954   2.557  24.420  0.00  0.00    -0.111 NA
ATOM     12  C   UNL     1      -1.311   1.827  24.561  0.00  0.00    +0.227 A 
ATOM     13  O   UNL     1      -2.104   1.962  24.744  0.00  0.00    -0.419 OA
BRANCH   9   6
ATOM      3  C   UNL     1      -4.390   3.914  25.159  0.00  0.00    +0.139 A 
ATOM      4  C   UNL     1      -4.252   3.562  24.425  0.00  0.00    +0.037 A 
ATOM      5  C   UNL     1      -3.535   3.182  24.277  0.00  0.00    +0.008 A 
ATOM      6  C   UNL     1      -2.954   3.155  24.864  0.00  0.00    +0.055 A 
ATOM      7  C   UNL     1      -3.092   3.507  25.596  0.00  0.00    +0.008 A 
ATOM      8  C   UNL     1      -3.810   3.887  25.744  0.00  0.00    +0.037 A 
BRANCH   3   2
ATOM      1  C   UNL     1      -5.735   3.874  25.639  0.00  0.00    +0.252 C 
ATOM      2  O   UNL     1      -5.107   4.294  25.305  0.00  0.00    -0.471 OA
ENDBRANCH   3   2
ENDBRANCH   9   6
ENDBRANCH  14  12
BRANCH  17  18
ATOM     18  C   UNL     1      -0.631  -0.951  25.066  0.00  0.00    +0.099 C 
BRANCH  18  19
ATOM     19  C   UNL     1      -1.236  -1.475  24.864  0.00  0.00    -0.003 A 
ATOM     20  C   UNL     1      -1.117  -2.032  24.267  0.00  0.00    +0.000 A 
ATOM     21  C   UNL     1      -1.722  -2.555  24.066  0.00  0.00    +0.040 A 
ATOM     22  C   UNL     1      -2.445  -2.523  24.462  0.00  0.00    +0.176 A 
ATOM     23  O   UNL     1      -3.137  -2.964  24.385  0.00  0.00    -0.435 OA
ATOM     24  C   UNL     1      -3.683  -2.682  24.934  0.00  0.00    +0.429 C 
ATOM     25  O   UNL     1      -3.328  -2.065  25.351  0.00  0.00    -0.435 OA
ATOM     26  C   UNL     1      -2.563  -1.967  25.060  0.00  0.00    +0.176 A 
ATOM     27  C   UNL     1      -1.958  -1.443  25.261  0.00  0.00    +0.037 A 
ENDBRANCH  18  19
ENDBRANCH  17  18
TORSDOF 5
ENDMDL
