MODEL 1
REMARK VINA RESULT:     -12.1      0.000      0.000
REMARK  Name = 
REMARK  6 active torsions:
REMARK  status: ('A' for Active; 'I' for Inactive)
REMARK    1  A    between atoms: O_2  and  C_3
REMARK    2  A    between atoms: C_3  and  C_5
REMARK    3  A    between atoms: C_5  and  N_7
REMARK    4  A    between atoms: C_8  and  C_10
REMARK    5  A    between atoms: C_16  and  C_18
REMARK    6  A    between atoms: C_25  and  C_27
REMARK                            x       y       z     vdW  Elec       q    Type
REMARK                         _______ _______ _______ _____ _____    ______ ____
ROOT
ATOM     10  C   UNL     1      -2.658   1.277  24.545  0.00  0.00    +0.174 C 
ATOM     11  C   UNL     1      -2.335   0.524  24.449  0.00  0.00    +0.123 C 
ATOM     12  N   UNL     1      -2.808  -0.145  24.549  0.00  0.00    -0.272 N 
ATOM     13  C   UNL     1      -3.605  -0.060  24.744  0.00  0.00    +0.115 C 
ATOM     14  C   UNL     1      -3.929   0.694  24.840  0.00  0.00    +0.116 C 
ATOM     15  N   UNL     1      -3.455   1.361  24.740  0.00  0.00    -0.266 N 
ATOM     16  C   UNL     1      -3.779   2.115  24.836  0.00  0.00    +0.249 C 
ATOM     17  O   UNL     1      -3.305   2.782  24.736  0.00  0.00    -0.270 OA
ATOM     25  C   UNL     1      -2.485  -0.897  24.453  0.00  0.00    +0.249 C 
ATOM     26  O   UNL     1      -1.688  -0.982  24.257  0.00  0.00    -0.270 OA
ENDROOT
BRANCH  16  18
ATOM     18  C   UNL     1      -4.575   2.200  25.032  0.00  0.00    +0.056 A 
ATOM     19  C   UNL     1      -4.791   2.420  25.797  0.00  0.00    +0.034 A 
ATOM     20  C   UNL     1      -5.588   2.505  25.993  0.00  0.00    +0.140 A 
ATOM     21  F   UNL     1      -5.803   2.725  26.758  0.00  0.00    -0.204 F 
ATOM     22  C   UNL     1      -6.169   2.369  25.423  0.00  0.00    +0.030 A 
ATOM     23  C   UNL     1      -5.953   2.149  24.658  0.00  0.00    +0.002 A 
ATOM     24  C   UNL     1      -5.156   2.064  24.463  0.00  0.00    +0.005 A 
ENDBRANCH  16  18
BRANCH  25  27
ATOM     27  C   UNL     1      -2.959  -1.566  24.553  0.00  0.00    +0.056 A 
ATOM     28  C   UNL     1      -2.931  -1.990  25.259  0.00  0.00    +0.005 A 
ATOM     29  C   UNL     1      -3.404  -2.657  25.358  0.00  0.00    +0.002 A 
ATOM     30  C   UNL     1      -3.905  -2.902  24.750  0.00  0.00    +0.030 A 
ATOM     31  C   UNL     1      -3.933  -2.478  24.043  0.00  0.00    +0.140 A 
ATOM     32  F   UNL     1      -4.434  -2.722  23.436  0.00  0.00    -0.204 F 
ATOM     33  C   UNL     1      -3.460  -1.810  23.945  0.00  0.00    +0.034 A 
ENDBRANCH  25  27
BRANCH  10   8
ATOM      7  N   UNL     1      -1.516   2.051  24.915  0.00  0.00    -0.194 NA
ATOM      8  C   UNL     1      -2.185   1.945  24.445  0.00  0.00    +0.262 C 
ATOM      9  O   UNL     1      -2.382   2.509  23.874  0.00  0.00    -0.271 OA
BRANCH   7   5
ATOM      5  C   UNL     1      -1.042   2.720  24.815  0.00  0.00    +0.194 C 
ATOM      6  C   UNL     1      -1.044   3.122  24.094  0.00  0.00    +0.035 C 
BRANCH   5   3
ATOM      3  C   UNL     1      -0.569   2.986  25.435  0.00  0.00    +0.337 C 
ATOM      4  O   UNL     1      -0.553   3.789  25.627  0.00  0.00    -0.248 OA
BRANCH   3   2
ATOM      1  C   UNL     1       0.236   2.682  26.576  0.00  0.00    +0.256 C 
ATOM      2  O   UNL     1      -0.109   2.451  25.864  0.00  0.00    -0.443 OA
ENDBRANCH   3   2
ENDBRANCH   5   3
ENDBRANCH   7   5
ENDBRANCH  10   8
TORSDOF 6
ENDMDL
MODEL 2
REMARK VINA RESULT:     -11.6      1.727      3.360
REMARK  Name = 
REMARK  6 active torsions:
REMARK  status: ('A' for Active; 'I' for Inactive)
REMARK    1  A    between atoms: O_2  and  C_3
REMARK    2  A    between atoms: C_3  and  C_5
REMARK    3  A    between atoms: C_5  and  N_7
REMARK    4  A    between atoms: C_8  and  C_10
REMARK    5  A    between atoms: C_16  and  C_18
REMARK    6  A    between atoms: C_25  and  C_27
REMARK                            x       y       z     vdW  Elec       q    Type
REMARK                         _______ _______ _______ _____ _____    ______ ____
ROOT
ATOM     10  C   UNL     1      -3.288   1.442  24.356  0.00  0.00    +0.174 C 
ATOM     11  C   UNL     1      -3.822   0.817  24.420  0.00  0.00    +0.123 C 
ATOM     12  N   UNL     1      -3.547   0.050  24.553  0.00  0.00    -0.272 N 
ATOM     13  C   UNL     1      -2.737  -0.091  24.621  0.00  0.00    +0.115 C 
ATOM     14  C   UNL     1      -2.202   0.535  24.557  0.00  0.00    +0.116 C 
ATOM     15  N   UNL     1      -2.478   1.301  24.425  0.00  0.00    -0.266 N 
ATOM     16  C   UNL     1      -1.943   1.926  24.361  0.00  0.00    +0.249 C 
ATOM     17  O   UNL     1      -2.218   2.692  24.229  0.00  0.00    -0.270 OA
ATOM     25  C   UNL     1      -4.081  -0.574  24.616  0.00  0.00    +0.249 C 
ATOM     26  O   UNL     1      -4.892  -0.433  24.548  0.00  0.00    -0.270 OA
ENDROOT
BRANCH  16  18
ATOM     18  C   UNL     1      -1.134   1.785  24.430  0.00  0.00    +0.056 A 
ATOM     19  C   UNL     1      -0.732   2.007  25.116  0.00  0.00    +0.034 A 
ATOM     20  C   UNL     1       0.077   1.865  25.185  0.00  0.00    +0.140 A 
ATOM     21  F   UNL     1       0.478   2.087  25.871  0.00  0.00    -0.204 F 
ATOM     22  C   UNL     1       0.486   1.502  24.567  0.00  0.00    +0.030 A 
ATOM     23  C   UNL     1       0.086   1.281  23.881  0.00  0.00    +0.002 A 
ATOM     24  C   UNL     1      -0.724   1.422  23.813  0.00  0.00    +0.005 A 
ENDBRANCH  16  18
BRANCH  25  27
ATOM     27  C   UNL     1      -3.807  -1.341  24.749  0.00  0.00    +0.056 A 
ATOM     28  C   UNL     1      -3.535  -1.559  25.496  0.00  0.00    +0.005 A 
ATOM     29  C   UNL     1      -3.261  -2.325  25.628  0.00  0.00    +0.002 A 
ATOM     30  C   UNL     1      -3.258  -2.874  25.012  0.00  0.00    +0.030 A 
ATOM     31  C   UNL     1      -3.529  -2.657  24.264  0.00  0.00    +0.140 A 
ATOM     32  F   UNL     1      -3.527  -3.205  23.649  0.00  0.00    -0.204 F 
ATOM     33  C   UNL     1      -3.804  -1.890  24.133  0.00  0.00    +0.034 A 
ENDBRANCH  25  27
BRANCH  10   8
ATOM      7  N   UNL     1      -4.031   2.583  24.789  0.00  0.00    -0.194 NA
ATOM      8  C   UNL     1      -3.562   2.209  24.224  0.00  0.00    +0.262 C 
ATOM      9  O   UNL     1      -3.367   2.602  23.524  0.00  0.00    -0.271 OA
BRANCH   7   5
ATOM      5  C   UNL     1      -4.306   3.349  24.656  0.00  0.00    +0.194 C 
ATOM      6  C   UNL     1      -4.193   3.706  23.920  0.00  0.00    +0.035 C 
BRANCH   5   3
ATOM      3  C   UNL     1      -4.693   3.759  25.258  0.00  0.00    +0.337 C 
ATOM      4  O   UNL     1      -4.259   4.218  25.789  0.00  0.00    -0.248 OA
BRANCH   3   2
ATOM      1  C   UNL     1      -5.923   4.274  25.772  0.00  0.00    +0.256 C 
ATOM      2  O   UNL     1      -5.513   3.712  25.330  0.00  0.00    -0.443 OA
ENDBRANCH   3   2
ENDBRANCH   5   3
ENDBRANCH   7   5
ENDBRANCH  10   8
TORSDOF 6
ENDMDL
MODEL 3
REMARK VINA RESULT:     -11.6      0.799      3.829
REMARK  Name = 
REMARK  6 active torsions:
REMARK  status: ('A' for Active; 'I' for Inactive)
REMARK    1  A    between atoms: O_2  and  C_3
REMARK    2  A    between atoms: C_3  and  C_5
REMARK    3  A    between atoms: C_5  and  N_7
REMARK    4  A    between atoms: C_8  and  C_10
REMARK    5  A    between atoms: C_16  and  C_18
REMARK    6  A    between atoms: C_25  and  C_27
REMARK                            x       y       z     vdW  Elec       q    Type
REMARK                         _______ _______ _______ _____ _____    ______ ____
ROOT
ATOM     10  C   UNL     1      -2.615   0.880  24.558  0.00  0.00    +0.174 C 
ATOM     11  C   UNL     1      -3.055   1.572  24.644  0.00  0.00    +0.123 C 
ATOM     12  N   UNL     1      -3.852   1.530  24.854  0.00  0.00    -0.272 N 
ATOM     13  C   UNL     1      -4.208   0.797  24.978  0.00  0.00    +0.115 C 
ATOM     14  C   UNL     1      -3.767   0.104  24.893  0.00  0.00    +0.116 C 
ATOM     15  N   UNL     1      -2.971   0.146  24.683  0.00  0.00    -0.266 N 
ATOM     16  C   UNL     1      -2.529  -0.546  24.598  0.00  0.00    +0.249 C 
ATOM     17  O   UNL     1      -1.733  -0.504  24.388  0.00  0.00    -0.270 OA
ATOM     25  C   UNL     1      -4.293   2.222  24.939  0.00  0.00    +0.249 C 
ATOM     26  O   UNL     1      -3.937   2.957  24.814  0.00  0.00    -0.270 OA
ENDROOT
BRANCH  16  18
ATOM     18  C   UNL     1      -2.885  -1.279  24.722  0.00  0.00    +0.056 A 
ATOM     19  C   UNL     1      -3.303  -1.645  24.111  0.00  0.00    +0.034 A 
ATOM     20  C   UNL     1      -3.659  -2.379  24.236  0.00  0.00    +0.140 A 
ATOM     21  F   UNL     1      -4.076  -2.743  23.625  0.00  0.00    -0.204 F 
ATOM     22  C   UNL     1      -3.596  -2.747  24.971  0.00  0.00    +0.030 A 
ATOM     23  C   UNL     1      -3.179  -2.382  25.582  0.00  0.00    +0.002 A 
ATOM     24  C   UNL     1      -2.823  -1.649  25.457  0.00  0.00    +0.005 A 
ENDBRANCH  16  18
BRANCH  25  27
ATOM     27  C   UNL     1      -5.090   2.181  25.149  0.00  0.00    +0.056 A 
ATOM     28  C   UNL     1      -5.663   2.042  24.572  0.00  0.00    +0.005 A 
ATOM     29  C   UNL     1      -6.459   2.001  24.782  0.00  0.00    +0.002 A 
ATOM     30  C   UNL     1      -6.682   2.099  25.570  0.00  0.00    +0.030 A 
ATOM     31  C   UNL     1      -6.110   2.238  26.148  0.00  0.00    +0.140 A 
ATOM     32  F   UNL     1      -6.334   2.335  26.935  0.00  0.00    -0.204 F 
ATOM     33  C   UNL     1      -5.314   2.278  25.937  0.00  0.00    +0.034 A 
ENDBRANCH  25  27
BRANCH  10   8
ATOM      7  N   UNL     1      -1.286   1.334  24.824  0.00  0.00    -0.194 NA
ATOM      8  C   UNL     1      -1.818   0.921  24.348  0.00  0.00    +0.262 C 
ATOM      9  O   UNL     1      -1.553   0.548  23.661  0.00  0.00    -0.271 OA
BRANCH   7   5
ATOM      5  C   UNL     1      -0.489   1.375  24.614  0.00  0.00    +0.194 C 
ATOM      6  C   UNL     1      -0.220   0.982  23.939  0.00  0.00    +0.035 C 
BRANCH   5   3
ATOM      3  C   UNL     1       0.038   1.808  25.077  0.00  0.00    +0.337 C 
ATOM      4  O   UNL     1       0.737   2.097  24.746  0.00  0.00    -0.248 OA
BRANCH   3   2
ATOM      1  C   UNL     1       0.287   2.530  26.285  0.00  0.00    +0.256 C 
ATOM      2  O   UNL     1      -0.132   1.953  25.872  0.00  0.00    -0.443 OA
ENDBRANCH   3   2
ENDBRANCH   5   3
ENDBRANCH   7   5
ENDBRANCH  10   8
TORSDOF 6
ENDMDL
MODEL 4
REMARK VINA RESULT:     -11.4      1.935      4.392
REMARK  Name = 
REMARK  6 active torsions:
REMARK  status: ('A' for Active; 'I' for Inactive)
REMARK    1  A    between atoms: O_2  and  C_3
REMARK    2  A    between atoms: C_3  and  C_5
REMARK    3  A    between atoms: C_5  and  N_7
REMARK    4  A    between atoms: C_8  and  C_10
REMARK    5  A    between atoms: C_16  and  C_18
REMARK    6  A    between atoms: C_25  and  C_27
REMARK                            x       y       z     vdW  Elec       q    Type
REMARK                         _______ _______ _______ _____ _____    ______ ____
ROOT
ATOM     10  C   UNL     1      -1.317   0.485  24.434  0.00  0.00    +0.174 C 
ATOM     11  C   UNL     1      -1.327   1.309  24.438  0.00  0.00    +0.123 C 
ATOM     12  N   UNL     1      -2.040   1.712  24.543  0.00  0.00    -0.272 N 
ATOM     13  C   UNL     1      -2.741   1.290  24.644  0.00  0.00    +0.115 C 
ATOM     14  C   UNL     1      -2.731   0.465  24.640  0.00  0.00    +0.116 C 
ATOM     15  N   UNL     1      -2.018   0.062  24.535  0.00  0.00    -0.266 N 
ATOM     16  C   UNL     1      -2.008  -0.763  24.532  0.00  0.00    +0.249 C 
ATOM     17  O   UNL     1      -1.295  -1.165  24.427  0.00  0.00    -0.270 OA
ATOM     25  C   UNL     1      -2.051   2.537  24.546  0.00  0.00    +0.249 C 
ATOM     26  O   UNL     1      -1.348   2.959  24.445  0.00  0.00    -0.270 OA
ENDROOT
BRANCH  16  18
ATOM     18  C   UNL     1      -2.708  -1.185  24.633  0.00  0.00    +0.056 A 
ATOM     19  C   UNL     1      -3.174  -1.374  23.978  0.00  0.00    +0.034 A 
ATOM     20  C   UNL     1      -3.876  -1.796  24.079  0.00  0.00    +0.140 A 
ATOM     21  F   UNL     1      -4.341  -1.985  23.425  0.00  0.00    -0.204 F 
ATOM     22  C   UNL     1      -4.112  -2.029  24.835  0.00  0.00    +0.030 A 
ATOM     23  C   UNL     1      -3.647  -1.840  25.489  0.00  0.00    +0.002 A 
ATOM     24  C   UNL     1      -2.945  -1.418  25.388  0.00  0.00    +0.005 A 
ENDBRANCH  16  18
BRANCH  25  27
ATOM     27  C   UNL     1      -2.763   2.940  24.651  0.00  0.00    +0.056 A 
ATOM     28  C   UNL     1      -3.265   3.064  24.009  0.00  0.00    +0.005 A 
ATOM     29  C   UNL     1      -3.977   3.467  24.114  0.00  0.00    +0.002 A 
ATOM     30  C   UNL     1      -4.186   3.747  24.862  0.00  0.00    +0.030 A 
ATOM     31  C   UNL     1      -3.683   3.623  25.504  0.00  0.00    +0.140 A 
ATOM     32  F   UNL     1      -3.892   3.903  26.251  0.00  0.00    -0.204 F 
ATOM     33  C   UNL     1      -2.972   3.220  25.398  0.00  0.00    +0.034 A 
ENDBRANCH  25  27
BRANCH  10   8
ATOM      7  N   UNL     1      -0.171   0.181  23.635  0.00  0.00    -0.194 NA
ATOM      8  C   UNL     1      -0.604   0.081  24.330  0.00  0.00    +0.262 C 
ATOM      9  O   UNL     1      -0.325  -0.423  24.922  0.00  0.00    -0.271 OA
BRANCH   7   5
ATOM      5  C   UNL     1       0.541  -0.223  23.531  0.00  0.00    +0.194 C 
ATOM      6  C   UNL     1       0.781  -0.786  24.086  0.00  0.00    +0.035 C 
BRANCH   5   3
ATOM      3  C   UNL     1       1.012  -0.065  22.873  0.00  0.00    +0.337 C 
ATOM      4  O   UNL     1       0.743  -0.256  22.117  0.00  0.00    -0.248 OA
BRANCH   3   2
ATOM      1  C   UNL     1       2.331   0.197  22.388  0.00  0.00    +0.256 C 
ATOM      2  O   UNL     1       1.754   0.284  22.971  0.00  0.00    -0.443 OA
ENDBRANCH   3   2
ENDBRANCH   5   3
ENDBRANCH   7   5
ENDBRANCH  10   8
TORSDOF 6
ENDMDL
MODEL 5
REMARK VINA RESULT:     -11.4      1.817      4.481
REMARK  Name = 
REMARK  6 active torsions:
REMARK  status: ('A' for Active; 'I' for Inactive)
REMARK    1  A    between atoms: O_2  and  C_3
REMARK    2  A    between atoms: C_3  and  C_5
REMARK    3  A    between atoms: C_5  and  N_7
REMARK    4  A    between atoms: C_8  and  C_10
REMARK    5  A    between atoms: C_16  and  C_18
REMARK    6  A    between atoms: C_25  and  C_27
REMARK                            x       y       z     vdW  Elec       q    Type
REMARK                         _______ _______ _______ _____ _____    ______ ____
ROOT
ATOM     10  C   UNL     1      -3.696   1.280  24.718  0.00  0.00    +0.174 C 
ATOM     11  C   UNL     1      -3.122   1.861  24.605  0.00  0.00    +0.123 C 
ATOM     12  N   UNL     1      -2.325   1.652  24.569  0.00  0.00    -0.272 N 
ATOM     13  C   UNL     1      -2.102   0.862  24.646  0.00  0.00    +0.115 C 
ATOM     14  C   UNL     1      -2.676   0.280  24.759  0.00  0.00    +0.116 C 
ATOM     15  N   UNL     1      -3.473   0.489  24.795  0.00  0.00    -0.266 N 
ATOM     16  C   UNL     1      -4.048  -0.093  24.908  0.00  0.00    +0.249 C 
ATOM     17  O   UNL     1      -4.844   0.117  24.944  0.00  0.00    -0.270 OA
ATOM     25  C   UNL     1      -1.751   2.233  24.456  0.00  0.00    +0.249 C 
ATOM     26  O   UNL     1      -1.974   3.025  24.379  0.00  0.00    -0.270 OA
ENDROOT
BRANCH  16  18
ATOM     18  C   UNL     1      -3.825  -0.883  24.985  0.00  0.00    +0.056 A 
ATOM     19  C   UNL     1      -3.906  -1.399  24.345  0.00  0.00    +0.034 A 
ATOM     20  C   UNL     1      -3.683  -2.189  24.422  0.00  0.00    +0.140 A 
ATOM     21  F   UNL     1      -3.765  -2.704  23.784  0.00  0.00    -0.204 F 
ATOM     22  C   UNL     1      -3.378  -2.464  25.138  0.00  0.00    +0.030 A 
ATOM     23  C   UNL     1      -3.297  -1.949  25.777  0.00  0.00    +0.002 A 
ATOM     24  C   UNL     1      -3.520  -1.158  25.700  0.00  0.00    +0.005 A 
ENDBRANCH  16  18
BRANCH  25  27
ATOM     27  C   UNL     1      -0.953   2.025  24.420  0.00  0.00    +0.056 A 
ATOM     28  C   UNL     1      -0.648   1.679  23.737  0.00  0.00    +0.005 A 
ATOM     29  C   UNL     1       0.149   1.471  23.701  0.00  0.00    +0.002 A 
ATOM     30  C   UNL     1       0.641   1.609  24.349  0.00  0.00    +0.030 A 
ATOM     31  C   UNL     1       0.336   1.955  25.032  0.00  0.00    +0.140 A 
ATOM     32  F   UNL     1       0.827   2.093  25.679  0.00  0.00    -0.204 F 
ATOM     33  C   UNL     1      -0.461   2.163  25.067  0.00  0.00    +0.034 A 
ENDBRANCH  25  27
BRANCH  10   8
ATOM      7  N   UNL     1      -4.747   2.061  25.291  0.00  0.00    -0.194 NA
ATOM      8  C   UNL     1      -4.494   1.488  24.755  0.00  0.00    +0.262 C 
ATOM      9  O   UNL     1      -5.039   1.122  24.254  0.00  0.00    -0.271 OA
BRANCH   7   5
ATOM      5  C   UNL     1      -5.545   2.269  25.327  0.00  0.00    +0.194 C 
ATOM      6  C   UNL     1      -6.109   1.810  24.936  0.00  0.00    +0.035 C 
BRANCH   5   3
ATOM      3  C   UNL     1      -5.778   2.936  25.753  0.00  0.00    +0.337 C 
ATOM      4  O   UNL     1      -5.935   2.875  26.560  0.00  0.00    -0.248 OA
BRANCH   3   2
ATOM      1  C   UNL     1      -5.891   4.359  25.813  0.00  0.00    +0.256 C 
ATOM      2  O   UNL     1      -5.855   3.664  25.372  0.00  0.00    -0.443 OA
ENDBRANCH   3   2
ENDBRANCH   5   3
ENDBRANCH   7   5
ENDBRANCH  10   8
TORSDOF 6
ENDMDL
MODEL 6
REMARK VINA RESULT:     -11.3      1.648      4.207
REMARK  Name = 
REMARK  6 active torsions:
REMARK  status: ('A' for Active; 'I' for Inactive)
REMARK    1  A    between atoms: O_2  and  C_3
REMARK    2  A    between atoms: C_3  and  C_5
REMARK    3  A    between atoms: C_5  and  N_7
REMARK    4  A    between atoms: C_8  and  C_10
REMARK    5  A    between atoms: C_16  and  C_18
REMARK    6  A    between atoms: C_25  and  C_27
REMARK                            x       y       z     vdW  Elec       q    Type
REMARK                         _______ _______ _______ _____ _____    ______ ____
ROOT
ATOM     10  C   UNL     1      -3.062   0.542  24.519  0.00  0.00    +0.174 C 
ATOM     11  C   UNL     1      -2.238   0.552  24.554  0.00  0.00    +0.123 C 
ATOM     12  N   UNL     1      -1.844   1.222  24.830  0.00  0.00    -0.272 N 
ATOM     13  C   UNL     1      -2.275   1.883  25.072  0.00  0.00    +0.115 C 
ATOM     14  C   UNL     1      -3.100   1.873  25.038  0.00  0.00    +0.116 C 
ATOM     15  N   UNL     1      -3.493   1.203  24.761  0.00  0.00    -0.266 N 
ATOM     16  C   UNL     1      -4.318   1.194  24.727  0.00  0.00    +0.249 C 
ATOM     17  O   UNL     1      -4.711   0.523  24.450  0.00  0.00    -0.270 OA
ATOM     25  C   UNL     1      -1.021   1.231  24.865  0.00  0.00    +0.249 C 
ATOM     26  O   UNL     1      -0.589   0.570  24.623  0.00  0.00    -0.270 OA
ENDROOT
BRANCH  16  18
ATOM     18  C   UNL     1      -4.748   1.854  24.968  0.00  0.00    +0.056 A 
ATOM     19  C   UNL     1      -5.166   1.836  25.680  0.00  0.00    +0.034 A 
ATOM     20  C   UNL     1      -5.597   2.497  25.922  0.00  0.00    +0.140 A 
ATOM     21  F   UNL     1      -6.014   2.479  26.632  0.00  0.00    -0.204 F 
ATOM     22  C   UNL     1      -5.609   3.175  25.452  0.00  0.00    +0.030 A 
ATOM     23  C   UNL     1      -5.191   3.193  24.742  0.00  0.00    +0.002 A 
ATOM     24  C   UNL     1      -4.761   2.532  24.500  0.00  0.00    +0.005 A 
ENDBRANCH  16  18
BRANCH  25  27
ATOM     27  C   UNL     1      -0.626   1.901  25.141  0.00  0.00    +0.056 A 
ATOM     28  C   UNL     1      -0.484   2.536  24.634  0.00  0.00    +0.005 A 
ATOM     29  C   UNL     1      -0.090   3.205  24.911  0.00  0.00    +0.002 A 
ATOM     30  C   UNL     1       0.162   3.240  25.696  0.00  0.00    +0.030 A 
ATOM     31  C   UNL     1       0.021   2.605  26.204  0.00  0.00    +0.140 A 
ATOM     32  F   UNL     1       0.273   2.640  26.987  0.00  0.00    -0.204 F 
ATOM     33  C   UNL     1      -0.374   1.936  25.926  0.00  0.00    +0.034 A 
ENDBRANCH  25  27
BRANCH  10   8
ATOM      7  N   UNL     1      -3.392  -0.842  24.650  0.00  0.00    -0.194 NA
ATOM      8  C   UNL     1      -3.456  -0.128  24.243  0.00  0.00    +0.262 C 
ATOM      9  O   UNL     1      -3.916  -0.083  23.558  0.00  0.00    -0.271 OA
BRANCH   7   5
ATOM      5  C   UNL     1      -3.787  -1.512  24.373  0.00  0.00    +0.194 C 
ATOM      6  C   UNL     1      -4.336  -1.444  23.760  0.00  0.00    +0.035 C 
BRANCH   5   3
ATOM      3  C   UNL     1      -3.633  -2.249  24.708  0.00  0.00    +0.337 C 
ATOM      4  O   UNL     1      -3.666  -2.345  25.527  0.00  0.00    -0.248 OA
BRANCH   3   2
ATOM      1  C   UNL     1      -3.241  -3.616  24.563  0.00  0.00    +0.256 C 
ATOM      2  O   UNL     1      -3.447  -2.892  24.226  0.00  0.00    -0.443 OA
ENDBRANCH   3   2
ENDBRANCH   5   3
ENDBRANCH   7   5
ENDBRANCH  10   8
TORSDOF 6
ENDMDL
