MODEL 1
REMARK VINA RESULT:      -6.8      0.000      0.000
REMARK  Name = 
REMARK  7 active torsions:
REMARK  status: ('A' for Active; 'I' for Inactive)
REMARK    1  A    between atoms: C_2  and  O_17
REMARK    2  A    between atoms: N_3  and  C_4
REMARK    3  A    between atoms: C_7  and  O_8
REMARK    4  A    between atoms: O_8  and  C_9
REMARK    5  A    between atoms: O_17  and  C_18
REMARK    6  A    between atoms: C_22  and  N_26
REMARK    7  A    between atoms: C_29  and  C_33
REMARK                            x       y       z     vdW  Elec       q    Type
REMARK                         _______ _______ _______ _____ _____    ______ ____
ROOT
ATOM     18  C   UNL     1      12.331  -7.019  31.330  0.00  0.00    +0.229 C 
ATOM     19  C   UNL     1      11.942  -6.618  30.722  0.00  0.00    +0.188 C 
ATOM     20  O   UNL     1      12.496  -6.443  30.136  0.00  0.00    -0.348 OA
ATOM     21  C   UNL     1      13.227  -6.735  30.382  0.00  0.00    +0.168 C 
ATOM     22  C   UNL     1      14.022  -6.806  30.171  0.00  0.00    +0.155 C 
ATOM     23  C   UNL     1      14.411  -7.207  30.779  0.00  0.00    +0.166 C 
ATOM     24  O   UNL     1      13.857  -7.382  31.365  0.00  0.00    -0.348 OA
ATOM     25  C   UNL     1      13.126  -7.091  31.119  0.00  0.00    +0.186 C 
ENDROOT
BRANCH  22  26
ATOM     26  N   UNL     1      14.367  -6.527  29.476  0.00  0.00    -0.200 NA
ATOM     27  C   UNL     1      14.818  -7.034  29.007  0.00  0.00    +0.237 A 
ATOM     28  N   UNL     1      15.163  -6.755  28.311  0.00  0.00    -0.212 NA
ATOM     29  C   UNL     1      15.615  -7.262  27.842  0.00  0.00    +0.086 A 
ATOM     30  C   UNL     1      15.721  -8.048  28.069  0.00  0.00    +0.040 A 
ATOM     31  C   UNL     1      15.377  -8.327  28.765  0.00  0.00    +0.103 A 
ATOM     32  N   UNL     1      14.925  -7.820  29.233  0.00  0.00    -0.211 NA
BRANCH  29  33
ATOM     33  C   UNL     1      15.959  -6.983  27.147  0.00  0.00    +0.021 A 
ATOM     34  C   UNL     1      16.408  -6.292  27.158  0.00  0.00    +0.042 A 
ATOM     35  C   UNL     1      16.753  -6.012  26.462  0.00  0.00    +0.176 A 
ATOM     36  C   UNL     1      16.648  -6.425  25.755  0.00  0.00    +0.176 A 
ATOM     37  O   UNL     1      17.051  -6.020  25.161  0.00  0.00    -0.435 OA
ATOM     38  C   UNL     1      17.405  -5.356  25.500  0.00  0.00    +0.429 C 
ATOM     39  O   UNL     1      17.220  -5.352  26.304  0.00  0.00    -0.435 OA
ATOM     40  C   UNL     1      16.198  -7.117  25.744  0.00  0.00    +0.040 A 
ATOM     41  C   UNL     1      15.854  -7.396  26.440  0.00  0.00    +0.005 A 
ENDBRANCH  29  33
ENDBRANCH  22  26
BRANCH  18  17
ATOM     17  O   UNL     1      11.987  -7.298  32.025  0.00  0.00    -0.432 OA
BRANCH  17   2
ATOM      1  O   UNL     1      10.669  -7.315  31.474  0.00  0.00    -0.224 OA
ATOM      2  C   UNL     1      11.222  -7.607  32.011  0.00  0.00    +0.425 C 
ATOM      3  N   UNL     1      11.012  -8.210  32.534  0.00  0.00    -0.142 NA
BRANCH   3   4
ATOM      4  C   UNL     1      10.248  -8.519  32.520  0.00  0.00    +0.077 A 
ATOM      5  C   UNL     1       9.628  -8.105  32.873  0.00  0.00    +0.020 A 
ATOM      6  C   UNL     1       8.863  -8.415  32.859  0.00  0.00    +0.039 A 
ATOM      7  C   UNL     1       8.717  -9.139  32.492  0.00  0.00    +0.145 A 
ATOM     15  C   UNL     1       9.338  -9.554  32.138  0.00  0.00    +0.039 A 
ATOM     16  C   UNL     1      10.102  -9.244  32.152  0.00  0.00    +0.020 A 
BRANCH   7   8
ATOM      8  O   UNL     1       7.953  -9.449  32.478  0.00  0.00    -0.453 OA
BRANCH   8   9
ATOM      9  C   UNL     1       7.470  -9.324  31.822  0.00  0.00    +0.145 A 
ATOM     10  C   UNL     1       7.416  -9.899  31.233  0.00  0.00    +0.037 A 
ATOM     11  C   UNL     1       6.933  -9.774  30.576  0.00  0.00    +0.003 A 
ATOM     12  C   UNL     1       6.502  -9.073  30.509  0.00  0.00    +0.000 A 
ATOM     13  C   UNL     1       6.555  -8.498  31.097  0.00  0.00    +0.003 A 
ATOM     14  C   UNL     1       7.039  -8.623  31.754  0.00  0.00    +0.037 A 
ENDBRANCH   8   9
ENDBRANCH   7   8
ENDBRANCH   3   4
ENDBRANCH  17   2
ENDBRANCH  18  17
TORSDOF 7
ENDMDL
MODEL 2
REMARK VINA RESULT:      -6.8     14.586     16.755
REMARK  Name = 
REMARK  7 active torsions:
REMARK  status: ('A' for Active; 'I' for Inactive)
REMARK    1  A    between atoms: C_2  and  O_17
REMARK    2  A    between atoms: N_3  and  C_4
REMARK    3  A    between atoms: C_7  and  O_8
REMARK    4  A    between atoms: O_8  and  C_9
REMARK    5  A    between atoms: O_17  and  C_18
REMARK    6  A    between atoms: C_22  and  N_26
REMARK    7  A    between atoms: C_29  and  C_33
REMARK                            x       y       z     vdW  Elec       q    Type
REMARK                         _______ _______ _______ _____ _____    ______ ____
ROOT
ATOM     18  C   UNL     1      -1.691  -1.184  25.144  0.00  0.00    +0.229 C 
ATOM     19  C   UNL     1      -1.251  -1.023  25.823  0.00  0.00    +0.188 C 
ATOM     20  O   UNL     1      -0.462  -0.936  25.602  0.00  0.00    -0.348 OA
ATOM     21  C   UNL     1      -0.414  -1.042  24.785  0.00  0.00    +0.168 C 
ATOM     22  C   UNL     1       0.106  -1.054  24.143  0.00  0.00    +0.155 C 
ATOM     23  C   UNL     1      -0.334  -1.214  23.464  0.00  0.00    +0.166 C 
ATOM     24  O   UNL     1      -1.124  -1.302  23.686  0.00  0.00    -0.348 OA
ATOM     25  C   UNL     1      -1.173  -1.196  24.502  0.00  0.00    +0.186 C 
ENDROOT
BRANCH  22  26
ATOM     26  N   UNL     1       0.920  -0.927  24.176  0.00  0.00    -0.200 NA
ATOM     27  C   UNL     1       1.302  -0.539  23.556  0.00  0.00    +0.237 A 
ATOM     28  N   UNL     1       2.117  -0.412  23.588  0.00  0.00    -0.212 NA
ATOM     29  C   UNL     1       2.499  -0.024  22.968  0.00  0.00    +0.086 A 
ATOM     30  C   UNL     1       2.065   0.237  22.316  0.00  0.00    +0.040 A 
ATOM     31  C   UNL     1       1.251   0.110  22.284  0.00  0.00    +0.103 A 
ATOM     32  N   UNL     1       0.870  -0.278  22.904  0.00  0.00    -0.211 NA
BRANCH  29  33
ATOM     33  C   UNL     1       3.313   0.102  23.001  0.00  0.00    +0.021 A 
ATOM     34  C   UNL     1       3.799  -0.439  23.387  0.00  0.00    +0.042 A 
ATOM     35  C   UNL     1       4.614  -0.313  23.420  0.00  0.00    +0.176 A 
ATOM     36  C   UNL     1       4.942   0.356  23.065  0.00  0.00    +0.176 A 
ATOM     37  O   UNL     1       5.757   0.335  23.186  0.00  0.00    -0.435 OA
ATOM     38  C   UNL     1       5.934  -0.347  23.615  0.00  0.00    +0.429 C 
ATOM     39  O   UNL     1       5.227  -0.747  23.759  0.00  0.00    -0.435 OA
ATOM     40  C   UNL     1       4.455   0.899  22.678  0.00  0.00    +0.040 A 
ATOM     41  C   UNL     1       3.640   0.771  22.646  0.00  0.00    +0.005 A 
ENDBRANCH  29  33
ENDBRANCH  22  26
BRANCH  18  17
ATOM     17  O   UNL     1      -2.505  -1.310  25.112  0.00  0.00    -0.432 OA
BRANCH  17   2
ATOM      1  O   UNL     1      -2.992  -0.154  25.795  0.00  0.00    -0.224 OA
ATOM      2  C   UNL     1      -3.024  -0.670  25.153  0.00  0.00    +0.425 C 
ATOM      3  N   UNL     1      -3.575  -0.547  24.551  0.00  0.00    -0.142 NA
BRANCH   3   4
ATOM      4  C   UNL     1      -4.094   0.093  24.592  0.00  0.00    +0.077 A 
ATOM      5  C   UNL     1      -4.723   0.081  25.125  0.00  0.00    +0.020 A 
ATOM      6  C   UNL     1      -5.242   0.721  25.167  0.00  0.00    +0.039 A 
ATOM      7  C   UNL     1      -5.132   1.374  24.675  0.00  0.00    +0.145 A 
ATOM     15  C   UNL     1      -4.503   1.386  24.141  0.00  0.00    +0.039 A 
ATOM     16  C   UNL     1      -3.984   0.746  24.099  0.00  0.00    +0.020 A 
BRANCH   7   8
ATOM      8  O   UNL     1      -5.651   2.014  24.716  0.00  0.00    -0.453 OA
BRANCH   8   9
ATOM      9  C   UNL     1      -5.416   2.712  25.086  0.00  0.00    +0.145 A 
ATOM     10  C   UNL     1      -4.905   3.232  24.700  0.00  0.00    +0.037 A 
ATOM     11  C   UNL     1      -4.669   3.930  25.071  0.00  0.00    +0.003 A 
ATOM     12  C   UNL     1      -4.945   4.109  25.828  0.00  0.00    +0.000 A 
ATOM     13  C   UNL     1      -5.456   3.589  26.214  0.00  0.00    +0.003 A 
ATOM     14  C   UNL     1      -5.692   2.890  25.843  0.00  0.00    +0.037 A 
ENDBRANCH   8   9
ENDBRANCH   7   8
ENDBRANCH   3   4
ENDBRANCH  17   2
ENDBRANCH  18  17
TORSDOF 7
ENDMDL
MODEL 3
REMARK VINA RESULT:      -6.6      3.093      3.708
REMARK  Name = 
REMARK  7 active torsions:
REMARK  status: ('A' for Active; 'I' for Inactive)
REMARK    1  A    between atoms: C_2  and  O_17
REMARK    2  A    between atoms: N_3  and  C_4
REMARK    3  A    between atoms: C_7  and  O_8
REMARK    4  A    between atoms: O_8  and  C_9
REMARK    5  A    between atoms: O_17  and  C_18
REMARK    6  A    between atoms: C_22  and  N_26
REMARK    7  A    between atoms: C_29  and  C_33
REMARK                            x       y       z     vdW  Elec       q    Type
REMARK                         _______ _______ _______ _____ _____    ______ ____
ROOT
ATOM     18  C   UNL     1      12.463  -7.039  31.968  0.00  0.00    +0.229 C 
ATOM     19  C   UNL     1      11.987  -6.365  31.992  0.00  0.00    +0.188 C 
ATOM     20  O   UNL     1      12.479  -5.703  31.973  0.00  0.00    -0.348 OA
ATOM     21  C   UNL     1      13.260  -5.968  31.938  0.00  0.00    +0.168 C 
ATOM     22  C   UNL     1      14.047  -5.721  31.904  0.00  0.00    +0.155 C 
ATOM     23  C   UNL     1      14.523  -6.395  31.880  0.00  0.00    +0.166 C 
ATOM     24  O   UNL     1      14.031  -7.056  31.899  0.00  0.00    -0.348 OA
ATOM     25  C   UNL     1      13.251  -6.793  31.934  0.00  0.00    +0.186 C 
ENDROOT
BRANCH  22  26
ATOM     26  N   UNL     1      14.310  -4.940  31.896  0.00  0.00    -0.200 NA
ATOM     27  C   UNL     1      14.981  -4.736  31.461  0.00  0.00    +0.237 A 
ATOM     28  N   UNL     1      15.245  -3.953  31.452  0.00  0.00    -0.212 NA
ATOM     29  C   UNL     1      15.916  -3.749  31.018  0.00  0.00    +0.086 A 
ATOM     30  C   UNL     1      16.322  -4.327  30.591  0.00  0.00    +0.040 A 
ATOM     31  C   UNL     1      16.059  -5.108  30.599  0.00  0.00    +0.103 A 
ATOM     32  N   UNL     1      15.388  -5.312  31.034  0.00  0.00    -0.211 NA
BRANCH  29  33
ATOM     33  C   UNL     1      16.179  -2.968  31.009  0.00  0.00    +0.021 A 
ATOM     34  C   UNL     1      16.338  -2.579  31.719  0.00  0.00    +0.042 A 
ATOM     35  C   UNL     1      16.602  -1.797  31.711  0.00  0.00    +0.176 A 
ATOM     36  C   UNL     1      16.707  -1.405  30.993  0.00  0.00    +0.176 A 
ATOM     37  O   UNL     1      16.971  -0.641  31.155  0.00  0.00    -0.435 OA
ATOM     38  C   UNL     1      17.030  -0.561  31.974  0.00  0.00    +0.429 C 
ATOM     39  O   UNL     1      16.802  -1.275  32.317  0.00  0.00    -0.435 OA
ATOM     40  C   UNL     1      16.547  -1.794  30.282  0.00  0.00    +0.040 A 
ATOM     41  C   UNL     1      16.284  -2.576  30.291  0.00  0.00    +0.005 A 
ENDBRANCH  29  33
ENDBRANCH  22  26
BRANCH  18  17
ATOM     17  O   UNL     1      12.200  -7.820  31.976  0.00  0.00    -0.432 OA
BRANCH  17   2
ATOM      1  O   UNL     1      10.921  -7.653  31.363  0.00  0.00    -0.224 OA
ATOM      2  C   UNL     1      11.391  -7.982  31.954  0.00  0.00    +0.425 C 
ATOM      3  N   UNL     1      11.054  -8.474  32.525  0.00  0.00    -0.142 NA
BRANCH   3   4
ATOM      4  C   UNL     1      10.246  -8.637  32.503  0.00  0.00    +0.077 A 
ATOM      5  C   UNL     1       9.704  -8.071  32.760  0.00  0.00    +0.020 A 
ATOM      6  C   UNL     1       8.895  -8.234  32.738  0.00  0.00    +0.039 A 
ATOM      7  C   UNL     1       8.628  -8.963  32.459  0.00  0.00    +0.145 A 
ATOM     15  C   UNL     1       9.170  -9.530  32.202  0.00  0.00    +0.039 A 
ATOM     16  C   UNL     1       9.979  -9.367  32.224  0.00  0.00    +0.020 A 
BRANCH   7   8
ATOM      8  O   UNL     1       7.819  -9.125  32.437  0.00  0.00    -0.453 OA
BRANCH   8   9
ATOM      9  C   UNL     1       7.428  -9.173  31.713  0.00  0.00    +0.145 A 
ATOM     10  C   UNL     1       7.151  -8.487  31.348  0.00  0.00    +0.037 A 
ATOM     11  C   UNL     1       6.760  -8.534  30.624  0.00  0.00    +0.003 A 
ATOM     12  C   UNL     1       6.645  -9.267  30.264  0.00  0.00    +0.000 A 
ATOM     13  C   UNL     1       6.921  -9.954  30.629  0.00  0.00    +0.003 A 
ATOM     14  C   UNL     1       7.313  -9.906  31.354  0.00  0.00    +0.037 A 
ENDBRANCH   8   9
ENDBRANCH   7   8
ENDBRANCH   3   4
ENDBRANCH  17   2
ENDBRANCH  18  17
TORSDOF 7
ENDMDL
MODEL 4
REMARK VINA RESULT:      -6.6     15.151     18.624
REMARK  Name = 
REMARK  7 active torsions:
REMARK  status: ('A' for Active; 'I' for Inactive)
REMARK    1  A    between atoms: C_2  and  O_17
REMARK    2  A    between atoms: N_3  and  C_4
REMARK    3  A    between atoms: C_7  and  O_8
REMARK    4  A    between atoms: O_8  and  C_9
REMARK    5  A    between atoms: O_17  and  C_18
REMARK    6  A    between atoms: C_22  and  N_26
REMARK    7  A    between atoms: C_29  and  C_33
REMARK                            x       y       z     vdW  Elec       q    Type
REMARK                         _______ _______ _______ _____ _____    ______ ____
ROOT
ATOM     18  C   UNL     1      -0.262   0.099  23.422  0.00  0.00    +0.229 C 
ATOM     19  C   UNL     1      -0.299   0.891  23.193  0.00  0.00    +0.188 C 
ATOM     20  O   UNL     1      -0.904   1.253  23.621  0.00  0.00    -0.348 OA
ATOM     21  C   UNL     1      -1.241   0.685  24.115  0.00  0.00    +0.168 C 
ATOM     22  C   UNL     1      -1.824   0.558  24.685  0.00  0.00    +0.155 C 
ATOM     23  C   UNL     1      -1.787  -0.234  24.915  0.00  0.00    +0.166 C 
ATOM     24  O   UNL     1      -1.182  -0.596  24.486  0.00  0.00    -0.348 OA
ATOM     25  C   UNL     1      -0.845  -0.028  23.992  0.00  0.00    +0.186 C 
ENDROOT
BRANCH  22  26
ATOM     26  N   UNL     1      -2.350   1.123  24.975  0.00  0.00    -0.200 NA
ATOM     27  C   UNL     1      -3.158   1.048  24.827  0.00  0.00    +0.237 A 
ATOM     28  N   UNL     1      -3.686   1.613  25.117  0.00  0.00    -0.212 NA
ATOM     29  C   UNL     1      -4.494   1.538  24.969  0.00  0.00    +0.086 A 
ATOM     30  C   UNL     1      -4.775   0.897  24.532  0.00  0.00    +0.040 A 
ATOM     31  C   UNL     1      -4.249   0.332  24.242  0.00  0.00    +0.103 A 
ATOM     32  N   UNL     1      -3.440   0.408  24.390  0.00  0.00    -0.211 NA
BRANCH  29  33
ATOM     33  C   UNL     1      -5.020   2.103  25.259  0.00  0.00    +0.021 A 
ATOM     34  C   UNL     1      -4.876   2.904  25.131  0.00  0.00    +0.042 A 
ATOM     35  C   UNL     1      -5.403   3.470  25.420  0.00  0.00    +0.176 A 
ATOM     36  C   UNL     1      -6.073   3.233  25.838  0.00  0.00    +0.176 A 
ATOM     37  O   UNL     1      -6.490   3.910  26.056  0.00  0.00    -0.435 OA
ATOM     38  C   UNL     1      -6.078   4.565  25.773  0.00  0.00    +0.429 C 
ATOM     39  O   UNL     1      -5.406   4.293  25.380  0.00  0.00    -0.435 OA
ATOM     40  C   UNL     1      -6.217   2.430  25.967  0.00  0.00    +0.040 A 
ATOM     41  C   UNL     1      -5.690   1.865  25.677  0.00  0.00    +0.005 A 
ENDBRANCH  29  33
ENDBRANCH  22  26
BRANCH  18  17
ATOM     17  O   UNL     1       0.264  -0.465  23.132  0.00  0.00    -0.432 OA
BRANCH  17   2
ATOM      1  O   UNL     1       1.529  -0.575  23.787  0.00  0.00    -0.224 OA
ATOM      2  C   UNL     1       1.076  -0.319  23.147  0.00  0.00    +0.425 C 
ATOM      3  N   UNL     1       1.433   0.084  22.522  0.00  0.00    -0.142 NA
BRANCH   3   4
ATOM      4  C   UNL     1       2.245   0.231  22.537  0.00  0.00    +0.077 A 
ATOM      5  C   UNL     1       2.762  -0.262  22.124  0.00  0.00    +0.020 A 
ATOM      6  C   UNL     1       3.573  -0.116  22.139  0.00  0.00    +0.039 A 
ATOM      7  C   UNL     1       3.870   0.524  22.568  0.00  0.00    +0.145 A 
ATOM     15  C   UNL     1       3.353   1.017  22.982  0.00  0.00    +0.039 A 
ATOM     16  C   UNL     1       2.541   0.871  22.966  0.00  0.00    +0.020 A 
BRANCH   7   8
ATOM      8  O   UNL     1       4.681   0.670  22.583  0.00  0.00    -0.453 OA
BRANCH   8   9
ATOM      9  C   UNL     1       5.148   0.343  23.178  0.00  0.00    +0.145 A 
ATOM     10  C   UNL     1       5.453  -0.419  23.093  0.00  0.00    +0.037 A 
ATOM     11  C   UNL     1       5.920  -0.746  23.688  0.00  0.00    +0.003 A 
ATOM     12  C   UNL     1       6.082  -0.312  24.370  0.00  0.00    +0.000 A 
ATOM     13  C   UNL     1       5.778   0.450  24.457  0.00  0.00    +0.003 A 
ATOM     14  C   UNL     1       5.311   0.778  23.860  0.00  0.00    +0.037 A 
ENDBRANCH   8   9
ENDBRANCH   7   8
ENDBRANCH   3   4
ENDBRANCH  17   2
ENDBRANCH  18  17
TORSDOF 7
ENDMDL
MODEL 5
REMARK VINA RESULT:      -5.6     14.282     16.211
REMARK  Name = 
REMARK  7 active torsions:
REMARK  status: ('A' for Active; 'I' for Inactive)
REMARK    1  A    between atoms: C_2  and  O_17
REMARK    2  A    between atoms: N_3  and  C_4
REMARK    3  A    between atoms: C_7  and  O_8
REMARK    4  A    between atoms: O_8  and  C_9
REMARK    5  A    between atoms: O_17  and  C_18
REMARK    6  A    between atoms: C_22  and  N_26
REMARK    7  A    between atoms: C_29  and  C_33
REMARK                            x       y       z     vdW  Elec       q    Type
REMARK                         _______ _______ _______ _____ _____    ______ ____
ROOT
ATOM     18  C   UNL     1      -0.982   2.287  25.159  0.00  0.00    +0.229 C 
ATOM     19  C   UNL     1      -0.461   2.337  25.797  0.00  0.00    +0.188 C 
ATOM     20  O   UNL     1       0.304   2.217  25.513  0.00  0.00    -0.348 OA
ATOM     21  C   UNL     1       0.256   2.092  24.699  0.00  0.00    +0.168 C 
ATOM     22  C   UNL     1       0.700   1.940  24.020  0.00  0.00    +0.155 C 
ATOM     23  C   UNL     1       0.180   1.890  23.382  0.00  0.00    +0.166 C 
ATOM     24  O   UNL     1      -0.585   2.011  23.666  0.00  0.00    -0.348 OA
ATOM     25  C   UNL     1      -0.538   2.135  24.479  0.00  0.00    +0.186 C 
ENDROOT
BRANCH  22  26
ATOM     26  N   UNL     1       1.520   1.853  23.986  0.00  0.00    -0.200 NA
ATOM     27  C   UNL     1       1.850   1.212  23.585  0.00  0.00    +0.237 A 
ATOM     28  N   UNL     1       2.671   1.126  23.551  0.00  0.00    -0.212 NA
ATOM     29  C   UNL     1       3.001   0.484  23.151  0.00  0.00    +0.086 A 
ATOM     30  C   UNL     1       2.512  -0.070  22.785  0.00  0.00    +0.040 A 
ATOM     31  C   UNL     1       1.692   0.016  22.819  0.00  0.00    +0.103 A 
ATOM     32  N   UNL     1       1.362   0.658  23.219  0.00  0.00    -0.211 NA
BRANCH  29  33
ATOM     33  C   UNL     1       3.820   0.398  23.117  0.00  0.00    +0.021 A 
ATOM     34  C   UNL     1       4.204  -0.110  23.640  0.00  0.00    +0.042 A 
ATOM     35  C   UNL     1       5.024  -0.197  23.606  0.00  0.00    +0.176 A 
ATOM     36  C   UNL     1       5.460   0.225  23.048  0.00  0.00    +0.176 A 
ATOM     37  O   UNL     1       6.255   0.029  23.144  0.00  0.00    -0.435 OA
ATOM     38  C   UNL     1       6.311  -0.514  23.762  0.00  0.00    +0.429 C 
ATOM     39  O   UNL     1       5.549  -0.654  24.047  0.00  0.00    -0.435 OA
ATOM     40  C   UNL     1       5.076   0.735  22.523  0.00  0.00    +0.040 A 
ATOM     41  C   UNL     1       4.257   0.821  22.558  0.00  0.00    +0.005 A 
ENDBRANCH  29  33
ENDBRANCH  22  26
BRANCH  18  17
ATOM     17  O   UNL     1      -1.801   2.374  25.193  0.00  0.00    -0.432 OA
BRANCH  17   2
ATOM      1  O   UNL     1      -2.179   1.071  25.638  0.00  0.00    -0.224 OA
ATOM      2  C   UNL     1      -2.288   1.711  25.131  0.00  0.00    +0.425 C 
ATOM      3  N   UNL     1      -2.885   1.690  24.561  0.00  0.00    -0.142 NA
BRANCH   3   4
ATOM      4  C   UNL     1      -3.372   1.027  24.499  0.00  0.00    +0.077 A 
ATOM      5  C   UNL     1      -3.364   0.571  23.812  0.00  0.00    +0.020 A 
ATOM      6  C   UNL     1      -3.851  -0.091  23.750  0.00  0.00    +0.039 A 
ATOM      7  C   UNL     1      -4.347  -0.299  24.375  0.00  0.00    +0.145 A 
ATOM     15  C   UNL     1      -4.356   0.157  25.063  0.00  0.00    +0.039 A 
ATOM     16  C   UNL     1      -3.869   0.820  25.125  0.00  0.00    +0.020 A 
BRANCH   7   8
ATOM      8  O   UNL     1      -4.835  -0.962  24.313  0.00  0.00    -0.453 OA
BRANCH   8   9
ATOM      9  C   UNL     1      -4.502  -1.714  24.257  0.00  0.00    +0.145 A 
ATOM     10  C   UNL     1      -4.041  -2.009  24.874  0.00  0.00    +0.037 A 
ATOM     11  C   UNL     1      -3.709  -2.761  24.818  0.00  0.00    +0.003 A 
ATOM     12  C   UNL     1      -3.837  -3.220  24.144  0.00  0.00    +0.000 A 
ATOM     13  C   UNL     1      -4.298  -2.926  23.527  0.00  0.00    +0.003 A 
ATOM     14  C   UNL     1      -4.631  -2.172  23.583  0.00  0.00    +0.037 A 
ENDBRANCH   8   9
ENDBRANCH   7   8
ENDBRANCH   3   4
ENDBRANCH  17   2
ENDBRANCH  18  17
TORSDOF 7
ENDMDL
