MODEL 1
REMARK VINA RESULT:     -10.6      0.000      0.000
REMARK  Name = 
REMARK  5 active torsions:
REMARK  status: ('A' for Active; 'I' for Inactive)
REMARK    1  A    between atoms: C_2  and  C_4
REMARK    2  A    between atoms: C_6  and  C_7
REMARK    3  A    between atoms: C_7  and  C_8
REMARK    4  A    between atoms: C_17  and  C_18
REMARK    5  A    between atoms: C_18  and  N_19
REMARK                            x       y       z     vdW  Elec       q    Type
REMARK                         _______ _______ _______ _____ _____    ______ ____
ROOT
ATOM      4  C   UNL     1      -3.576   2.943  25.006  0.00  0.00    +0.006 C 
ATOM      5  C   UNL     1      -3.001   3.437  25.329  0.00  0.00    +0.005 C 
ATOM      6  C   UNL     1      -2.260   3.133  25.530  0.00  0.00    +0.027 C 
ATOM     14  C   UNL     1      -2.096   2.334  25.407  0.00  0.00    -0.048 C 
ATOM     15  C   UNL     1      -1.356   2.030  25.608  0.00  0.00    +0.026 C 
ATOM     16  C   UNL     1      -2.672   1.839  25.084  0.00  0.00    -0.034 C 
ATOM     17  C   UNL     1      -3.412   2.144  24.883  0.00  0.00    +0.037 C 
ENDROOT
BRANCH   4   2
ATOM      1  C   UNL     1      -4.906   3.311  25.378  0.00  0.00    +0.000 C 
ATOM      2  C   UNL     1      -4.316   3.247  24.805  0.00  0.00    +0.000 C 
ATOM      3  C   UNL     1      -4.466   3.488  24.030  0.00  0.00    +0.000 C 
ENDBRANCH   4   2
BRANCH   6   7
ATOM      7  C   UNL     1      -1.685   3.628  25.853  0.00  0.00    +0.091 C 
BRANCH   7   8
ATOM      8  C   UNL     1      -1.432   4.294  25.436  0.00  0.00    +0.226 A 
ATOM      9  N   UNL     1      -1.719   5.062  25.529  0.00  0.00    -0.112 NA
ATOM     10  N   UNL     1      -1.312   5.551  25.003  0.00  0.00    -0.112 NA
ATOM     11  C   UNL     1      -0.773   5.085  24.586  0.00  0.00    +0.227 A 
ATOM     12  C   UNL     1      -0.252   5.349  24.004  0.00  0.00    +0.097 C 
ATOM     13  O   UNL     1      -0.848   4.308  24.854  0.00  0.00    -0.423 OA
ENDBRANCH   7   8
ENDBRANCH   6   7
BRANCH  17  18
ATOM     18  C   UNL     1      -3.987   1.649  24.560  0.00  0.00    +0.076 C 
BRANCH  18  19
ATOM     19  N   UNL     1      -3.877   0.832  24.564  0.00  0.00    -0.269 NA
ATOM     20  C   UNL     1      -3.629   0.445  23.877  0.00  0.00    +0.094 C 
ATOM     21  C   UNL     1      -3.519  -0.372  23.881  0.00  0.00    +0.109 C 
ATOM     22  N   UNL     1      -3.658  -0.803  24.571  0.00  0.00    -0.290 N 
ATOM     23  C   UNL     1      -3.906  -0.418  25.256  0.00  0.00    +0.109 C 
ATOM     24  C   UNL     1      -4.015   0.400  25.253  0.00  0.00    +0.094 C 
ATOM     25  C   UNL     1      -3.548  -1.622  24.575  0.00  0.00    +0.132 A 
ATOM     26  N   UNL     1      -3.300  -2.008  23.889  0.00  0.00    -0.229 NA
ATOM     27  C   UNL     1      -3.191  -2.825  23.892  0.00  0.00    +0.100 A 
ATOM     28  C   UNL     1      -3.329  -3.257  24.582  0.00  0.00    +0.021 A 
ATOM     29  C   UNL     1      -3.577  -2.871  25.267  0.00  0.00    +0.004 A 
ATOM     30  C   UNL     1      -3.686  -2.053  25.264  0.00  0.00    +0.034 A 
ENDBRANCH  18  19
ENDBRANCH  17  18
TORSDOF 5
ENDMDL
MODEL 2
REMARK VINA RESULT:      -9.8      2.744      4.492
REMARK  Name = 
REMARK  5 active torsions:
REMARK  status: ('A' for Active; 'I' for Inactive)
REMARK    1  A    between atoms: C_2  and  C_4
REMARK    2  A    between atoms: C_6  and  C_7
REMARK    3  A    between atoms: C_7  and  C_8
REMARK    4  A    between atoms: C_17  and  C_18
REMARK    5  A    between atoms: C_18  and  N_19
REMARK                            x       y       z     vdW  Elec       q    Type
REMARK                         _______ _______ _______ _____ _____    ______ ____
ROOT
ATOM      4  C   UNL     1      -3.282  -0.158  24.852  0.00  0.00    +0.006 C 
ATOM      5  C   UNL     1      -3.935   0.306  24.659  0.00  0.00    +0.005 C 
ATOM      6  C   UNL     1      -3.836   0.991  24.209  0.00  0.00    +0.027 C 
ATOM     14  C   UNL     1      -3.083   1.211  23.954  0.00  0.00    -0.048 C 
ATOM     15  C   UNL     1      -2.983   1.895  23.504  0.00  0.00    +0.026 C 
ATOM     16  C   UNL     1      -2.429   0.746  24.148  0.00  0.00    -0.034 C 
ATOM     17  C   UNL     1      -2.529   0.061  24.597  0.00  0.00    +0.037 C 
ENDROOT
BRANCH   4   2
ATOM      1  C   UNL     1      -3.240  -0.828  26.114  0.00  0.00    +0.000 C 
ATOM      2  C   UNL     1      -3.382  -0.842  25.302  0.00  0.00    +0.000 C 
ATOM      3  C   UNL     1      -3.623  -1.544  24.938  0.00  0.00    +0.000 C 
ENDBRANCH   4   2
BRANCH   6   7
ATOM      7  C   UNL     1      -4.489   1.456  24.015  0.00  0.00    +0.091 C 
BRANCH   7   8
ATOM      8  C   UNL     1      -4.953   1.786  24.613  0.00  0.00    +0.226 A 
ATOM      9  N   UNL     1      -5.680   1.499  24.876  0.00  0.00    -0.112 NA
ATOM     10  N   UNL     1      -5.947   1.997  25.478  0.00  0.00    -0.112 NA
ATOM     11  C   UNL     1      -5.384   2.590  25.587  0.00  0.00    +0.227 A 
ATOM     12  C   UNL     1      -5.428   3.206  26.134  0.00  0.00    +0.097 C 
ATOM     13  O   UNL     1      -4.769   2.459  25.052  0.00  0.00    -0.423 OA
ENDBRANCH   7   8
ENDBRANCH   6   7
BRANCH  17  18
ATOM     18  C   UNL     1      -1.876  -0.403  24.791  0.00  0.00    +0.076 C 
BRANCH  18  19
ATOM     19  N   UNL     1      -1.153  -0.276  24.415  0.00  0.00    -0.269 NA
ATOM     20  C   UNL     1      -0.938  -0.739  23.766  0.00  0.00    +0.094 C 
ATOM     21  C   UNL     1      -0.215  -0.612  23.390  0.00  0.00    +0.109 C 
ATOM     22  N   UNL     1       0.293  -0.021  23.663  0.00  0.00    -0.290 N 
ATOM     23  C   UNL     1       0.078   0.442  24.310  0.00  0.00    +0.109 C 
ATOM     24  C   UNL     1      -0.645   0.315  24.686  0.00  0.00    +0.094 C 
ATOM     25  C   UNL     1       1.017   0.107  23.286  0.00  0.00    +0.132 A 
ATOM     26  N   UNL     1       1.232  -0.357  22.638  0.00  0.00    -0.229 NA
ATOM     27  C   UNL     1       1.955  -0.229  22.262  0.00  0.00    +0.100 A 
ATOM     28  C   UNL     1       2.463   0.362  22.534  0.00  0.00    +0.021 A 
ATOM     29  C   UNL     1       2.248   0.824  23.182  0.00  0.00    +0.004 A 
ATOM     30  C   UNL     1       1.524   0.697  23.558  0.00  0.00    +0.034 A 
ENDBRANCH  18  19
ENDBRANCH  17  18
TORSDOF 5
ENDMDL
MODEL 3
REMARK VINA RESULT:      -9.8      1.985      5.896
REMARK  Name = 
REMARK  5 active torsions:
REMARK  status: ('A' for Active; 'I' for Inactive)
REMARK    1  A    between atoms: C_2  and  C_4
REMARK    2  A    between atoms: C_6  and  C_7
REMARK    3  A    between atoms: C_7  and  C_8
REMARK    4  A    between atoms: C_17  and  C_18
REMARK    5  A    between atoms: C_18  and  N_19
REMARK                            x       y       z     vdW  Elec       q    Type
REMARK                         _______ _______ _______ _____ _____    ______ ____
ROOT
ATOM      4  C   UNL     1      -1.848  -0.448  25.354  0.00  0.00    +0.006 C 
ATOM      5  C   UNL     1      -2.563  -0.852  25.278  0.00  0.00    +0.005 C 
ATOM      6  C   UNL     1      -3.243  -0.449  25.041  0.00  0.00    +0.027 C 
ATOM     14  C   UNL     1      -3.207   0.359  24.878  0.00  0.00    -0.048 C 
ATOM     15  C   UNL     1      -3.886   0.763  24.641  0.00  0.00    +0.026 C 
ATOM     16  C   UNL     1      -2.492   0.764  24.954  0.00  0.00    -0.034 C 
ATOM     17  C   UNL     1      -1.813   0.360  25.191  0.00  0.00    +0.037 C 
ENDROOT
BRANCH   4   2
ATOM      1  C   UNL     1      -0.993  -0.926  26.394  0.00  0.00    +0.000 C 
ATOM      2  C   UNL     1      -1.169  -0.850  25.591  0.00  0.00    +0.000 C 
ATOM      3  C   UNL     1      -0.665  -1.179  25.025  0.00  0.00    +0.000 C 
ENDBRANCH   4   2
BRANCH   6   7
ATOM      7  C   UNL     1      -3.957  -0.854  24.965  0.00  0.00    +0.091 C 
BRANCH   7   8
ATOM      8  C   UNL     1      -3.994  -1.547  24.518  0.00  0.00    +0.226 A 
ATOM      9  N   UNL     1      -4.214  -1.601  23.725  0.00  0.00    -0.112 NA
ATOM     10  N   UNL     1      -4.173  -2.395  23.503  0.00  0.00    -0.112 NA
ATOM     11  C   UNL     1      -3.927  -2.831  24.159  0.00  0.00    +0.227 A 
ATOM     12  C   UNL     1      -3.811  -3.647  24.184  0.00  0.00    +0.097 C 
ATOM     13  O   UNL     1      -3.816  -2.306  24.787  0.00  0.00    -0.423 OA
ENDBRANCH   7   8
ENDBRANCH   6   7
BRANCH  17  18
ATOM     18  C   UNL     1      -1.098   0.766  25.267  0.00  0.00    +0.076 C 
BRANCH  18  19
ATOM     19  N   UNL     1      -1.074   1.582  25.159  0.00  0.00    -0.269 NA
ATOM     20  C   UNL     1      -0.712   1.899  24.488  0.00  0.00    +0.094 C 
ATOM     21  C   UNL     1      -0.687   2.717  24.379  0.00  0.00    +0.109 C 
ATOM     22  N   UNL     1      -1.025   3.217  24.942  0.00  0.00    -0.290 N 
ATOM     23  C   UNL     1      -1.387   2.901  25.612  0.00  0.00    +0.109 C 
ATOM     24  C   UNL     1      -1.411   2.084  25.720  0.00  0.00    +0.094 C 
ATOM     25  C   UNL     1      -1.000   4.036  24.834  0.00  0.00    +0.132 A 
ATOM     26  N   UNL     1      -0.638   4.352  24.163  0.00  0.00    -0.229 NA
ATOM     27  C   UNL     1      -0.614   5.169  24.054  0.00  0.00    +0.100 A 
ATOM     28  C   UNL     1      -0.951   5.671  24.617  0.00  0.00    +0.021 A 
ATOM     29  C   UNL     1      -1.313   5.354  25.287  0.00  0.00    +0.004 A 
ATOM     30  C   UNL     1      -1.337   4.536  25.395  0.00  0.00    +0.034 A 
ENDBRANCH  18  19
ENDBRANCH  17  18
TORSDOF 5
ENDMDL
MODEL 4
REMARK VINA RESULT:      -9.4      2.374      3.405
REMARK  Name = 
REMARK  5 active torsions:
REMARK  status: ('A' for Active; 'I' for Inactive)
REMARK    1  A    between atoms: C_2  and  C_4
REMARK    2  A    between atoms: C_6  and  C_7
REMARK    3  A    between atoms: C_7  and  C_8
REMARK    4  A    between atoms: C_17  and  C_18
REMARK    5  A    between atoms: C_18  and  N_19
REMARK                            x       y       z     vdW  Elec       q    Type
REMARK                         _______ _______ _______ _____ _____    ______ ____
ROOT
ATOM      4  C   UNL     1      -2.354   3.630  24.952  0.00  0.00    +0.006 C 
ATOM      5  C   UNL     1      -3.137   3.867  24.848  0.00  0.00    +0.005 C 
ATOM      6  C   UNL     1      -3.631   3.446  24.339  0.00  0.00    +0.027 C 
ATOM     14  C   UNL     1      -3.342   2.788  23.934  0.00  0.00    -0.048 C 
ATOM     15  C   UNL     1      -3.835   2.367  23.424  0.00  0.00    +0.026 C 
ATOM     16  C   UNL     1      -2.558   2.551  24.038  0.00  0.00    -0.034 C 
ATOM     17  C   UNL     1      -2.065   2.972  24.547  0.00  0.00    +0.037 C 
ENDROOT
BRANCH   4   2
ATOM      1  C   UNL     1      -1.883   3.905  26.273  0.00  0.00    +0.000 C 
ATOM      2  C   UNL     1      -1.860   4.050  25.461  0.00  0.00    +0.000 C 
ATOM      3  C   UNL     1      -1.342   4.618  25.159  0.00  0.00    +0.000 C 
ENDBRANCH   4   2
BRANCH   6   7
ATOM      7  C   UNL     1      -4.414   3.683  24.234  0.00  0.00    +0.091 C 
BRANCH   7   8
ATOM      8  C   UNL     1      -4.961   3.582  24.845  0.00  0.00    +0.226 A 
ATOM      9  N   UNL     1      -5.292   4.184  25.302  0.00  0.00    -0.112 NA
ATOM     10  N   UNL     1      -5.807   3.837  25.845  0.00  0.00    -0.112 NA
ATOM     11  C   UNL     1      -5.793   3.021  25.723  0.00  0.00    +0.227 A 
ATOM     12  C   UNL     1      -6.227   2.460  26.145  0.00  0.00    +0.097 C 
ATOM     13  O   UNL     1      -5.270   2.864  25.105  0.00  0.00    -0.423 OA
ENDBRANCH   7   8
ENDBRANCH   6   7
BRANCH  17  18
ATOM     18  C   UNL     1      -1.282   2.734  24.651  0.00  0.00    +0.076 C 
BRANCH  18  19
ATOM     19  N   UNL     1      -1.094   1.933  24.683  0.00  0.00    -0.269 NA
ATOM     20  C   UNL     1      -0.715   1.571  24.045  0.00  0.00    +0.094 C 
ATOM     21  C   UNL     1      -0.528   0.768  24.077  0.00  0.00    +0.109 C 
ATOM     22  N   UNL     1      -0.720   0.327  24.748  0.00  0.00    -0.290 N 
ATOM     23  C   UNL     1      -1.098   0.688  25.385  0.00  0.00    +0.109 C 
ATOM     24  C   UNL     1      -1.285   1.490  25.353  0.00  0.00    +0.094 C 
ATOM     25  C   UNL     1      -0.532  -0.477  24.780  0.00  0.00    +0.132 A 
ATOM     26  N   UNL     1      -0.153  -0.837  24.141  0.00  0.00    -0.229 NA
ATOM     27  C   UNL     1       0.034  -1.640  24.174  0.00  0.00    +0.100 A 
ATOM     28  C   UNL     1      -0.157  -2.082  24.844  0.00  0.00    +0.021 A 
ATOM     29  C   UNL     1      -0.536  -1.721  25.482  0.00  0.00    +0.004 A 
ATOM     30  C   UNL     1      -0.723  -0.918  25.449  0.00  0.00    +0.034 A 
ENDBRANCH  18  19
ENDBRANCH  17  18
TORSDOF 5
ENDMDL
MODEL 5
REMARK VINA RESULT:      -9.0      1.549      5.524
REMARK  Name = 
REMARK  5 active torsions:
REMARK  status: ('A' for Active; 'I' for Inactive)
REMARK    1  A    between atoms: C_2  and  C_4
REMARK    2  A    between atoms: C_6  and  C_7
REMARK    3  A    between atoms: C_7  and  C_8
REMARK    4  A    between atoms: C_17  and  C_18
REMARK    5  A    between atoms: C_18  and  N_19
REMARK                            x       y       z     vdW  Elec       q    Type
REMARK                         _______ _______ _______ _____ _____    ______ ____
ROOT
ATOM      4  C   UNL     1      -4.701   0.898  24.772  0.00  0.00    +0.006 C 
ATOM      5  C   UNL     1      -4.628   0.182  24.371  0.00  0.00    +0.005 C 
ATOM      6  C   UNL     1      -3.978   0.047  23.881  0.00  0.00    +0.027 C 
ATOM     14  C   UNL     1      -3.401   0.630  23.792  0.00  0.00    -0.048 C 
ATOM     15  C   UNL     1      -2.750   0.496  23.303  0.00  0.00    +0.026 C 
ATOM     16  C   UNL     1      -3.474   1.348  24.194  0.00  0.00    -0.034 C 
ATOM     17  C   UNL     1      -4.124   1.481  24.683  0.00  0.00    +0.037 C 
ENDROOT
BRANCH   4   2
ATOM      1  C   UNL     1      -5.327   0.803  26.053  0.00  0.00    +0.000 C 
ATOM      2  C   UNL     1      -5.351   1.033  25.261  0.00  0.00    +0.000 C 
ATOM      3  C   UNL     1      -6.027   1.398  24.958  0.00  0.00    +0.000 C 
ENDBRANCH   4   2
BRANCH   6   7
ATOM      7  C   UNL     1      -3.904  -0.670  23.480  0.00  0.00    +0.091 C 
BRANCH   7   8
ATOM      8  C   UNL     1      -3.896  -1.380  23.902  0.00  0.00    +0.226 A 
ATOM      9  N   UNL     1      -4.449  -1.988  23.837  0.00  0.00    -0.112 NA
ATOM     10  N   UNL     1      -4.228  -2.590  24.357  0.00  0.00    -0.112 NA
ATOM     11  C   UNL     1      -3.539  -2.352  24.743  0.00  0.00    +0.227 A 
ATOM     12  C   UNL     1      -3.127  -2.786  25.311  0.00  0.00    +0.097 C 
ATOM     13  O   UNL     1      -3.334  -1.604  24.461  0.00  0.00    -0.423 OA
ENDBRANCH   7   8
ENDBRANCH   6   7
BRANCH  17  18
ATOM     18  C   UNL     1      -4.197   2.199  25.084  0.00  0.00    +0.076 C 
BRANCH  18  19
ATOM     19  N   UNL     1      -3.584   2.749  25.058  0.00  0.00    -0.269 NA
ATOM     20  C   UNL     1      -2.851   2.568  25.392  0.00  0.00    +0.094 C 
ATOM     21  C   UNL     1      -2.238   3.119  25.366  0.00  0.00    +0.109 C 
ATOM     22  N   UNL     1      -2.358   3.852  25.006  0.00  0.00    -0.290 N 
ATOM     23  C   UNL     1      -3.090   4.034  24.673  0.00  0.00    +0.109 C 
ATOM     24  C   UNL     1      -3.703   3.482  24.699  0.00  0.00    +0.094 C 
ATOM     25  C   UNL     1      -1.745   4.404  24.981  0.00  0.00    +0.132 A 
ATOM     26  N   UNL     1      -1.012   4.222  25.314  0.00  0.00    -0.229 NA
ATOM     27  C   UNL     1      -0.399   4.774  25.288  0.00  0.00    +0.100 A 
ATOM     28  C   UNL     1      -0.518   5.507  24.929  0.00  0.00    +0.021 A 
ATOM     29  C   UNL     1      -1.251   5.688  24.596  0.00  0.00    +0.004 A 
ATOM     30  C   UNL     1      -1.864   5.137  24.622  0.00  0.00    +0.034 A 
ENDBRANCH  18  19
ENDBRANCH  17  18
TORSDOF 5
ENDMDL
