MODEL 1
REMARK VINA RESULT:     -14.5      0.000      0.000
REMARK  Name = 
REMARK  4 active torsions:
REMARK  status: ('A' for Active; 'I' for Inactive)
REMARK    1  A    between atoms: N_2  and  C_4
REMARK    2  A    between atoms: C_4  and  C_5
REMARK    3  A    between atoms: C_10  and  C_11
REMARK    4  A    between atoms: N_23  and  C_24
REMARK                            x       y       z     vdW  Elec       q    Type
REMARK                         _______ _______ _______ _____ _____    ______ ____
ROOT
ATOM     11  C   UNL     1      -2.261   2.061  24.065  0.00  0.00    +0.056 A 
ATOM     12  C   UNL     1      -1.484   2.299  23.924  0.00  0.00    +0.006 A 
ATOM     13  C   UNL     1      -0.871   1.748  23.955  0.00  0.00    +0.013 A 
ATOM     14  C   UNL     1      -1.036   0.958  24.127  0.00  0.00    +0.041 A 
ATOM     15  C   UNL     1      -0.615   0.148  24.231  0.00  0.00    +0.058 C 
ATOM     16  C   UNL     1       0.021  -0.149  24.210  0.00  0.00    +0.011 C 
ATOM     17  C   UNL     1      -0.748  -0.381  24.349  0.00  0.00    +0.043 C 
ATOM     18  C   UNL     1      -1.597  -0.849  24.543  0.00  0.00    +0.097 C 
ATOM     19  N   UNL     1      -2.127  -0.206  24.484  0.00  0.00    -0.262 N 
ATOM     20  C   UNL     1      -1.427  -0.319  24.420  0.00  0.00    +0.101 C 
ATOM     21  C   UNL     1      -2.843   0.204  24.493  0.00  0.00    +0.327 C 
ATOM     22  O   UNL     1      -2.857   1.015  24.339  0.00  0.00    -0.250 OA
ATOM     23  N   UNL     1      -3.545  -0.196  24.656  0.00  0.00    -0.162 NA
ATOM     30  C   UNL     1      -1.196   0.461  24.242  0.00  0.00    +0.110 C 
ATOM     31  N   UNL     1      -1.813   0.720  24.268  0.00  0.00    -0.299 N 
ATOM     32  C   UNL     1      -2.426   1.271  24.237  0.00  0.00    +0.261 A 
ATOM     33  O   UNL     1      -3.244   1.284  24.335  0.00  0.00    -0.267 OA
ENDROOT
BRANCH  11  10
ATOM      5  C   UNL     1      -2.896   3.233  24.578  0.00  0.00    -0.006 A 
ATOM      6  C   UNL     1      -3.508   3.786  24.548  0.00  0.00    -0.003 A 
ATOM      7  C   UNL     1      -4.096   3.718  23.974  0.00  0.00    -0.000 A 
ATOM      8  C   UNL     1      -4.074   3.098  23.430  0.00  0.00    -0.000 A 
ATOM      9  C   UNL     1      -3.461   2.545  23.461  0.00  0.00    -0.000 A 
ATOM     10  C   UNL     1      -2.873   2.613  24.034  0.00  0.00    +0.002 A 
BRANCH   5   4
ATOM      4  C   UNL     1      -2.307   3.301  25.152  0.00  0.00    +0.099 C 
BRANCH   4   2
ATOM      1  C   UNL     1      -2.728   3.912  26.373  0.00  0.00    +0.090 C 
ATOM      2  N   UNL     1      -2.305   3.947  25.666  0.00  0.00    -0.267 NA
ATOM      3  C   UNL     1      -1.879   4.626  25.473  0.00  0.00    +0.090 C 
ENDBRANCH   4   2
ENDBRANCH   5   4
ENDBRANCH  11  10
BRANCH  23  24
ATOM     24  C   UNL     1      -3.533  -1.007  24.810  0.00  0.00    +0.075 A 
ATOM     25  C   UNL     1      -3.644  -1.545  24.196  0.00  0.00    +0.017 A 
ATOM     26  C   UNL     1      -3.631  -2.355  24.349  0.00  0.00    +0.001 A 
ATOM     27  C   UNL     1      -3.507  -2.628  25.118  0.00  0.00    +0.000 A 
ATOM     28  C   UNL     1      -3.396  -2.089  25.733  0.00  0.00    +0.001 A 
ATOM     29  C   UNL     1      -3.409  -1.279  25.580  0.00  0.00    +0.017 A 
ENDBRANCH  23  24
TORSDOF 4
ENDMDL
MODEL 2
REMARK VINA RESULT:     -13.5      1.189      2.482
REMARK  Name = 
REMARK  4 active torsions:
REMARK  status: ('A' for Active; 'I' for Inactive)
REMARK    1  A    between atoms: N_2  and  C_4
REMARK    2  A    between atoms: C_4  and  C_5
REMARK    3  A    between atoms: C_10  and  C_11
REMARK    4  A    between atoms: N_23  and  C_24
REMARK                            x       y       z     vdW  Elec       q    Type
REMARK                         _______ _______ _______ _____ _____    ______ ____
ROOT
ATOM     11  C   UNL     1      -2.799   2.285  24.199  0.00  0.00    +0.056 A 
ATOM     12  C   UNL     1      -3.378   2.872  24.236  0.00  0.00    +0.006 A 
ATOM     13  C   UNL     1      -4.155   2.673  24.431  0.00  0.00    +0.013 A 
ATOM     14  C   UNL     1      -4.353   1.888  24.587  0.00  0.00    +0.041 A 
ATOM     15  C   UNL     1      -5.073   1.366  24.817  0.00  0.00    +0.058 C 
ATOM     16  C   UNL     1      -5.760   1.406  24.957  0.00  0.00    +0.011 C 
ATOM     17  C   UNL     1      -5.186   0.829  24.919  0.00  0.00    +0.043 C 
ATOM     18  C   UNL     1      -4.644   0.003  24.924  0.00  0.00    +0.097 C 
ATOM     19  N   UNL     1      -3.900   0.322  24.719  0.00  0.00    -0.262 N 
ATOM     20  C   UNL     1      -4.563   0.558  24.826  0.00  0.00    +0.101 C 
ATOM     21  C   UNL     1      -3.093   0.345  24.544  0.00  0.00    +0.327 C 
ATOM     22  O   UNL     1      -2.730   1.063  24.362  0.00  0.00    -0.250 OA
ATOM     23  N   UNL     1      -2.651  -0.351  24.552  0.00  0.00    -0.162 NA
ATOM     30  C   UNL     1      -4.427   1.367  24.679  0.00  0.00    +0.110 C 
ATOM     31  N   UNL     1      -3.774   1.301  24.550  0.00  0.00    -0.299 N 
ATOM     32  C   UNL     1      -2.997   1.500  24.355  0.00  0.00    +0.261 A 
ATOM     33  O   UNL     1      -2.273   1.117  24.257  0.00  0.00    -0.267 OA
ENDROOT
BRANCH  11  10
ATOM      5  C   UNL     1      -1.594   2.994  24.492  0.00  0.00    -0.006 A 
ATOM      6  C   UNL     1      -0.818   3.194  24.298  0.00  0.00    -0.003 A 
ATOM      7  C   UNL     1      -0.470   2.884  23.617  0.00  0.00    -0.000 A 
ATOM      8  C   UNL     1      -0.898   2.375  23.129  0.00  0.00    -0.000 A 
ATOM      9  C   UNL     1      -1.675   2.175  23.324  0.00  0.00    -0.000 A 
ATOM     10  C   UNL     1      -2.023   2.484  24.004  0.00  0.00    +0.002 A 
BRANCH   5   4
ATOM      4  C   UNL     1      -1.942   3.303  25.172  0.00  0.00    +0.099 C 
BRANCH   4   2
ATOM      1  C   UNL     1      -1.514   4.618  25.534  0.00  0.00    +0.090 C 
ATOM      2  N   UNL     1      -1.509   3.804  25.666  0.00  0.00    -0.267 NA
ATOM      3  C   UNL     1      -1.072   3.490  26.291  0.00  0.00    +0.090 C 
ENDBRANCH   4   2
ENDBRANCH   5   4
ENDBRANCH  11  10
BRANCH  23  24
ATOM     24  C   UNL     1      -3.013  -1.069  24.734  0.00  0.00    +0.075 A 
ATOM     25  C   UNL     1      -3.038  -1.333  25.515  0.00  0.00    +0.017 A 
ATOM     26  C   UNL     1      -3.400  -2.050  25.697  0.00  0.00    +0.001 A 
ATOM     27  C   UNL     1      -3.738  -2.506  25.098  0.00  0.00    +0.000 A 
ATOM     28  C   UNL     1      -3.713  -2.243  24.317  0.00  0.00    +0.001 A 
ATOM     29  C   UNL     1      -3.351  -1.525  24.134  0.00  0.00    +0.017 A 
ENDBRANCH  23  24
TORSDOF 4
ENDMDL
MODEL 3
REMARK VINA RESULT:     -13.3      1.309      4.336
REMARK  Name = 
REMARK  4 active torsions:
REMARK  status: ('A' for Active; 'I' for Inactive)
REMARK    1  A    between atoms: N_2  and  C_4
REMARK    2  A    between atoms: C_4  and  C_5
REMARK    3  A    between atoms: C_10  and  C_11
REMARK    4  A    between atoms: N_23  and  C_24
REMARK                            x       y       z     vdW  Elec       q    Type
REMARK                         _______ _______ _______ _____ _____    ______ ____
ROOT
ATOM     11  C   UNL     1      -3.129   0.117  24.336  0.00  0.00    +0.056 A 
ATOM     12  C   UNL     1      -3.319  -0.132  23.573  0.00  0.00    +0.006 A 
ATOM     13  C   UNL     1      -3.231   0.385  22.936  0.00  0.00    +0.013 A 
ATOM     14  C   UNL     1      -2.953   1.152  23.062  0.00  0.00    +0.041 A 
ATOM     15  C   UNL     1      -2.754   1.923  22.605  0.00  0.00    +0.058 C 
ATOM     16  C   UNL     1      -2.752   2.194  21.957  0.00  0.00    +0.011 C 
ATOM     17  C   UNL     1      -2.565   2.437  22.712  0.00  0.00    +0.043 C 
ATOM     18  C   UNL     1      -2.291   2.909  23.535  0.00  0.00    +0.097 C 
ATOM     19  N   UNL     1      -2.420   2.302  24.095  0.00  0.00    -0.262 N 
ATOM     20  C   UNL     1      -2.486   2.394  23.391  0.00  0.00    +0.101 C 
ATOM     21  C   UNL     1      -2.447   1.924  24.828  0.00  0.00    +0.327 C 
ATOM     22  O   UNL     1      -2.706   1.142  24.880  0.00  0.00    -0.250 OA
ATOM     23  N   UNL     1      -2.216   2.328  25.509  0.00  0.00    -0.162 NA
ATOM     30  C   UNL     1      -2.770   1.635  23.199  0.00  0.00    +0.110 C 
ATOM     31  N   UNL     1      -2.763   1.401  23.826  0.00  0.00    -0.299 N 
ATOM     32  C   UNL     1      -2.851   0.884  24.462  0.00  0.00    +0.261 A 
ATOM     33  O   UNL     1      -2.736   0.892  25.279  0.00  0.00    -0.267 OA
ENDROOT
BRANCH  11  10
ATOM      5  C   UNL     1      -2.696  -1.034  25.062  0.00  0.00    -0.006 A 
ATOM      6  C   UNL     1      -2.784  -1.552  25.698  0.00  0.00    -0.003 A 
ATOM      7  C   UNL     1      -3.391  -1.436  26.244  0.00  0.00    -0.000 A 
ATOM      8  C   UNL     1      -3.912  -0.803  26.154  0.00  0.00    -0.000 A 
ATOM      9  C   UNL     1      -3.824  -0.284  25.517  0.00  0.00    -0.000 A 
ATOM     10  C   UNL     1      -3.217  -0.400  24.972  0.00  0.00    +0.002 A 
BRANCH   5   4
ATOM      4  C   UNL     1      -2.089  -1.150  24.516  0.00  0.00    +0.099 C 
BRANCH   4   2
ATOM      1  C   UNL     1      -0.835  -1.650  24.985  0.00  0.00    +0.090 C 
ATOM      2  N   UNL     1      -1.561  -1.776  24.614  0.00  0.00    -0.267 NA
ATOM      3  C   UNL     1      -1.758  -2.529  24.341  0.00  0.00    +0.090 C 
ENDBRANCH   4   2
ENDBRANCH   5   4
ENDBRANCH  11  10
BRANCH  23  24
ATOM     24  C   UNL     1      -1.958   3.110  25.457  0.00  0.00    +0.075 A 
ATOM     25  C   UNL     1      -1.161   3.273  25.323  0.00  0.00    +0.017 A 
ATOM     26  C   UNL     1      -0.902   4.054  25.272  0.00  0.00    +0.001 A 
ATOM     27  C   UNL     1      -1.441   4.674  25.355  0.00  0.00    +0.000 A 
ATOM     28  C   UNL     1      -2.238   4.510  25.489  0.00  0.00    +0.001 A 
ATOM     29  C   UNL     1      -2.497   3.730  25.540  0.00  0.00    +0.017 A 
ENDBRANCH  23  24
TORSDOF 4
ENDMDL
MODEL 4
REMARK VINA RESULT:     -13.1      1.652      4.125
REMARK  Name = 
REMARK  4 active torsions:
REMARK  status: ('A' for Active; 'I' for Inactive)
REMARK    1  A    between atoms: N_2  and  C_4
REMARK    2  A    between atoms: C_4  and  C_5
REMARK    3  A    between atoms: C_10  and  C_11
REMARK    4  A    between atoms: N_23  and  C_24
REMARK                            x       y       z     vdW  Elec       q    Type
REMARK                         _______ _______ _______ _____ _____    ______ ____
ROOT
ATOM     11  C   UNL     1      -0.789   1.277  25.199  0.00  0.00    +0.056 A 
ATOM     12  C   UNL     1      -0.079   1.689  25.277  0.00  0.00    +0.006 A 
ATOM     13  C   UNL     1      -0.082   2.514  25.311  0.00  0.00    +0.013 A 
ATOM     14  C   UNL     1      -0.796   2.925  25.268  0.00  0.00    +0.041 A 
ATOM     15  C   UNL     1      -1.127   3.782  25.276  0.00  0.00    +0.058 C 
ATOM     16  C   UNL     1      -0.921   4.452  25.322  0.00  0.00    +0.011 C 
ATOM     17  C   UNL     1      -1.620   4.041  25.245  0.00  0.00    +0.043 C 
ATOM     18  C   UNL     1      -2.553   3.730  25.152  0.00  0.00    +0.097 C 
ATOM     19  N   UNL     1      -2.425   2.905  25.128  0.00  0.00    -0.262 N 
ATOM     20  C   UNL     1      -2.034   3.498  25.187  0.00  0.00    +0.101 C 
ATOM     21  C   UNL     1      -2.600   2.100  25.079  0.00  0.00    +0.327 C 
ATOM     22  O   UNL     1      -1.991   1.543  25.108  0.00  0.00    -0.250 OA
ATOM     23  N   UNL     1      -3.382   1.852  25.002  0.00  0.00    -0.162 NA
ATOM     30  C   UNL     1      -1.283   3.142  25.235  0.00  0.00    +0.110 C 
ATOM     31  N   UNL     1      -1.506   2.512  25.190  0.00  0.00    -0.299 N 
ATOM     32  C   UNL     1      -1.503   1.688  25.155  0.00  0.00    +0.261 A 
ATOM     33  O   UNL     1      -2.050   1.075  25.083  0.00  0.00    -0.267 OA
ENDROOT
BRANCH  11  10
ATOM      5  C   UNL     1      -0.420   0.069  24.532  0.00  0.00    -0.006 A 
ATOM      6  C   UNL     1      -0.415  -0.755  24.497  0.00  0.00    -0.003 A 
ATOM      7  C   UNL     1      -0.775  -1.196  25.094  0.00  0.00    -0.000 A 
ATOM      8  C   UNL     1      -1.141  -0.812  25.726  0.00  0.00    -0.000 A 
ATOM      9  C   UNL     1      -1.145   0.013  25.761  0.00  0.00    -0.000 A 
ATOM     10  C   UNL     1      -0.785   0.453  25.164  0.00  0.00    +0.002 A 
BRANCH   5   4
ATOM      4  C   UNL     1      -0.059   0.509  23.935  0.00  0.00    +0.099 C 
BRANCH   4   2
ATOM      1  C   UNL     1      -0.112  -0.086  22.637  0.00  0.00    +0.090 C 
ATOM      2  N   UNL     1       0.317   0.125  23.309  0.00  0.00    -0.267 NA
ATOM      3  C   UNL     1       1.122  -0.048  23.355  0.00  0.00    +0.090 C 
ENDBRANCH   4   2
ENDBRANCH   5   4
ENDBRANCH  11  10
BRANCH  23  24
ATOM     24  C   UNL     1      -3.991   2.408  24.974  0.00  0.00    +0.075 A 
ATOM     25  C   UNL     1      -4.367   2.644  25.669  0.00  0.00    +0.017 A 
ATOM     26  C   UNL     1      -4.975   3.200  25.641  0.00  0.00    +0.001 A 
ATOM     27  C   UNL     1      -5.208   3.521  24.917  0.00  0.00    +0.000 A 
ATOM     28  C   UNL     1      -4.832   3.285  24.222  0.00  0.00    +0.001 A 
ATOM     29  C   UNL     1      -4.224   2.730  24.250  0.00  0.00    +0.017 A 
ENDBRANCH  23  24
TORSDOF 4
ENDMDL
MODEL 5
REMARK VINA RESULT:     -13.0      1.545      4.094
REMARK  Name = 
REMARK  4 active torsions:
REMARK  status: ('A' for Active; 'I' for Inactive)
REMARK    1  A    between atoms: N_2  and  C_4
REMARK    2  A    between atoms: C_4  and  C_5
REMARK    3  A    between atoms: C_10  and  C_11
REMARK    4  A    between atoms: N_23  and  C_24
REMARK                            x       y       z     vdW  Elec       q    Type
REMARK                         _______ _______ _______ _____ _____    ______ ____
ROOT
ATOM     11  C   UNL     1      -3.100  -0.210  23.965  0.00  0.00    +0.056 A 
ATOM     12  C   UNL     1      -2.531  -0.072  23.383  0.00  0.00    +0.006 A 
ATOM     13  C   UNL     1      -2.440   0.684  23.066  0.00  0.00    +0.013 A 
ATOM     14  C   UNL     1      -2.918   1.303  23.331  0.00  0.00    +0.041 A 
ATOM     15  C   UNL     1      -3.064   2.200  23.196  0.00  0.00    +0.058 C 
ATOM     16  C   UNL     1      -2.837   2.743  22.814  0.00  0.00    +0.011 C 
ATOM     17  C   UNL     1      -3.397   2.603  23.388  0.00  0.00    +0.043 C 
ATOM     18  C   UNL     1      -4.118   2.635  24.063  0.00  0.00    +0.097 C 
ATOM     19  N   UNL     1      -4.117   1.835  24.307  0.00  0.00    -0.262 N 
ATOM     20  C   UNL     1      -3.763   2.246  23.845  0.00  0.00    +0.101 C 
ATOM     21  C   UNL     1      -4.337   1.157  24.722  0.00  0.00    +0.327 C 
ATOM     22  O   UNL     1      -3.953   0.441  24.576  0.00  0.00    -0.250 OA
ATOM     23  N   UNL     1      -4.940   1.195  25.283  0.00  0.00    -0.162 NA
ATOM     30  C   UNL     1      -3.252   1.666  23.537  0.00  0.00    +0.110 C 
ATOM     31  N   UNL     1      -3.486   1.165  23.913  0.00  0.00    -0.299 N 
ATOM     32  C   UNL     1      -3.577   0.409  24.230  0.00  0.00    +0.261 A 
ATOM     33  O   UNL     1      -4.049   0.033  24.793  0.00  0.00    -0.267 OA
ENDROOT
BRANCH  11  10
ATOM      5  C   UNL     1      -2.594  -1.290  24.751  0.00  0.00    -0.006 A 
ATOM      6  C   UNL     1      -2.683  -2.046  25.068  0.00  0.00    -0.003 A 
ATOM      7  C   UNL     1      -3.369  -2.478  24.916  0.00  0.00    -0.000 A 
ATOM      8  C   UNL     1      -3.965  -2.155  24.447  0.00  0.00    -0.000 A 
ATOM      9  C   UNL     1      -3.876  -1.398  24.129  0.00  0.00    -0.000 A 
ATOM     10  C   UNL     1      -3.190  -0.966  24.282  0.00  0.00    +0.002 A 
BRANCH   5   4
ATOM      4  C   UNL     1      -1.908  -0.857  24.904  0.00  0.00    +0.099 C 
BRANCH   4   2
ATOM      1  C   UNL     1      -1.300  -0.974  26.191  0.00  0.00    +0.090 C 
ATOM      2  N   UNL     1      -1.321  -1.172  25.391  0.00  0.00    -0.267 NA
ATOM      3  C   UNL     1      -0.756  -1.685  25.078  0.00  0.00    +0.090 C 
ENDBRANCH   4   2
ENDBRANCH   5   4
ENDBRANCH  11  10
BRANCH  23  24
ATOM     24  C   UNL     1      -5.324   1.910  25.430  0.00  0.00    +0.075 A 
ATOM     25  C   UNL     1      -6.023   2.091  25.032  0.00  0.00    +0.017 A 
ATOM     26  C   UNL     1      -6.408   2.806  25.178  0.00  0.00    +0.001 A 
ATOM     27  C   UNL     1      -6.092   3.341  25.722  0.00  0.00    +0.000 A 
ATOM     28  C   UNL     1      -5.393   3.159  26.119  0.00  0.00    +0.001 A 
ATOM     29  C   UNL     1      -5.008   2.445  25.974  0.00  0.00    +0.017 A 
ENDBRANCH  23  24
TORSDOF 4
ENDMDL
MODEL 6
REMARK VINA RESULT:     -12.8      1.416      2.782
REMARK  Name = 
REMARK  4 active torsions:
REMARK  status: ('A' for Active; 'I' for Inactive)
REMARK    1  A    between atoms: N_2  and  C_4
REMARK    2  A    between atoms: C_4  and  C_5
REMARK    3  A    between atoms: C_10  and  C_11
REMARK    4  A    between atoms: N_23  and  C_24
REMARK                            x       y       z     vdW  Elec       q    Type
REMARK                         _______ _______ _______ _____ _____    ______ ____
ROOT
ATOM     11  C   UNL     1      -4.042   0.722  24.161  0.00  0.00    +0.056 A 
ATOM     12  C   UNL     1      -4.764   0.362  23.990  0.00  0.00    +0.006 A 
ATOM     13  C   UNL     1      -4.829  -0.461  24.005  0.00  0.00    +0.013 A 
ATOM     14  C   UNL     1      -4.171  -0.922  24.191  0.00  0.00    +0.041 A 
ATOM     15  C   UNL     1      -3.921  -1.801  24.289  0.00  0.00    +0.058 C 
ATOM     16  C   UNL     1      -4.176  -2.454  24.249  0.00  0.00    +0.011 C 
ATOM     17  C   UNL     1      -3.465  -2.095  24.417  0.00  0.00    +0.043 C 
ATOM     18  C   UNL     1      -2.534  -1.853  24.645  0.00  0.00    +0.097 C 
ATOM     19  N   UNL     1      -2.591  -1.021  24.599  0.00  0.00    -0.262 N 
ATOM     20  C   UNL     1      -3.018  -1.583  24.511  0.00  0.00    +0.101 C 
ATOM     21  C   UNL     1      -2.355  -0.230  24.629  0.00  0.00    +0.327 C 
ATOM     22  O   UNL     1      -2.899   0.369  24.467  0.00  0.00    -0.250 OA
ATOM     23  N   UNL     1      -1.576  -0.039  24.821  0.00  0.00    -0.162 NA
ATOM     30  C   UNL     1      -3.717  -1.174  24.317  0.00  0.00    +0.110 C 
ATOM     31  N   UNL     1      -3.449  -0.562  24.362  0.00  0.00    -0.299 N 
ATOM     32  C   UNL     1      -3.384   0.260  24.347  0.00  0.00    +0.261 A 
ATOM     33  O   UNL     1      -2.803   0.832  24.474  0.00  0.00    -0.267 OA
ENDROOT
BRANCH  11  10
ATOM      5  C   UNL     1      -4.452   2.003  24.641  0.00  0.00    -0.006 A 
ATOM      6  C   UNL     1      -4.389   2.826  24.626  0.00  0.00    -0.003 A 
ATOM      7  C   UNL     1      -3.851   3.189  24.117  0.00  0.00    -0.000 A 
ATOM      8  C   UNL     1      -3.377   2.730  23.622  0.00  0.00    -0.000 A 
ATOM      9  C   UNL     1      -3.440   1.907  23.637  0.00  0.00    -0.000 A 
ATOM     10  C   UNL     1      -3.978   1.544  24.146  0.00  0.00    +0.002 A 
BRANCH   5   4
ATOM      4  C   UNL     1      -4.990   1.640  25.150  0.00  0.00    +0.099 C 
BRANCH   4   2
ATOM      1  C   UNL     1      -5.298   2.483  26.262  0.00  0.00    +0.090 C 
ATOM      2  N   UNL     1      -5.532   2.097  25.572  0.00  0.00    -0.267 NA
ATOM      3  C   UNL     1      -6.309   2.169  25.303  0.00  0.00    +0.090 C 
ENDBRANCH   4   2
ENDBRANCH   5   4
ENDBRANCH  11  10
BRANCH  23  24
ATOM     24  C   UNL     1      -1.032  -0.638  24.983  0.00  0.00    +0.075 A 
ATOM     25  C   UNL     1      -0.558  -0.939  24.379  0.00  0.00    +0.017 A 
ATOM     26  C   UNL     1      -0.014  -1.537  24.540  0.00  0.00    +0.001 A 
ATOM     27  C   UNL     1       0.056  -1.836  25.307  0.00  0.00    +0.000 A 
ATOM     28  C   UNL     1      -0.419  -1.535  25.911  0.00  0.00    +0.001 A 
ATOM     29  C   UNL     1      -0.962  -0.936  25.750  0.00  0.00    +0.017 A 
ENDBRANCH  23  24
TORSDOF 4
ENDMDL
MODEL 7
REMARK VINA RESULT:     -12.7      1.568      3.569
REMARK  Name = 
REMARK  4 active torsions:
REMARK  status: ('A' for Active; 'I' for Inactive)
REMARK    1  A    between atoms: N_2  and  C_4
REMARK    2  A    between atoms: C_4  and  C_5
REMARK    3  A    between atoms: C_10  and  C_11
REMARK    4  A    between atoms: N_23  and  C_24
REMARK                            x       y       z     vdW  Elec       q    Type
REMARK                         _______ _______ _______ _____ _____    ______ ____
ROOT
ATOM     11  C   UNL     1      -1.325   0.432  25.248  0.00  0.00    +0.056 A 
ATOM     12  C   UNL     1      -1.103  -0.352  25.374  0.00  0.00    +0.006 A 
ATOM     13  C   UNL     1      -1.680  -0.936  25.459  0.00  0.00    +0.013 A 
ATOM     14  C   UNL     1      -2.479  -0.735  25.417  0.00  0.00    +0.041 A 
ATOM     15  C   UNL     1      -3.314  -1.115  25.467  0.00  0.00    +0.058 C 
ATOM     16  C   UNL     1      -3.633  -1.733  25.560  0.00  0.00    +0.011 C 
ATOM     17  C   UNL     1      -3.848  -0.958  25.435  0.00  0.00    +0.043 C 
ATOM     18  C   UNL     1      -4.302  -0.091  25.293  0.00  0.00    +0.097 C 
ATOM     19  N   UNL     1      -3.634   0.406  25.223  0.00  0.00    -0.262 N 
ATOM     20  C   UNL     1      -3.767  -0.285  25.330  0.00  0.00    +0.101 C 
ATOM     21  C   UNL     1      -3.198   1.099  25.119  0.00  0.00    +0.327 C 
ATOM     22  O   UNL     1      -2.373   1.074  25.134  0.00  0.00    -0.250 OA
ATOM     23  N   UNL     1      -3.587   1.817  25.002  0.00  0.00    -0.162 NA
ATOM     30  C   UNL     1      -2.980  -0.552  25.382  0.00  0.00    +0.110 C 
ATOM     31  N   UNL     1      -2.701   0.050  25.291  0.00  0.00    -0.299 N 
ATOM     32  C   UNL     1      -2.124   0.633  25.206  0.00  0.00    +0.261 A 
ATOM     33  O   UNL     1      -2.089   1.447  25.079  0.00  0.00    -0.267 OA
ENDROOT
BRANCH  11  10
ATOM      5  C   UNL     1      -0.223   0.985  24.528  0.00  0.00    -0.006 A 
ATOM      6  C   UNL     1       0.355   1.568  24.442  0.00  0.00    -0.003 A 
ATOM      7  C   UNL     1       0.408   2.180  24.993  0.00  0.00    -0.000 A 
ATOM      8  C   UNL     1      -0.116   2.210  25.629  0.00  0.00    -0.000 A 
ATOM      9  C   UNL     1      -0.695   1.627  25.714  0.00  0.00    -0.000 A 
ATOM     10  C   UNL     1      -0.748   1.015  25.163  0.00  0.00    +0.002 A 
BRANCH   5   4
ATOM      4  C   UNL     1      -0.276   0.374  23.977  0.00  0.00    +0.099 C 
BRANCH   4   2
ATOM      1  C   UNL     1       0.968  -0.047  23.412  0.00  0.00    +0.090 C 
ATOM      2  N   UNL     1       0.247   0.347  23.339  0.00  0.00    -0.267 NA
ATOM      3  C   UNL     1       0.048   0.713  22.627  0.00  0.00    +0.090 C 
ENDBRANCH   4   2
ENDBRANCH   5   4
ENDBRANCH  11  10
BRANCH  23  24
ATOM     24  C   UNL     1      -4.411   1.843  24.987  0.00  0.00    +0.075 A 
ATOM     25  C   UNL     1      -4.832   1.986  25.682  0.00  0.00    +0.017 A 
ATOM     26  C   UNL     1      -5.655   2.012  25.669  0.00  0.00    +0.001 A 
ATOM     27  C   UNL     1      -6.060   1.894  24.959  0.00  0.00    +0.000 A 
ATOM     28  C   UNL     1      -5.640   1.750  24.264  0.00  0.00    +0.001 A 
ATOM     29  C   UNL     1      -4.816   1.724  24.278  0.00  0.00    +0.017 A 
ENDBRANCH  23  24
TORSDOF 4
ENDMDL
MODEL 8
REMARK VINA RESULT:     -12.7      1.388      2.240
REMARK  Name = 
REMARK  4 active torsions:
REMARK  status: ('A' for Active; 'I' for Inactive)
REMARK    1  A    between atoms: N_2  and  C_4
REMARK    2  A    between atoms: C_4  and  C_5
REMARK    3  A    between atoms: C_10  and  C_11
REMARK    4  A    between atoms: N_23  and  C_24
REMARK                            x       y       z     vdW  Elec       q    Type
REMARK                         _______ _______ _______ _____ _____    ______ ____
ROOT
ATOM     11  C   UNL     1      -2.510   2.958  24.656  0.00  0.00    +0.056 A 
ATOM     12  C   UNL     1      -2.223   3.639  25.024  0.00  0.00    +0.006 A 
ATOM     13  C   UNL     1      -1.561   3.595  25.515  0.00  0.00    +0.013 A 
ATOM     14  C   UNL     1      -1.186   2.870  25.637  0.00  0.00    +0.041 A 
ATOM     15  C   UNL     1      -0.477   2.501  26.091  0.00  0.00    +0.058 C 
ATOM     16  C   UNL     1       0.047   2.672  26.526  0.00  0.00    +0.011 C 
ATOM     17  C   UNL     1      -0.239   2.002  26.161  0.00  0.00    +0.043 C 
ATOM     18  C   UNL     1      -0.430   1.096  25.816  0.00  0.00    +0.097 C 
ATOM     19  N   UNL     1      -1.100   1.264  25.346  0.00  0.00    -0.262 N 
ATOM     20  C   UNL     1      -0.649   1.620  25.766  0.00  0.00    +0.101 C 
ATOM     21  C   UNL     1      -1.736   1.131  24.836  0.00  0.00    +0.327 C 
ATOM     22  O   UNL     1      -2.221   1.759  24.609  0.00  0.00    -0.250 OA
ATOM     23  N   UNL     1      -1.886   0.370  24.554  0.00  0.00    -0.162 NA
ATOM     30  C   UNL     1      -0.982   2.378  25.683  0.00  0.00    +0.110 C 
ATOM     31  N   UNL     1      -1.473   2.190  25.270  0.00  0.00    -0.299 N 
ATOM     32  C   UNL     1      -2.135   2.234  24.779  0.00  0.00    +0.261 A 
ATOM     33  O   UNL     1      -2.592   1.723  24.320  0.00  0.00    -0.267 OA
ENDROOT
BRANCH  11  10
ATOM      5  C   UNL     1      -3.915   3.153  24.490  0.00  0.00    -0.006 A 
ATOM      6  C   UNL     1      -4.577   3.198  24.001  0.00  0.00    -0.003 A 
ATOM      7  C   UNL     1      -4.496   3.093  23.187  0.00  0.00    -0.000 A 
ATOM      8  C   UNL     1      -3.753   2.942  22.862  0.00  0.00    -0.000 A 
ATOM      9  C   UNL     1      -3.090   2.897  23.352  0.00  0.00    -0.000 A 
ATOM     10  C   UNL     1      -3.171   3.003  24.166  0.00  0.00    +0.002 A 
BRANCH   5   4
ATOM      4  C   UNL     1      -3.996   3.259  25.304  0.00  0.00    +0.099 C 
BRANCH   4   2
ATOM      1  C   UNL     1      -5.044   4.160  25.669  0.00  0.00    +0.090 C 
ATOM      2  N   UNL     1      -4.742   3.393  25.630  0.00  0.00    -0.267 NA
ATOM      3  C   UNL     1      -5.187   2.760  25.917  0.00  0.00    +0.090 C 
ENDBRANCH   4   2
ENDBRANCH   5   4
ENDBRANCH  11  10
BRANCH  23  24
ATOM     24  C   UNL     1      -1.401  -0.257  24.781  0.00  0.00    +0.075 A 
ATOM     25  C   UNL     1      -0.738  -0.450  24.331  0.00  0.00    +0.017 A 
ATOM     26  C   UNL     1      -0.253  -1.077  24.557  0.00  0.00    +0.001 A 
ATOM     27  C   UNL     1      -0.432  -1.513  25.235  0.00  0.00    +0.000 A 
ATOM     28  C   UNL     1      -1.096  -1.321  25.685  0.00  0.00    +0.001 A 
ATOM     29  C   UNL     1      -1.580  -0.693  25.459  0.00  0.00    +0.017 A 
ENDBRANCH  23  24
TORSDOF 4
ENDMDL
MODEL 9
REMARK VINA RESULT:     -12.4      1.501      2.118
REMARK  Name = 
REMARK  4 active torsions:
REMARK  status: ('A' for Active; 'I' for Inactive)
REMARK    1  A    between atoms: N_2  and  C_4
REMARK    2  A    between atoms: C_4  and  C_5
REMARK    3  A    between atoms: C_10  and  C_11
REMARK    4  A    between atoms: N_23  and  C_24
REMARK                            x       y       z     vdW  Elec       q    Type
REMARK                         _______ _______ _______ _____ _____    ______ ____
ROOT
ATOM     11  C   UNL     1      -4.072   1.970  24.332  0.00  0.00    +0.056 A 
ATOM     12  C   UNL     1      -3.942   2.549  23.759  0.00  0.00    +0.006 A 
ATOM     13  C   UNL     1      -3.245   2.544  23.318  0.00  0.00    +0.013 A 
ATOM     14  C   UNL     1      -2.678   1.960  23.449  0.00  0.00    +0.041 A 
ATOM     15  C   UNL     1      -1.853   1.687  23.152  0.00  0.00    +0.058 C 
ATOM     16  C   UNL     1      -1.351   1.854  22.690  0.00  0.00    +0.011 C 
ATOM     17  C   UNL     1      -1.482   1.283  23.256  0.00  0.00    +0.043 C 
ATOM     18  C   UNL     1      -1.457   0.521  23.885  0.00  0.00    +0.097 C 
ATOM     19  N   UNL     1      -2.193   0.628  24.265  0.00  0.00    -0.262 N 
ATOM     20  C   UNL     1      -1.813   0.946  23.753  0.00  0.00    +0.101 C 
ATOM     21  C   UNL     1      -2.819   0.487  24.784  0.00  0.00    +0.327 C 
ATOM     22  O   UNL     1      -3.476   0.986  24.783  0.00  0.00    -0.250 OA
ATOM     23  N   UNL     1      -2.787  -0.152  25.304  0.00  0.00    -0.162 NA
ATOM     30  C   UNL     1      -2.345   1.561  23.573  0.00  0.00    +0.110 C 
ATOM     31  N   UNL     1      -2.808   1.380  24.022  0.00  0.00    -0.299 N 
ATOM     32  C   UNL     1      -3.505   1.385  24.464  0.00  0.00    +0.261 A 
ATOM     33  O   UNL     1      -3.853   0.939  25.064  0.00  0.00    -0.267 OA
ENDROOT
BRANCH  11  10
ATOM      5  C   UNL     1      -4.935   2.610  25.273  0.00  0.00    -0.006 A 
ATOM      6  C   UNL     1      -5.632   2.617  25.714  0.00  0.00    -0.003 A 
ATOM      7  C   UNL     1      -6.162   1.988  25.656  0.00  0.00    -0.000 A 
ATOM      8  C   UNL     1      -5.997   1.353  25.157  0.00  0.00    -0.000 A 
ATOM      9  C   UNL     1      -5.299   1.346  24.715  0.00  0.00    -0.000 A 
ATOM     10  C   UNL     1      -4.769   1.975  24.773  0.00  0.00    +0.002 A 
BRANCH   5   4
ATOM      4  C   UNL     1      -4.404   3.239  25.331  0.00  0.00    +0.099 C 
BRANCH   4   2
ATOM      1  C   UNL     1      -4.125   3.949  26.539  0.00  0.00    +0.090 C 
ATOM      2  N   UNL     1      -4.562   3.866  25.844  0.00  0.00    -0.267 NA
ATOM      3  C   UNL     1      -5.156   4.409  25.663  0.00  0.00    +0.090 C 
ENDBRANCH   4   2
ENDBRANCH   5   4
ENDBRANCH  11  10
BRANCH  23  24
ATOM     24  C   UNL     1      -2.130  -0.650  25.306  0.00  0.00    +0.075 A 
ATOM     25  C   UNL     1      -2.120  -1.321  24.826  0.00  0.00    +0.017 A 
ATOM     26  C   UNL     1      -1.464  -1.820  24.827  0.00  0.00    +0.001 A 
ATOM     27  C   UNL     1      -0.816  -1.648  25.309  0.00  0.00    +0.000 A 
ATOM     28  C   UNL     1      -0.826  -0.978  25.790  0.00  0.00    +0.001 A 
ATOM     29  C   UNL     1      -1.482  -0.479  25.788  0.00  0.00    +0.017 A 
ENDBRANCH  23  24
TORSDOF 4
ENDMDL
