MODEL 1
REMARK VINA RESULT:     -12.2      0.000      0.000
REMARK  Name = 
REMARK  5 active torsions:
REMARK  status: ('A' for Active; 'I' for Inactive)
REMARK    1  A    between atoms: C_3  and  N_4
REMARK    2  A    between atoms: N_7  and  C_8
REMARK    3  A    between atoms: C_8  and  C_9
REMARK    4  A    between atoms: C_16  and  N_17
REMARK    5  A    between atoms: N_20  and  C_23
REMARK                            x       y       z     vdW  Elec       q    Type
REMARK                         _______ _______ _______ _____ _____    ______ ____
ROOT
ATOM      1  O   UNL     1      -2.661   1.163  24.140  0.00  0.00    -0.220 OA
ATOM      2  C   UNL     1      -3.258   1.672  24.395  0.00  0.00    +0.194 C 
ATOM      3  C   UNL     1      -3.653   2.378  24.577  0.00  0.00    +0.158 C 
ATOM     11  C   UNL     1      -4.452   2.016  24.883  0.00  0.00    +0.170 C 
ATOM     12  C   UNL     1      -4.491   1.240  24.871  0.00  0.00    +0.176 C 
ATOM     13  O   UNL     1      -4.901   0.658  25.014  0.00  0.00    -0.327 OA
ATOM     14  C   UNL     1      -4.690   1.514  24.960  0.00  0.00    +0.253 C 
ATOM     15  O   UNL     1      -5.085   2.215  25.141  0.00  0.00    -0.327 OA
ATOM     16  C   UNL     1      -3.849   1.877  24.638  0.00  0.00    +0.147 C 
ENDROOT
BRANCH  16  17
ATOM     17  N   UNL     1      -3.831   1.053  24.602  0.00  0.00    -0.265 NA
ATOM     18  C   UNL     1      -3.978   0.667  23.887  0.00  0.00    +0.094 C 
ATOM     19  C   UNL     1      -3.959  -0.157  23.851  0.00  0.00    +0.108 C 
ATOM     20  N   UNL     1      -3.793  -0.595  24.530  0.00  0.00    -0.305 N 
ATOM     21  C   UNL     1      -3.646  -0.210  25.245  0.00  0.00    +0.108 C 
ATOM     22  C   UNL     1      -3.665   0.614  25.280  0.00  0.00    +0.094 C 
BRANCH  20  23
ATOM     23  C   UNL     1      -3.774  -1.420  24.495  0.00  0.00    +0.048 A 
ATOM     24  C   UNL     1      -4.188  -1.816  23.901  0.00  0.00    +0.015 A 
ATOM     25  C   UNL     1      -4.169  -2.640  23.866  0.00  0.00    +0.001 A 
ATOM     26  C   UNL     1      -3.738  -3.068  24.424  0.00  0.00    +0.000 A 
ATOM     27  C   UNL     1      -3.324  -2.671  25.018  0.00  0.00    +0.001 A 
ATOM     28  C   UNL     1      -3.343  -1.847  25.053  0.00  0.00    +0.015 A 
ENDBRANCH  20  23
ENDBRANCH  16  17
BRANCH   3   4
ATOM      4  N   UNL     1      -3.409   3.164  24.507  0.00  0.00    -0.184 NA
ATOM      5  C   UNL     1      -2.758   3.433  24.936  0.00  0.00    +0.340 C 
ATOM      6  O   UNL     1      -2.351   2.917  25.436  0.00  0.00    -0.249 OA
ATOM      7  N   UNL     1      -2.515   4.218  24.867  0.00  0.00    -0.182 NA
BRANCH   7   8
ATOM      8  C   UNL     1      -1.864   4.488  25.296  0.00  0.00    +0.143 C 
BRANCH   8   9
ATOM      9  C   UNL     1      -1.556   5.240  25.151  0.00  0.00    -0.003 C 
ATOM     10  C   UNL     1      -0.777   5.324  24.896  0.00  0.00    -0.003 C 
ENDBRANCH   8   9
ENDBRANCH   7   8
ENDBRANCH   3   4
TORSDOF 5
ENDMDL
MODEL 2
REMARK VINA RESULT:     -11.3      0.777      4.872
REMARK  Name = 
REMARK  5 active torsions:
REMARK  status: ('A' for Active; 'I' for Inactive)
REMARK    1  A    between atoms: C_3  and  N_4
REMARK    2  A    between atoms: N_7  and  C_8
REMARK    3  A    between atoms: C_8  and  C_9
REMARK    4  A    between atoms: C_16  and  N_17
REMARK    5  A    between atoms: N_20  and  C_23
REMARK                            x       y       z     vdW  Elec       q    Type
REMARK                         _______ _______ _______ _____ _____    ______ ____
ROOT
ATOM      1  O   UNL     1      -2.569   1.395  23.921  0.00  0.00    -0.220 OA
ATOM      2  C   UNL     1      -3.329   1.252  24.211  0.00  0.00    +0.194 C 
ATOM      3  C   UNL     1      -4.043   0.858  24.358  0.00  0.00    +0.158 C 
ATOM     11  C   UNL     1      -4.460   1.512  24.870  0.00  0.00    +0.170 C 
ATOM     12  C   UNL     1      -4.043   2.159  24.985  0.00  0.00    +0.176 C 
ATOM     13  O   UNL     1      -4.029   2.815  25.295  0.00  0.00    -0.327 OA
ATOM     14  C   UNL     1      -4.357   2.027  25.070  0.00  0.00    +0.253 C 
ATOM     15  O   UNL     1      -5.069   1.637  25.218  0.00  0.00    -0.327 OA
ATOM     16  C   UNL     1      -3.908   1.353  24.533  0.00  0.00    +0.147 C 
ENDROOT
BRANCH  16  17
ATOM     17  N   UNL     1      -3.420   2.012  24.620  0.00  0.00    -0.265 NA
ATOM     18  C   UNL     1      -3.465   2.634  24.080  0.00  0.00    +0.094 C 
ATOM     19  C   UNL     1      -2.977   3.293  24.167  0.00  0.00    +0.108 C 
ATOM     20  N   UNL     1      -2.444   3.331  24.795  0.00  0.00    -0.305 N 
ATOM     21  C   UNL     1      -2.398   2.710  25.335  0.00  0.00    +0.108 C 
ATOM     22  C   UNL     1      -2.886   2.051  25.248  0.00  0.00    +0.094 C 
BRANCH  20  23
ATOM     23  C   UNL     1      -1.955   3.990  24.882  0.00  0.00    +0.048 A 
ATOM     24  C   UNL     1      -1.144   3.923  24.743  0.00  0.00    +0.015 A 
ATOM     25  C   UNL     1      -0.654   4.581  24.830  0.00  0.00    +0.001 A 
ATOM     26  C   UNL     1      -0.976   5.306  25.058  0.00  0.00    +0.000 A 
ATOM     27  C   UNL     1      -1.786   5.373  25.197  0.00  0.00    +0.001 A 
ATOM     28  C   UNL     1      -2.275   4.715  25.110  0.00  0.00    +0.015 A 
ENDBRANCH  20  23
ENDBRANCH  16  17
BRANCH   3   4
ATOM      4  N   UNL     1      -4.304   0.111  24.122  0.00  0.00    -0.184 NA
ATOM      5  C   UNL     1      -3.943  -0.566  24.423  0.00  0.00    +0.340 C 
ATOM      6  O   UNL     1      -3.320  -0.497  24.961  0.00  0.00    -0.249 OA
ATOM      7  N   UNL     1      -4.204  -1.312  24.188  0.00  0.00    -0.182 NA
BRANCH   7   8
ATOM      8  C   UNL     1      -3.843  -1.990  24.489  0.00  0.00    +0.143 C 
BRANCH   8   9
ATOM      9  C   UNL     1      -3.943  -2.715  24.108  0.00  0.00    -0.003 C 
ATOM     10  C   UNL     1      -3.568  -3.389  24.400  0.00  0.00    -0.003 C 
ENDBRANCH   8   9
ENDBRANCH   7   8
ENDBRANCH   3   4
TORSDOF 5
ENDMDL
MODEL 3
REMARK VINA RESULT:     -11.0      1.720      2.344
REMARK  Name = 
REMARK  5 active torsions:
REMARK  status: ('A' for Active; 'I' for Inactive)
REMARK    1  A    between atoms: C_3  and  N_4
REMARK    2  A    between atoms: N_7  and  C_8
REMARK    3  A    between atoms: C_8  and  C_9
REMARK    4  A    between atoms: C_16  and  N_17
REMARK    5  A    between atoms: N_20  and  C_23
REMARK                            x       y       z     vdW  Elec       q    Type
REMARK                         _______ _______ _______ _____ _____    ______ ____
ROOT
ATOM      1  O   UNL     1      -2.707   1.049  25.390  0.00  0.00    -0.220 OA
ATOM      2  C   UNL     1      -1.901   1.173  25.260  0.00  0.00    +0.194 C 
ATOM      3  C   UNL     1      -1.167   1.557  25.245  0.00  0.00    +0.158 C 
ATOM     11  C   UNL     1      -0.660   0.872  24.874  0.00  0.00    +0.170 C 
ATOM     12  C   UNL     1      -1.051   0.220  24.712  0.00  0.00    +0.176 C 
ATOM     13  O   UNL     1      -1.008  -0.454  24.447  0.00  0.00    -0.327 OA
ATOM     14  C   UNL     1      -0.725   0.346  24.688  0.00  0.00    +0.253 C 
ATOM     15  O   UNL     1       0.008   0.726  24.672  0.00  0.00    -0.327 OA
ATOM     16  C   UNL     1      -1.268   1.052  25.075  0.00  0.00    +0.147 C 
ENDROOT
BRANCH  16  17
ATOM     17  N   UNL     1      -1.735   0.389  24.926  0.00  0.00    -0.265 NA
ATOM     18  C   UNL     1      -1.830  -0.188  25.508  0.00  0.00    +0.094 C 
ATOM     19  C   UNL     1      -2.298  -0.852  25.360  0.00  0.00    +0.108 C 
ATOM     20  N   UNL     1      -2.671  -0.937  24.629  0.00  0.00    -0.305 N 
ATOM     21  C   UNL     1      -2.576  -0.361  24.047  0.00  0.00    +0.108 C 
ATOM     22  C   UNL     1      -2.108   0.303  24.196  0.00  0.00    +0.094 C 
BRANCH  20  23
ATOM     23  C   UNL     1      -3.139  -1.600  24.479  0.00  0.00    +0.048 A 
ATOM     24  C   UNL     1      -3.818  -1.529  24.016  0.00  0.00    +0.015 A 
ATOM     25  C   UNL     1      -4.286  -2.191  23.866  0.00  0.00    +0.001 A 
ATOM     26  C   UNL     1      -4.075  -2.925  24.179  0.00  0.00    +0.000 A 
ATOM     27  C   UNL     1      -3.396  -2.996  24.642  0.00  0.00    +0.001 A 
ATOM     28  C   UNL     1      -2.928  -2.334  24.792  0.00  0.00    +0.015 A 
ENDBRANCH  20  23
ENDBRANCH  16  17
BRANCH   3   4
ATOM      4  N   UNL     1      -0.951   2.317  25.485  0.00  0.00    -0.184 NA
ATOM      5  C   UNL     1      -1.240   2.975  25.081  0.00  0.00    +0.340 C 
ATOM      6  O   UNL     1      -1.745   2.873  24.435  0.00  0.00    -0.249 OA
ATOM      7  N   UNL     1      -1.025   3.734  25.321  0.00  0.00    -0.182 NA
BRANCH   7   8
ATOM      8  C   UNL     1      -1.314   4.392  24.916  0.00  0.00    +0.143 C 
BRANCH   8   9
ATOM      9  C   UNL     1      -0.951   5.127  25.010  0.00  0.00    -0.003 C 
ATOM     10  C   UNL     1      -1.402   5.816  24.987  0.00  0.00    -0.003 C 
ENDBRANCH   8   9
ENDBRANCH   7   8
ENDBRANCH   3   4
TORSDOF 5
ENDMDL
MODEL 4
REMARK VINA RESULT:     -10.8      1.965      5.492
REMARK  Name = 
REMARK  5 active torsions:
REMARK  status: ('A' for Active; 'I' for Inactive)
REMARK    1  A    between atoms: C_3  and  N_4
REMARK    2  A    between atoms: N_7  and  C_8
REMARK    3  A    between atoms: C_8  and  C_9
REMARK    4  A    between atoms: C_16  and  N_17
REMARK    5  A    between atoms: N_20  and  C_23
REMARK                            x       y       z     vdW  Elec       q    Type
REMARK                         _______ _______ _______ _____ _____    ______ ____
ROOT
ATOM      1  O   UNL     1      -2.187   1.206  25.477  0.00  0.00    -0.220 OA
ATOM      2  C   UNL     1      -1.628   0.718  25.117  0.00  0.00    +0.194 C 
ATOM      3  C   UNL     1      -1.251   0.025  24.861  0.00  0.00    +0.158 C 
ATOM     11  C   UNL     1      -0.525   0.413  24.429  0.00  0.00    +0.170 C 
ATOM     12  C   UNL     1      -0.507   1.190  24.443  0.00  0.00    +0.176 C 
ATOM     13  O   UNL     1      -0.144   1.785  24.240  0.00  0.00    -0.327 OA
ATOM     14  C   UNL     1      -0.318   0.923  24.318  0.00  0.00    +0.253 C 
ATOM     15  O   UNL     1       0.060   0.235  24.063  0.00  0.00    -0.327 OA
ATOM     16  C   UNL     1      -1.081   0.533  24.774  0.00  0.00    +0.147 C 
ENDROOT
BRANCH  16  17
ATOM     17  N   UNL     1      -1.117   1.355  24.824  0.00  0.00    -0.265 NA
ATOM     18  C   UNL     1      -0.812   1.743  25.485  0.00  0.00    +0.094 C 
ATOM     19  C   UNL     1      -0.847   2.566  25.535  0.00  0.00    +0.108 C 
ATOM     20  N   UNL     1      -1.187   3.001  24.922  0.00  0.00    -0.305 N 
ATOM     21  C   UNL     1      -1.492   2.614  24.260  0.00  0.00    +0.108 C 
ATOM     22  C   UNL     1      -1.457   1.791  24.211  0.00  0.00    +0.094 C 
BRANCH  20  23
ATOM     23  C   UNL     1      -1.223   3.824  24.970  0.00  0.00    +0.048 A 
ATOM     24  C   UNL     1      -1.886   4.189  25.299  0.00  0.00    +0.015 A 
ATOM     25  C   UNL     1      -1.923   5.012  25.348  0.00  0.00    +0.001 A 
ATOM     26  C   UNL     1      -1.296   5.469  25.068  0.00  0.00    +0.000 A 
ATOM     27  C   UNL     1      -0.633   5.104  24.740  0.00  0.00    +0.001 A 
ATOM     28  C   UNL     1      -0.597   4.282  24.691  0.00  0.00    +0.015 A 
ENDBRANCH  20  23
ENDBRANCH  16  17
BRANCH   3   4
ATOM      4  N   UNL     1      -1.457  -0.768  24.962  0.00  0.00    -0.184 NA
ATOM      5  C   UNL     1      -2.157  -1.057  24.634  0.00  0.00    +0.340 C 
ATOM      6  O   UNL     1      -2.651  -0.552  24.207  0.00  0.00    -0.249 OA
ATOM      7  N   UNL     1      -2.363  -1.849  24.734  0.00  0.00    -0.182 NA
BRANCH   7   8
ATOM      8  C   UNL     1      -3.063  -2.137  24.407  0.00  0.00    +0.143 C 
BRANCH   8   9
ATOM      9  C   UNL     1      -3.346  -2.880  24.627  0.00  0.00    -0.003 C 
ATOM     10  C   UNL     1      -3.961  -3.229  24.203  0.00  0.00    -0.003 C 
ENDBRANCH   8   9
ENDBRANCH   7   8
ENDBRANCH   3   4
TORSDOF 5
ENDMDL
MODEL 5
REMARK VINA RESULT:     -10.2      2.955      4.247
REMARK  Name = 
REMARK  5 active torsions:
REMARK  status: ('A' for Active; 'I' for Inactive)
REMARK    1  A    between atoms: C_3  and  N_4
REMARK    2  A    between atoms: N_7  and  C_8
REMARK    3  A    between atoms: C_8  and  C_9
REMARK    4  A    between atoms: C_16  and  N_17
REMARK    5  A    between atoms: N_20  and  C_23
REMARK                            x       y       z     vdW  Elec       q    Type
REMARK                         _______ _______ _______ _____ _____    ______ ____
ROOT
ATOM      1  O   UNL     1      -1.742   1.194  23.329  0.00  0.00    -0.220 OA
ATOM      2  C   UNL     1      -1.345   0.652  23.808  0.00  0.00    +0.194 C 
ATOM      3  C   UNL     1      -0.779   0.097  24.049  0.00  0.00    +0.158 C 
ATOM     11  C   UNL     1      -1.103  -0.071  24.903  0.00  0.00    +0.170 C 
ATOM     12  C   UNL     1      -1.742   0.326  25.100  0.00  0.00    +0.176 C 
ATOM     13  O   UNL     1      -2.233   0.451  25.619  0.00  0.00    -0.327 OA
ATOM     14  C   UNL     1      -1.523   0.090  25.239  0.00  0.00    +0.253 C 
ATOM     15  O   UNL     1      -0.961  -0.463  25.481  0.00  0.00    -0.327 OA
ATOM     16  C   UNL     1      -1.197   0.276  24.343  0.00  0.00    +0.147 C 
ENDROOT
BRANCH  16  17
ATOM     17  N   UNL     1      -1.873   0.724  24.494  0.00  0.00    -0.265 NA
ATOM     18  C   UNL     1      -1.807   1.459  24.865  0.00  0.00    +0.094 C 
ATOM     19  C   UNL     1      -2.483   1.907  25.015  0.00  0.00    +0.108 C 
ATOM     20  N   UNL     1      -3.225   1.621  24.795  0.00  0.00    -0.305 N 
ATOM     21  C   UNL     1      -3.291   0.887  24.424  0.00  0.00    +0.108 C 
ATOM     22  C   UNL     1      -2.615   0.439  24.274  0.00  0.00    +0.094 C 
BRANCH  20  23
ATOM     23  C   UNL     1      -3.901   2.069  24.945  0.00  0.00    +0.048 A 
ATOM     24  C   UNL     1      -3.835   2.877  25.100  0.00  0.00    +0.015 A 
ATOM     25  C   UNL     1      -4.511   3.326  25.250  0.00  0.00    +0.001 A 
ATOM     26  C   UNL     1      -5.253   2.966  25.245  0.00  0.00    +0.000 A 
ATOM     27  C   UNL     1      -5.320   2.158  25.090  0.00  0.00    +0.001 A 
ATOM     28  C   UNL     1      -4.644   1.710  24.940  0.00  0.00    +0.015 A 
ENDBRANCH  20  23
ENDBRANCH  16  17
BRANCH   3   4
ATOM      4  N   UNL     1      -0.125  -0.212  23.650  0.00  0.00    -0.184 NA
ATOM      5  C   UNL     1       0.536   0.261  23.513  0.00  0.00    +0.340 C 
ATOM      6  O   UNL     1       0.544   1.045  23.774  0.00  0.00    -0.249 OA
ATOM      7  N   UNL     1       1.189  -0.048  23.115  0.00  0.00    -0.182 NA
BRANCH   7   8
ATOM      8  C   UNL     1       1.850   0.426  22.977  0.00  0.00    +0.143 C 
BRANCH   8   9
ATOM      9  C   UNL     1       2.492   0.127  22.553  0.00  0.00    -0.003 C 
ATOM     10  C   UNL     1       3.217   0.518  22.571  0.00  0.00    -0.003 C 
ENDBRANCH   8   9
ENDBRANCH   7   8
ENDBRANCH   3   4
TORSDOF 5
ENDMDL
