MODEL 1
REMARK VINA RESULT:     -12.6      0.000      0.000
REMARK  Name = 
REMARK  5 active torsions:
REMARK  status: ('A' for Active; 'I' for Inactive)
REMARK    1  A    between atoms: C_7  and  C_8
REMARK    2  A    between atoms: C_14  and  N_15
REMARK    3  A    between atoms: N_15  and  S_16
REMARK    4  A    between atoms: S_16  and  C_19
REMARK    5  A    between atoms: C_23  and  C_25
REMARK                            x       y       z     vdW  Elec       q    Type
REMARK                         _______ _______ _______ _____ _____    ______ ____
ROOT
ATOM      8  C   UNL     1      -3.928   2.230  24.197  0.00  0.00    +0.045 C 
ATOM      9  C   UNL     1      -3.667   2.610  23.512  0.00  0.00    +0.041 C 
ATOM     10  C   UNL     1      -3.087   2.138  23.163  0.00  0.00    +0.184 C 
ATOM     11  O   UNL     1      -2.677   2.308  22.468  0.00  0.00    -0.220 OA
ATOM     12  C   UNL     1      -2.990   1.466  23.632  0.00  0.00    +0.200 C 
ATOM     13  O   UNL     1      -2.465   0.846  23.488  0.00  0.00    -0.219 OA
ATOM     14  C   UNL     1      -3.509   1.523  24.271  0.00  0.00    +0.135 C 
ENDROOT
BRANCH   8   7
ATOM      1  C   UNL     1      -3.568   3.441  25.259  0.00  0.00    +0.031 C 
ATOM      2  C   UNL     1      -4.326   3.113  25.246  0.00  0.00    -0.026 A 
ATOM      3  C   UNL     1      -4.903   3.392  25.765  0.00  0.00    -0.005 A 
ATOM      4  C   UNL     1      -5.661   3.065  25.754  0.00  0.00    -0.000 A 
ATOM      5  C   UNL     1      -5.841   2.460  25.222  0.00  0.00    -0.000 A 
ATOM      6  C   UNL     1      -5.263   2.181  24.703  0.00  0.00    -0.005 A 
ATOM      7  C   UNL     1      -4.505   2.509  24.716  0.00  0.00    -0.025 A 
ENDBRANCH   8   7
BRANCH  14  15
ATOM     15  N   UNL     1      -3.595   0.970  24.877  0.00  0.00    -0.076 NA
BRANCH  15  16
ATOM     16  S   UNL     1      -3.587   0.164  24.704  0.00  0.00    +0.077 S 
ATOM     17  O   UNL     1      -4.288   0.249  24.277  0.00  0.00    -0.152 OA
ATOM     18  O   UNL     1      -2.887   0.079  25.132  0.00  0.00    -0.152 OA
BRANCH  16  19
ATOM     19  C   UNL     1      -3.580  -0.643  24.531  0.00  0.00    +0.124 A 
ATOM     20  C   UNL     1      -4.255  -1.006  24.227  0.00  0.00    +0.020 A 
ATOM     21  C   UNL     1      -4.247  -1.813  24.053  0.00  0.00    +0.002 A 
ATOM     22  C   UNL     1      -3.564  -2.256  24.185  0.00  0.00    +0.010 A 
ATOM     23  C   UNL     1      -2.889  -1.893  24.490  0.00  0.00    +0.070 A 
ATOM     24  C   UNL     1      -2.896  -1.087  24.663  0.00  0.00    +0.030 A 
BRANCH  23  25
ATOM     25  C   UNL     1      -2.206  -2.336  24.621  0.00  0.00    +0.100 C 
ATOM     26  N   UNL     1      -1.523  -2.780  24.753  0.00  0.00    -0.191 NA
ENDBRANCH  23  25
ENDBRANCH  16  19
ENDBRANCH  15  16
ENDBRANCH  14  15
TORSDOF 5
ENDMDL
MODEL 2
REMARK VINA RESULT:     -12.1      1.351      4.282
REMARK  Name = 
REMARK  5 active torsions:
REMARK  status: ('A' for Active; 'I' for Inactive)
REMARK    1  A    between atoms: C_7  and  C_8
REMARK    2  A    between atoms: C_14  and  N_15
REMARK    3  A    between atoms: N_15  and  S_16
REMARK    4  A    between atoms: S_16  and  C_19
REMARK    5  A    between atoms: C_23  and  C_25
REMARK                            x       y       z     vdW  Elec       q    Type
REMARK                         _______ _______ _______ _____ _____    ______ ____
ROOT
ATOM      8  C   UNL     1      -2.092  -0.511  25.186  0.00  0.00    +0.045 C 
ATOM      9  C   UNL     1      -1.441  -0.405  25.681  0.00  0.00    +0.041 C 
ATOM     10  C   UNL     1      -1.182   0.375  25.598  0.00  0.00    +0.184 C 
ATOM     11  O   UNL     1      -0.544   0.718  25.992  0.00  0.00    -0.220 OA
ATOM     12  C   UNL     1      -1.674   0.749  25.051  0.00  0.00    +0.200 C 
ATOM     13  O   UNL     1      -1.614   1.533  24.803  0.00  0.00    -0.219 OA
ATOM     14  C   UNL     1      -2.236   0.202  24.797  0.00  0.00    +0.135 C 
ENDROOT
BRANCH   8   7
ATOM      1  C   UNL     1      -1.479  -1.751  24.286  0.00  0.00    +0.031 C 
ATOM      2  C   UNL     1      -2.217  -1.828  24.646  0.00  0.00    -0.026 A 
ATOM      3  C   UNL     1      -2.649  -2.525  24.556  0.00  0.00    -0.005 A 
ATOM      4  C   UNL     1      -3.387  -2.604  24.916  0.00  0.00    -0.000 A 
ATOM      5  C   UNL     1      -3.694  -1.983  25.367  0.00  0.00    -0.000 A 
ATOM      6  C   UNL     1      -3.262  -1.286  25.457  0.00  0.00    -0.005 A 
ATOM      7  C   UNL     1      -2.524  -1.209  25.096  0.00  0.00    -0.025 A 
ENDBRANCH   8   7
BRANCH  14  15
ATOM     15  N   UNL     1      -2.837   0.342  24.249  0.00  0.00    -0.076 NA
BRANCH  15  16
ATOM     16  S   UNL     1      -3.238   1.063  24.253  0.00  0.00    +0.077 S 
ATOM     17  O   UNL     1      -2.907   1.252  23.522  0.00  0.00    -0.152 OA
ATOM     18  O   UNL     1      -3.570   0.875  24.984  0.00  0.00    -0.152 OA
BRANCH  16  19
ATOM     19  C   UNL     1      -3.639   1.784  24.257  0.00  0.00    +0.124 A 
ATOM     20  C   UNL     1      -3.495   2.340  23.665  0.00  0.00    +0.020 A 
ATOM     21  C   UNL     1      -3.896   3.061  23.669  0.00  0.00    +0.002 A 
ATOM     22  C   UNL     1      -4.441   3.226  24.265  0.00  0.00    +0.010 A 
ATOM     23  C   UNL     1      -4.586   2.671  24.857  0.00  0.00    +0.070 A 
ATOM     24  C   UNL     1      -4.185   1.950  24.853  0.00  0.00    +0.030 A 
BRANCH  23  25
ATOM     25  C   UNL     1      -5.131   2.836  25.453  0.00  0.00    +0.100 C 
ATOM     26  N   UNL     1      -5.677   3.001  26.050  0.00  0.00    -0.191 NA
ENDBRANCH  23  25
ENDBRANCH  16  19
ENDBRANCH  15  16
ENDBRANCH  14  15
TORSDOF 5
ENDMDL
MODEL 3
REMARK VINA RESULT:     -12.1      1.879      3.982
REMARK  Name = 
REMARK  5 active torsions:
REMARK  status: ('A' for Active; 'I' for Inactive)
REMARK    1  A    between atoms: C_7  and  C_8
REMARK    2  A    between atoms: C_14  and  N_15
REMARK    3  A    between atoms: N_15  and  S_16
REMARK    4  A    between atoms: S_16  and  C_19
REMARK    5  A    between atoms: C_23  and  C_25
REMARK                            x       y       z     vdW  Elec       q    Type
REMARK                         _______ _______ _______ _____ _____    ______ ____
ROOT
ATOM      8  C   UNL     1      -3.974  -0.002  24.856  0.00  0.00    +0.045 C 
ATOM      9  C   UNL     1      -4.710   0.323  25.042  0.00  0.00    +0.041 C 
ATOM     10  C   UNL     1      -4.696   1.121  24.832  0.00  0.00    +0.184 C 
ATOM     11  O   UNL     1      -5.316   1.657  24.922  0.00  0.00    -0.220 OA
ATOM     12  C   UNL     1      -3.952   1.289  24.516  0.00  0.00    +0.200 C 
ATOM     13  O   UNL     1      -3.699   2.021  24.235  0.00  0.00    -0.219 OA
ATOM     14  C   UNL     1      -3.507   0.594  24.531  0.00  0.00    +0.135 C 
ENDROOT
BRANCH   8   7
ATOM      1  C   UNL     1      -4.388  -1.156  23.752  0.00  0.00    +0.031 C 
ATOM      2  C   UNL     1      -3.954  -1.363  24.423  0.00  0.00    -0.026 A 
ATOM      3  C   UNL     1      -3.727  -2.147  24.541  0.00  0.00    -0.005 A 
ATOM      4  C   UNL     1      -3.294  -2.355  25.211  0.00  0.00    -0.000 A 
ATOM      5  C   UNL     1      -3.087  -1.778  25.764  0.00  0.00    -0.000 A 
ATOM      6  C   UNL     1      -3.314  -0.993  25.646  0.00  0.00    -0.005 A 
ATOM      7  C   UNL     1      -3.747  -0.787  24.975  0.00  0.00    -0.025 A 
ENDBRANCH   8   7
BRANCH  14  15
ATOM     15  N   UNL     1      -2.729   0.511  24.268  0.00  0.00    -0.076 NA
BRANCH  15  16
ATOM     16  S   UNL     1      -2.184   1.117  24.393  0.00  0.00    +0.077 S 
ATOM     17  O   UNL     1      -2.123   1.231  23.579  0.00  0.00    -0.152 OA
ATOM     18  O   UNL     1      -2.245   1.003  25.208  0.00  0.00    -0.152 OA
BRANCH  16  19
ATOM     19  C   UNL     1      -1.639   1.723  24.519  0.00  0.00    +0.124 A 
ATOM     20  C   UNL     1      -1.516   2.296  23.938  0.00  0.00    +0.020 A 
ATOM     21  C   UNL     1      -0.971   2.902  24.064  0.00  0.00    +0.002 A 
ATOM     22  C   UNL     1      -0.548   2.936  24.771  0.00  0.00    +0.010 A 
ATOM     23  C   UNL     1      -0.670   2.364  25.353  0.00  0.00    +0.070 A 
ATOM     24  C   UNL     1      -1.215   1.757  25.227  0.00  0.00    +0.030 A 
BRANCH  23  25
ATOM     25  C   UNL     1      -0.247   2.397  26.060  0.00  0.00    +0.100 C 
ATOM     26  N   UNL     1       0.176   2.431  26.767  0.00  0.00    -0.191 NA
ENDBRANCH  23  25
ENDBRANCH  16  19
ENDBRANCH  15  16
ENDBRANCH  14  15
TORSDOF 5
ENDMDL
MODEL 4
REMARK VINA RESULT:     -11.7      1.364      2.336
REMARK  Name = 
REMARK  5 active torsions:
REMARK  status: ('A' for Active; 'I' for Inactive)
REMARK    1  A    between atoms: C_7  and  C_8
REMARK    2  A    between atoms: C_14  and  N_15
REMARK    3  A    between atoms: N_15  and  S_16
REMARK    4  A    between atoms: S_16  and  C_19
REMARK    5  A    between atoms: C_23  and  C_25
REMARK                            x       y       z     vdW  Elec       q    Type
REMARK                         _______ _______ _______ _____ _____    ______ ____
ROOT
ATOM      8  C   UNL     1      -3.722   2.903  24.972  0.00  0.00    +0.045 C 
ATOM      9  C   UNL     1      -4.422   3.262  25.221  0.00  0.00    +0.041 C 
ATOM     10  C   UNL     1      -5.036   2.721  25.117  0.00  0.00    +0.184 C 
ATOM     11  O   UNL     1      -5.831   2.850  25.296  0.00  0.00    -0.220 OA
ATOM     12  C   UNL     1      -4.716   2.028  24.805  0.00  0.00    +0.200 C 
ATOM     13  O   UNL     1      -5.134   1.343  24.615  0.00  0.00    -0.219 OA
ATOM     14  C   UNL     1      -3.903   2.141  24.715  0.00  0.00    +0.135 C 
ENDROOT
BRANCH   8   7
ATOM      1  C   UNL     1      -3.199   3.714  26.310  0.00  0.00    +0.031 C 
ATOM      2  C   UNL     1      -2.711   3.652  25.648  0.00  0.00    -0.026 A 
ATOM      3  C   UNL     1      -1.961   3.996  25.655  0.00  0.00    -0.005 A 
ATOM      4  C   UNL     1      -1.472   3.934  24.994  0.00  0.00    -0.000 A 
ATOM      5  C   UNL     1      -1.733   3.528  24.324  0.00  0.00    -0.000 A 
ATOM      6  C   UNL     1      -2.483   3.184  24.317  0.00  0.00    -0.005 A 
ATOM      7  C   UNL     1      -2.972   3.247  24.979  0.00  0.00    -0.025 A 
ENDBRANCH   8   7
BRANCH  14  15
ATOM     15  N   UNL     1      -3.366   1.588  24.419  0.00  0.00    -0.076 NA
BRANCH  15  16
ATOM     16  S   UNL     1      -3.428   0.795  24.638  0.00  0.00    +0.077 S 
ATOM     17  O   UNL     1      -3.133   0.979  25.387  0.00  0.00    -0.152 OA
ATOM     18  O   UNL     1      -3.723   0.611  23.890  0.00  0.00    -0.152 OA
BRANCH  16  19
ATOM     19  C   UNL     1      -3.490   0.002  24.857  0.00  0.00    +0.124 A 
ATOM     20  C   UNL     1      -3.270  -0.235  25.616  0.00  0.00    +0.020 A 
ATOM     21  C   UNL     1      -3.332  -1.028  25.836  0.00  0.00    +0.002 A 
ATOM     22  C   UNL     1      -3.614  -1.584  25.296  0.00  0.00    +0.010 A 
ATOM     23  C   UNL     1      -3.833  -1.348  24.536  0.00  0.00    +0.070 A 
ATOM     24  C   UNL     1      -3.772  -0.555  24.317  0.00  0.00    +0.030 A 
BRANCH  23  25
ATOM     25  C   UNL     1      -4.115  -1.903  23.996  0.00  0.00    +0.100 C 
ATOM     26  N   UNL     1      -4.397  -2.460  23.456  0.00  0.00    -0.191 NA
ENDBRANCH  23  25
ENDBRANCH  16  19
ENDBRANCH  15  16
ENDBRANCH  14  15
TORSDOF 5
ENDMDL
MODEL 5
REMARK VINA RESULT:     -11.4      1.927      2.573
REMARK  Name = 
REMARK  5 active torsions:
REMARK  status: ('A' for Active; 'I' for Inactive)
REMARK    1  A    between atoms: C_7  and  C_8
REMARK    2  A    between atoms: C_14  and  N_15
REMARK    3  A    between atoms: N_15  and  S_16
REMARK    4  A    between atoms: S_16  and  C_19
REMARK    5  A    between atoms: C_23  and  C_25
REMARK                            x       y       z     vdW  Elec       q    Type
REMARK                         _______ _______ _______ _____ _____    ______ ____
ROOT
ATOM      8  C   UNL     1      -0.986   1.706  24.701  0.00  0.00    +0.045 C 
ATOM      9  C   UNL     1      -0.321   1.649  24.216  0.00  0.00    +0.041 C 
ATOM     10  C   UNL     1      -0.215   0.854  24.020  0.00  0.00    +0.184 C 
ATOM     11  O   UNL     1       0.384   0.548  23.545  0.00  0.00    -0.220 OA
ATOM     12  C   UNL     1      -0.815   0.421  24.385  0.00  0.00    +0.200 C 
ATOM     13  O   UNL     1      -0.921  -0.396  24.337  0.00  0.00    -0.219 OA
ATOM     14  C   UNL     1      -1.291   0.947  24.805  0.00  0.00    +0.135 C 
ENDROOT
BRANCH   8   7
ATOM      1  C   UNL     1      -0.293   2.364  26.046  0.00  0.00    +0.031 C 
ATOM      2  C   UNL     1      -0.945   2.729  25.697  0.00  0.00    -0.026 A 
ATOM      3  C   UNL     1      -1.251   3.424  26.021  0.00  0.00    -0.005 A 
ATOM      4  C   UNL     1      -1.903   3.790  25.672  0.00  0.00    -0.000 A 
ATOM      5  C   UNL     1      -2.249   3.461  24.999  0.00  0.00    -0.000 A 
ATOM      6  C   UNL     1      -1.944   2.766  24.676  0.00  0.00    -0.005 A 
ATOM      7  C   UNL     1      -1.292   2.401  25.025  0.00  0.00    -0.025 A 
ENDBRANCH   8   7
BRANCH  14  15
ATOM     15  N   UNL     1      -1.957   0.749  25.252  0.00  0.00    -0.076 NA
BRANCH  15  16
ATOM     16  S   UNL     1      -2.505   0.209  24.957  0.00  0.00    +0.077 S 
ATOM     17  O   UNL     1      -2.332  -0.306  25.578  0.00  0.00    -0.152 OA
ATOM     18  O   UNL     1      -2.679   0.723  24.336  0.00  0.00    -0.152 OA
BRANCH  16  19
ATOM     19  C   UNL     1      -3.054  -0.332  24.663  0.00  0.00    +0.124 A 
ATOM     20  C   UNL     1      -3.656  -0.077  24.159  0.00  0.00    +0.020 A 
ATOM     21  C   UNL     1      -4.204  -0.618  23.864  0.00  0.00    +0.002 A 
ATOM     22  C   UNL     1      -4.152  -1.414  24.073  0.00  0.00    +0.010 A 
ATOM     23  C   UNL     1      -3.550  -1.670  24.577  0.00  0.00    +0.070 A 
ATOM     24  C   UNL     1      -3.001  -1.129  24.871  0.00  0.00    +0.030 A 
BRANCH  23  25
ATOM     25  C   UNL     1      -3.497  -2.466  24.786  0.00  0.00    +0.100 C 
ATOM     26  N   UNL     1      -3.444  -3.262  24.995  0.00  0.00    -0.191 NA
ENDBRANCH  23  25
ENDBRANCH  16  19
ENDBRANCH  15  16
ENDBRANCH  14  15
TORSDOF 5
ENDMDL
