MODEL 1
REMARK VINA RESULT:     -10.8      0.000      0.000
REMARK  Name = 
REMARK  5 active torsions:
REMARK  status: ('A' for Active; 'I' for Inactive)
REMARK    1  A    between atoms: O_2  and  C_3
REMARK    2  A    between atoms: C_5  and  O_6
REMARK    3  A    between atoms: C_8  and  C_11
REMARK    4  A    between atoms: C_19  and  N_25
REMARK    5  A    between atoms: C_26  and  C_28
REMARK                            x       y       z     vdW  Elec       q    Type
REMARK                         _______ _______ _______ _____ _____    ______ ____
ROOT
ATOM     11  C   UNL     1      -3.995  -0.261  24.713  0.00  0.00    +0.003 A 
ATOM     12  C   UNL     1      -3.384   0.229  24.454  0.00  0.00    +0.006 A 
ATOM     13  C   UNL     1      -3.419   1.042  24.597  0.00  0.00    +0.069 A 
ATOM     14  C   UNL     1      -4.065   1.363  24.997  0.00  0.00    +0.078 A 
ATOM     15  N   UNL     1      -4.207   2.151  25.194  0.00  0.00    -0.178 NA
ATOM     16  C   UNL     1      -3.739   2.813  25.039  0.00  0.00    +0.265 C 
ATOM     17  O   UNL     1      -4.036   3.534  25.310  0.00  0.00    -0.271 OA
ATOM     18  C   UNL     1      -3.013   2.849  24.649  0.00  0.00    +0.174 C 
ATOM     19  C   UNL     1      -2.597   3.552  24.528  0.00  0.00    +0.124 C 
ATOM     20  C   UNL     1      -1.902   3.370  24.123  0.00  0.00    +0.045 C 
ATOM     21  C   UNL     1      -1.889   2.555  23.992  0.00  0.00    +0.096 C 
ATOM     22  N   UNL     1      -2.576   2.234  24.317  0.00  0.00    -0.268 N 
ATOM     23  C   UNL     1      -2.756   1.429  24.294  0.00  0.00    +0.251 C 
ATOM     24  O   UNL     1      -2.201   0.948  23.919  0.00  0.00    -0.270 OA
ATOM     33  C   UNL     1      -4.676   0.872  25.255  0.00  0.00    +0.017 A 
ATOM     34  C   UNL     1      -4.641   0.061  25.114  0.00  0.00    +0.001 A 
ENDROOT
BRANCH  11   8
ATOM      3  C   UNL     1      -3.890  -2.697  24.288  0.00  0.00    +0.142 A 
ATOM      4  C   UNL     1      -3.604  -2.390  24.998  0.00  0.00    +0.074 A 
ATOM      5  C   UNL     1      -3.639  -1.578  25.140  0.00  0.00    +0.142 A 
ATOM      8  C   UNL     1      -3.960  -1.073  24.571  0.00  0.00    +0.034 A 
ATOM      9  C   UNL     1      -4.246  -1.380  23.861  0.00  0.00    +0.006 A 
ATOM     10  C   UNL     1      -4.211  -2.193  23.720  0.00  0.00    +0.037 A 
BRANCH   3   2
ATOM      1  C   UNL     1      -3.314  -3.810  23.602  0.00  0.00    +0.252 C 
ATOM      2  O   UNL     1      -3.856  -3.509  24.147  0.00  0.00    -0.471 OA
ENDBRANCH   3   2
BRANCH   5   6
ATOM      6  O   UNL     1      -3.353  -1.269  25.849  0.00  0.00    -0.471 OA
ATOM      7  C   UNL     1      -3.034  -1.772  26.420  0.00  0.00    +0.252 C 
ENDBRANCH   5   6
ENDBRANCH  11   8
BRANCH  19  25
ATOM     25  N   UNL     1      -2.833   4.304  24.771  0.00  0.00    -0.205 NA
ATOM     26  C   UNL     1      -2.275   4.842  25.052  0.00  0.00    +0.241 C 
ATOM     27  O   UNL     1      -2.511   5.594  25.294  0.00  0.00    -0.273 OA
BRANCH  26  28
ATOM     28  C   UNL     1      -1.479   4.628  25.089  0.00  0.00    +0.078 C 
ATOM     29  C   UNL     1      -0.901   4.813  24.531  0.00  0.00    +0.009 C 
ATOM     30  C   UNL     1      -0.186   4.491  24.787  0.00  0.00    +0.001 C 
ATOM     31  C   UNL     1      -0.322   4.106  25.504  0.00  0.00    +0.001 C 
ATOM     32  C   UNL     1      -1.122   4.191  25.691  0.00  0.00    +0.009 C 
ENDBRANCH  26  28
ENDBRANCH  19  25
TORSDOF 5
ENDMDL
MODEL 2
REMARK VINA RESULT:     -10.5      2.462      4.076
REMARK  Name = 
REMARK  5 active torsions:
REMARK  status: ('A' for Active; 'I' for Inactive)
REMARK    1  A    between atoms: O_2  and  C_3
REMARK    2  A    between atoms: C_5  and  O_6
REMARK    3  A    between atoms: C_8  and  C_11
REMARK    4  A    between atoms: C_19  and  N_25
REMARK    5  A    between atoms: C_26  and  C_28
REMARK                            x       y       z     vdW  Elec       q    Type
REMARK                         _______ _______ _______ _____ _____    ______ ____
ROOT
ATOM     11  C   UNL     1      -0.456   1.459  24.342  0.00  0.00    +0.003 A 
ATOM     12  C   UNL     1      -1.219   1.530  24.038  0.00  0.00    +0.006 A 
ATOM     13  C   UNL     1      -1.771   2.011  24.419  0.00  0.00    +0.069 A 
ATOM     14  C   UNL     1      -1.560   2.421  25.103  0.00  0.00    +0.078 A 
ATOM     15  N   UNL     1      -2.021   2.926  25.564  0.00  0.00    -0.178 NA
ATOM     16  C   UNL     1      -2.808   3.146  25.455  0.00  0.00    +0.265 C 
ATOM     17  O   UNL     1      -3.117   3.665  26.017  0.00  0.00    -0.271 OA
ATOM     18  C   UNL     1      -3.329   2.914  24.858  0.00  0.00    +0.174 C 
ATOM     19  C   UNL     1      -4.111   3.176  24.810  0.00  0.00    +0.124 C 
ATOM     20  C   UNL     1      -4.455   2.829  24.145  0.00  0.00    +0.045 C 
ATOM     21  C   UNL     1      -3.886   2.354  23.782  0.00  0.00    +0.096 C 
ATOM     22  N   UNL     1      -3.191   2.407  24.222  0.00  0.00    -0.268 N 
ATOM     23  C   UNL     1      -2.498   2.005  24.027  0.00  0.00    +0.251 C 
ATOM     24  O   UNL     1      -2.535   1.534  23.350  0.00  0.00    -0.270 OA
ATOM     33  C   UNL     1      -0.795   2.350  25.406  0.00  0.00    +0.017 A 
ATOM     34  C   UNL     1      -0.243   1.869  25.026  0.00  0.00    +0.001 A 
ENDROOT
BRANCH  11   8
ATOM      3  C   UNL     1       1.200   0.015  23.202  0.00  0.00    +0.142 A 
ATOM      4  C   UNL     1       0.638  -0.320  23.705  0.00  0.00    +0.074 A 
ATOM      5  C   UNL     1       0.087   0.161  24.085  0.00  0.00    +0.142 A 
ATOM      8  C   UNL     1       0.096   0.978  23.962  0.00  0.00    +0.034 A 
ATOM      9  C   UNL     1       0.658   1.312  23.459  0.00  0.00    +0.006 A 
ATOM     10  C   UNL     1       1.210   0.830  23.079  0.00  0.00    +0.037 A 
BRANCH   3   2
ATOM      1  C   UNL     1       2.381  -0.127  22.410  0.00  0.00    +0.252 C 
ATOM      2  O   UNL     1       1.752  -0.466  22.822  0.00  0.00    -0.471 OA
ENDBRANCH   3   2
BRANCH   5   6
ATOM      6  O   UNL     1      -0.476  -0.172  24.588  0.00  0.00    -0.471 OA
ATOM      7  C   UNL     1      -0.468  -0.983  24.737  0.00  0.00    +0.252 C 
ENDBRANCH   5   6
ENDBRANCH  11   8
BRANCH  19  25
ATOM     25  N   UNL     1      -4.482   3.692  25.334  0.00  0.00    -0.205 NA
ATOM     26  C   UNL     1      -5.218   3.498  25.653  0.00  0.00    +0.241 C 
ATOM     27  O   UNL     1      -5.590   4.015  26.178  0.00  0.00    -0.273 OA
BRANCH  26  28
ATOM     28  C   UNL     1      -5.582   2.787  25.447  0.00  0.00    +0.078 C 
ATOM     29  C   UNL     1      -5.546   2.083  25.875  0.00  0.00    +0.009 C 
ATOM     30  C   UNL     1      -5.986   1.515  25.470  0.00  0.00    +0.001 C 
ATOM     31  C   UNL     1      -6.295   1.868  24.791  0.00  0.00    +0.001 C 
ATOM     32  C   UNL     1      -6.045   2.655  24.777  0.00  0.00    +0.009 C 
ENDBRANCH  26  28
ENDBRANCH  19  25
TORSDOF 5
ENDMDL
MODEL 3
REMARK VINA RESULT:     -10.4      1.684      5.963
REMARK  Name = 
REMARK  5 active torsions:
REMARK  status: ('A' for Active; 'I' for Inactive)
REMARK    1  A    between atoms: O_2  and  C_3
REMARK    2  A    between atoms: C_5  and  O_6
REMARK    3  A    between atoms: C_8  and  C_11
REMARK    4  A    between atoms: C_19  and  N_25
REMARK    5  A    between atoms: C_26  and  C_28
REMARK                            x       y       z     vdW  Elec       q    Type
REMARK                         _______ _______ _______ _____ _____    ______ ____
ROOT
ATOM     11  C   UNL     1      -1.127   2.814  25.375  0.00  0.00    +0.003 A 
ATOM     12  C   UNL     1      -1.568   2.297  24.908  0.00  0.00    +0.006 A 
ATOM     13  C   UNL     1      -1.471   1.481  24.991  0.00  0.00    +0.069 A 
ATOM     14  C   UNL     1      -0.935   1.183  25.542  0.00  0.00    +0.078 A 
ATOM     15  N   UNL     1      -0.756   0.396  25.713  0.00  0.00    -0.178 NA
ATOM     16  C   UNL     1      -1.070  -0.287  25.374  0.00  0.00    +0.265 C 
ATOM     17  O   UNL     1      -0.775  -1.000  25.666  0.00  0.00    -0.271 OA
ATOM     18  C   UNL     1      -1.640  -0.352  24.781  0.00  0.00    +0.174 C 
ATOM     19  C   UNL     1      -1.909  -1.075  24.487  0.00  0.00    +0.124 C 
ATOM     20  C   UNL     1      -2.473  -0.920  23.905  0.00  0.00    +0.045 C 
ATOM     21  C   UNL     1      -2.552  -0.101  23.839  0.00  0.00    +0.096 C 
ATOM     22  N   UNL     1      -2.037   0.249  24.380  0.00  0.00    -0.268 N 
ATOM     23  C   UNL     1      -1.963   1.065  24.474  0.00  0.00    +0.251 C 
ATOM     24  O   UNL     1      -2.441   1.528  23.986  0.00  0.00    -0.270 OA
ATOM     33  C   UNL     1      -0.494   1.701  26.010  0.00  0.00    +0.017 A 
ATOM     34  C   UNL     1      -0.590   2.516  25.927  0.00  0.00    +0.001 A 
ENDROOT
BRANCH  11   8
ATOM      3  C   UNL     1      -1.415   5.259  25.126  0.00  0.00    +0.142 A 
ATOM      4  C   UNL     1      -1.942   4.827  25.590  0.00  0.00    +0.074 A 
ATOM      5  C   UNL     1      -1.846   4.012  25.673  0.00  0.00    +0.142 A 
ATOM      8  C   UNL     1      -1.223   3.628  25.292  0.00  0.00    +0.034 A 
ATOM      9  C   UNL     1      -0.695   4.061  24.827  0.00  0.00    +0.006 A 
ATOM     10  C   UNL     1      -0.792   4.876  24.744  0.00  0.00    +0.037 A 
BRANCH   3   2
ATOM      1  C   UNL     1      -1.934   6.377  24.402  0.00  0.00    +0.252 C 
ATOM      2  O   UNL     1      -1.510   6.074  25.042  0.00  0.00    -0.471 OA
ENDBRANCH   3   2
BRANCH   5   6
ATOM      6  O   UNL     1      -2.373   3.579  26.138  0.00  0.00    -0.471 OA
ATOM      7  C   UNL     1      -3.029   3.950  26.473  0.00  0.00    +0.252 C 
ENDBRANCH   5   6
ENDBRANCH  11   8
BRANCH  19  25
ATOM     25  N   UNL     1      -1.659  -1.822  24.732  0.00  0.00    -0.205 NA
ATOM     26  C   UNL     1      -2.200  -2.444  24.780  0.00  0.00    +0.241 C 
ATOM     27  O   UNL     1      -1.950  -3.190  25.025  0.00  0.00    -0.273 OA
BRANCH  26  28
ATOM     28  C   UNL     1      -2.991  -2.317  24.583  0.00  0.00    +0.078 C 
ATOM     29  C   UNL     1      -3.333  -2.447  23.844  0.00  0.00    +0.009 C 
ATOM     30  C   UNL     1      -4.132  -2.249  23.894  0.00  0.00    +0.001 C 
ATOM     31  C   UNL     1      -4.285  -1.997  24.665  0.00  0.00    +0.001 C 
ATOM     32  C   UNL     1      -3.579  -2.039  25.091  0.00  0.00    +0.009 C 
ENDBRANCH  26  28
ENDBRANCH  19  25
TORSDOF 5
ENDMDL
MODEL 4
REMARK VINA RESULT:     -10.3      1.375      5.724
REMARK  Name = 
REMARK  5 active torsions:
REMARK  status: ('A' for Active; 'I' for Inactive)
REMARK    1  A    between atoms: O_2  and  C_3
REMARK    2  A    between atoms: C_5  and  O_6
REMARK    3  A    between atoms: C_8  and  C_11
REMARK    4  A    between atoms: C_19  and  N_25
REMARK    5  A    between atoms: C_26  and  C_28
REMARK                            x       y       z     vdW  Elec       q    Type
REMARK                         _______ _______ _______ _____ _____    ______ ____
ROOT
ATOM     11  C   UNL     1      -2.640   2.772  24.554  0.00  0.00    +0.003 A 
ATOM     12  C   UNL     1      -2.462   2.062  24.934  0.00  0.00    +0.006 A 
ATOM     13  C   UNL     1      -2.889   1.379  24.752  0.00  0.00    +0.069 A 
ATOM     14  C   UNL     1      -3.492   1.407  24.190  0.00  0.00    +0.078 A 
ATOM     15  N   UNL     1      -3.980   0.796  23.930  0.00  0.00    -0.178 NA
ATOM     16  C   UNL     1      -3.986   0.005  24.166  0.00  0.00    +0.265 C 
ATOM     17  O   UNL     1      -4.547  -0.475  23.799  0.00  0.00    -0.271 OA
ATOM     18  C   UNL     1      -3.504  -0.368  24.722  0.00  0.00    +0.174 C 
ATOM     19  C   UNL     1      -3.566  -1.170  24.911  0.00  0.00    +0.124 C 
ATOM     20  C   UNL     1      -2.998  -1.341  25.485  0.00  0.00    +0.045 C 
ATOM     21  C   UNL     1      -2.585  -0.645  25.650  0.00  0.00    +0.096 C 
ATOM     22  N   UNL     1      -2.898  -0.045  25.179  0.00  0.00    -0.268 N 
ATOM     23  C   UNL     1      -2.624   0.733  25.192  0.00  0.00    +0.251 C 
ATOM     24  O   UNL     1      -2.004   0.886  25.714  0.00  0.00    -0.270 OA
ATOM     33  C   UNL     1      -3.669   2.117  23.810  0.00  0.00    +0.017 A 
ATOM     34  C   UNL     1      -3.244   2.800  23.991  0.00  0.00    +0.001 A 
ENDROOT
BRANCH  11   8
ATOM      3  C   UNL     1      -1.362   4.821  25.098  0.00  0.00    +0.142 A 
ATOM      4  C   UNL     1      -2.086   4.676  25.467  0.00  0.00    +0.074 A 
ATOM      5  C   UNL     1      -2.511   3.993  25.285  0.00  0.00    +0.142 A 
ATOM      8  C   UNL     1      -2.214   3.455  24.735  0.00  0.00    +0.034 A 
ATOM      9  C   UNL     1      -1.490   3.600  24.366  0.00  0.00    +0.006 A 
ATOM     10  C   UNL     1      -1.064   4.283  24.548  0.00  0.00    +0.037 A 
BRANCH   3   2
ATOM      1  C   UNL     1      -0.591   5.947  24.676  0.00  0.00    +0.252 C 
ATOM      2  O   UNL     1      -0.937   5.504  25.280  0.00  0.00    -0.471 OA
ENDBRANCH   3   2
BRANCH   5   6
ATOM      6  O   UNL     1      -3.235   3.847  25.653  0.00  0.00    -0.471 OA
ATOM      7  C   UNL     1      -3.473   4.307  26.296  0.00  0.00    +0.252 C 
ENDBRANCH   5   6
ENDBRANCH  11   8
BRANCH  19  25
ATOM     25  N   UNL     1      -4.101  -1.705  24.585  0.00  0.00    -0.205 NA
ATOM     26  C   UNL     1      -3.843  -2.451  24.343  0.00  0.00    +0.241 C 
ATOM     27  O   UNL     1      -4.378  -2.987  24.016  0.00  0.00    -0.273 OA
BRANCH  26  28
ATOM     28  C   UNL     1      -3.050  -2.660  24.427  0.00  0.00    +0.078 C 
ATOM     29  C   UNL     1      -2.461  -2.571  23.856  0.00  0.00    +0.009 C 
ATOM     30  C   UNL     1      -1.753  -2.850  24.173  0.00  0.00    +0.001 C 
ATOM     31  C   UNL     1      -1.903  -3.112  24.941  0.00  0.00    +0.001 C 
ATOM     32  C   UNL     1      -2.705  -2.995  25.098  0.00  0.00    +0.009 C 
ENDBRANCH  26  28
ENDBRANCH  19  25
TORSDOF 5
ENDMDL
MODEL 5
REMARK VINA RESULT:      -9.5      2.428      4.210
REMARK  Name = 
REMARK  5 active torsions:
REMARK  status: ('A' for Active; 'I' for Inactive)
REMARK    1  A    between atoms: O_2  and  C_3
REMARK    2  A    between atoms: C_5  and  O_6
REMARK    3  A    between atoms: C_8  and  C_11
REMARK    4  A    between atoms: C_19  and  N_25
REMARK    5  A    between atoms: C_26  and  C_28
REMARK                            x       y       z     vdW  Elec       q    Type
REMARK                         _______ _______ _______ _____ _____    ______ ____
ROOT
ATOM     11  C   UNL     1      -0.860   0.300  24.089  0.00  0.00    +0.003 A 
ATOM     12  C   UNL     1      -1.432   0.864  23.905  0.00  0.00    +0.006 A 
ATOM     13  C   UNL     1      -2.187   0.810  24.235  0.00  0.00    +0.069 A 
ATOM     14  C   UNL     1      -2.369   0.191  24.749  0.00  0.00    +0.078 A 
ATOM     15  N   UNL     1      -3.081   0.036  25.135  0.00  0.00    -0.178 NA
ATOM     16  C   UNL     1      -3.787   0.461  25.102  0.00  0.00    +0.265 C 
ATOM     17  O   UNL     1      -4.407   0.162  25.557  0.00  0.00    -0.271 OA
ATOM     18  C   UNL     1      -3.955   1.147  24.675  0.00  0.00    +0.174 C 
ATOM     19  C   UNL     1      -4.690   1.522  24.690  0.00  0.00    +0.124 C 
ATOM     20  C   UNL     1      -4.648   2.184  24.199  0.00  0.00    +0.045 C 
ATOM     21  C   UNL     1      -3.887   2.217  23.881  0.00  0.00    +0.096 C 
ATOM     22  N   UNL     1      -3.459   1.577  24.176  0.00  0.00    -0.268 N 
ATOM     23  C   UNL     1      -2.672   1.427  23.979  0.00  0.00    +0.251 C 
ATOM     24  O   UNL     1      -2.324   1.965  23.459  0.00  0.00    -0.270 OA
ATOM     33  C   UNL     1      -1.796  -0.374  24.933  0.00  0.00    +0.017 A 
ATOM     34  C   UNL     1      -1.042  -0.320  24.604  0.00  0.00    +0.001 A 
ENDROOT
BRANCH  11   8
ATOM      3  C   UNL     1       1.403   0.462  23.101  0.00  0.00    +0.142 A 
ATOM      4  C   UNL     1       1.183   0.969  23.712  0.00  0.00    +0.074 A 
ATOM      5  C   UNL     1       0.429   0.915  24.042  0.00  0.00    +0.142 A 
ATOM      8  C   UNL     1      -0.106   0.354  23.760  0.00  0.00    +0.034 A 
ATOM      9  C   UNL     1       0.114  -0.154  23.148  0.00  0.00    +0.006 A 
ATOM     10  C   UNL     1       0.869  -0.100  22.818  0.00  0.00    +0.037 A 
BRANCH   3   2
ATOM      1  C   UNL     1       2.465  -0.116  22.338  0.00  0.00    +0.252 C 
ATOM      2  O   UNL     1       2.157   0.516  22.771  0.00  0.00    -0.471 OA
ENDBRANCH   3   2
BRANCH   5   6
ATOM      6  O   UNL     1       0.208   1.423  24.654  0.00  0.00    -0.471 OA
ATOM      7  C   UNL     1       0.709   2.036  24.884  0.00  0.00    +0.252 C 
ENDBRANCH   5   6
ENDBRANCH  11   8
BRANCH  19  25
ATOM     25  N   UNL     1      -5.351   1.279  25.119  0.00  0.00    -0.205 NA
ATOM     26  C   UNL     1      -5.780   1.827  25.563  0.00  0.00    +0.241 C 
ATOM     27  O   UNL     1      -6.440   1.583  25.992  0.00  0.00    -0.273 OA
BRANCH  26  28
ATOM     28  C   UNL     1      -5.547   2.618  25.577  0.00  0.00    +0.078 C 
ATOM     29  C   UNL     1      -5.801   3.207  25.058  0.00  0.00    +0.009 C 
ATOM     30  C   UNL     1      -5.431   3.912  25.271  0.00  0.00    +0.001 C 
ATOM     31  C   UNL     1      -4.948   3.760  25.923  0.00  0.00    +0.001 C 
ATOM     32  C   UNL     1      -5.020   2.959  26.112  0.00  0.00    +0.009 C 
ENDBRANCH  26  28
ENDBRANCH  19  25
TORSDOF 5
ENDMDL
MODEL 6
REMARK VINA RESULT:      -9.2      1.438      2.088
REMARK  Name = 
REMARK  5 active torsions:
REMARK  status: ('A' for Active; 'I' for Inactive)
REMARK    1  A    between atoms: O_2  and  C_3
REMARK    2  A    between atoms: C_5  and  O_6
REMARK    3  A    between atoms: C_8  and  C_11
REMARK    4  A    between atoms: C_19  and  N_25
REMARK    5  A    between atoms: C_26  and  C_28
REMARK                            x       y       z     vdW  Elec       q    Type
REMARK                         _______ _______ _______ _____ _____    ______ ____
ROOT
ATOM     11  C   UNL     1      -1.908  -0.819  24.879  0.00  0.00    +0.003 A 
ATOM     12  C   UNL     1      -2.177  -0.101  24.577  0.00  0.00    +0.006 A 
ATOM     13  C   UNL     1      -1.725   0.583  24.675  0.00  0.00    +0.069 A 
ATOM     14  C   UNL     1      -1.005   0.549  25.074  0.00  0.00    +0.078 A 
ATOM     15  N   UNL     1      -0.474   1.159  25.231  0.00  0.00    -0.178 NA
ATOM     16  C   UNL     1      -0.532   1.957  25.027  0.00  0.00    +0.265 C 
ATOM     17  O   UNL     1       0.097   2.435  25.266  0.00  0.00    -0.271 OA
ATOM     18  C   UNL     1      -1.136   2.339  24.615  0.00  0.00    +0.174 C 
ATOM     19  C   UNL     1      -1.128   3.147  24.445  0.00  0.00    +0.124 C 
ATOM     20  C   UNL     1      -1.819   3.326  24.030  0.00  0.00    +0.045 C 
ATOM     21  C   UNL     1      -2.253   2.629  23.945  0.00  0.00    +0.096 C 
ATOM     22  N   UNL     1      -1.831   2.020  24.306  0.00  0.00    -0.268 N 
ATOM     23  C   UNL     1      -2.094   1.239  24.332  0.00  0.00    +0.251 C 
ATOM     24  O   UNL     1      -2.820   1.092  23.969  0.00  0.00    -0.270 OA
ATOM     33  C   UNL     1      -0.735  -0.171  25.376  0.00  0.00    +0.017 A 
ATOM     34  C   UNL     1      -1.186  -0.854  25.279  0.00  0.00    +0.001 A 
ENDROOT
BRANCH  11   8
ATOM      3  C   UNL     1      -3.261  -2.870  24.587  0.00  0.00    +0.142 A 
ATOM      4  C   UNL     1      -3.423  -2.355  25.210  0.00  0.00    +0.074 A 
ATOM      5  C   UNL     1      -2.972  -1.672  25.308  0.00  0.00    +0.142 A 
ATOM      8  C   UNL     1      -2.359  -1.503  24.781  0.00  0.00    +0.034 A 
ATOM      9  C   UNL     1      -2.197  -2.018  24.157  0.00  0.00    +0.006 A 
ATOM     10  C   UNL     1      -2.649  -2.702  24.060  0.00  0.00    +0.037 A 
BRANCH   3   2
ATOM      1  C   UNL     1      -4.199  -3.637  23.828  0.00  0.00    +0.252 C 
ATOM      2  O   UNL     1      -3.712  -3.554  24.490  0.00  0.00    -0.471 OA
ENDBRANCH   3   2
BRANCH   5   6
ATOM      6  O   UNL     1      -3.132  -1.156  25.931  0.00  0.00    -0.471 OA
ATOM      7  C   UNL     1      -3.715  -1.343  26.484  0.00  0.00    +0.252 C 
ENDBRANCH   5   6
ENDBRANCH  11   8
BRANCH  19  25
ATOM     25  N   UNL     1      -0.535   3.681  24.652  0.00  0.00    -0.205 NA
ATOM     26  C   UNL     1      -0.731   4.393  25.020  0.00  0.00    +0.241 C 
ATOM     27  O   UNL     1      -0.138   4.928  25.227  0.00  0.00    -0.273 OA
BRANCH  26  28
ATOM     28  C   UNL     1      -1.520   4.570  25.180  0.00  0.00    +0.078 C 
ATOM     29  C   UNL     1      -1.934   4.363  25.863  0.00  0.00    +0.009 C 
ATOM     30  C   UNL     1      -2.704   4.650  25.792  0.00  0.00    +0.001 C 
ATOM     31  C   UNL     1      -2.767   5.035  25.065  0.00  0.00    +0.001 C 
ATOM     32  C   UNL     1      -2.035   4.986  24.687  0.00  0.00    +0.009 C 
ENDBRANCH  26  28
ENDBRANCH  19  25
TORSDOF 5
ENDMDL
MODEL 7
REMARK VINA RESULT:      -8.5      3.374      5.827
REMARK  Name = 
REMARK  5 active torsions:
REMARK  status: ('A' for Active; 'I' for Inactive)
REMARK    1  A    between atoms: O_2  and  C_3
REMARK    2  A    between atoms: C_5  and  O_6
REMARK    3  A    between atoms: C_8  and  C_11
REMARK    4  A    between atoms: C_19  and  N_25
REMARK    5  A    between atoms: C_26  and  C_28
REMARK                            x       y       z     vdW  Elec       q    Type
REMARK                         _______ _______ _______ _____ _____    ______ ____
ROOT
ATOM     11  C   UNL     1       0.976   0.692  23.410  0.00  0.00    +0.003 A 
ATOM     12  C   UNL     1       0.585   0.074  23.790  0.00  0.00    +0.006 A 
ATOM     13  C   UNL     1      -0.191   0.177  24.052  0.00  0.00    +0.069 A 
ATOM     14  C   UNL     1      -0.576   0.897  23.934  0.00  0.00    +0.078 A 
ATOM     15  N   UNL     1      -1.341   1.113  24.150  0.00  0.00    -0.178 NA
ATOM     16  C   UNL     1      -1.913   0.662  24.538  0.00  0.00    +0.265 C 
ATOM     17  O   UNL     1      -2.634   1.039  24.677  0.00  0.00    -0.271 OA
ATOM     18  C   UNL     1      -1.859  -0.117  24.805  0.00  0.00    +0.174 C 
ATOM     19  C   UNL     1      -2.476  -0.509  25.189  0.00  0.00    +0.124 C 
ATOM     20  C   UNL     1      -2.219  -1.271  25.371  0.00  0.00    +0.045 C 
ATOM     21  C   UNL     1      -1.443  -1.350  25.101  0.00  0.00    +0.096 C 
ATOM     22  N   UNL     1      -1.221  -0.637  24.751  0.00  0.00    -0.268 N 
ATOM     23  C   UNL     1      -0.479  -0.507  24.416  0.00  0.00    +0.251 C 
ATOM     24  O   UNL     1       0.046  -1.143  24.448  0.00  0.00    -0.270 OA
ATOM     33  C   UNL     1      -0.184   1.516  23.554  0.00  0.00    +0.017 A 
ATOM     34  C   UNL     1       0.592   1.414  23.291  0.00  0.00    +0.001 A 
ENDROOT
BRANCH  11   8
ATOM      3  C   UNL     1       3.302   0.387  22.623  0.00  0.00    +0.142 A 
ATOM      4  C   UNL     1       2.677   0.062  22.195  0.00  0.00    +0.074 A 
ATOM      5  C   UNL     1       1.901   0.164  22.457  0.00  0.00    +0.142 A 
ATOM      8  C   UNL     1       1.751   0.591  23.148  0.00  0.00    +0.034 A 
ATOM      9  C   UNL     1       2.378   0.915  23.576  0.00  0.00    +0.006 A 
ATOM     10  C   UNL     1       3.154   0.813  23.313  0.00  0.00    +0.037 A 
BRANCH   3   2
ATOM      1  C   UNL     1       4.709   0.441  22.868  0.00  0.00    +0.252 C 
ATOM      2  O   UNL     1       4.078   0.285  22.361  0.00  0.00    -0.471 OA
ENDBRANCH   3   2
BRANCH   5   6
ATOM      6  O   UNL     1       1.274  -0.160  22.030  0.00  0.00    -0.471 OA
ATOM      7  C   UNL     1       1.417  -0.550  21.317  0.00  0.00    +0.252 C 
ENDBRANCH   5   6
ENDBRANCH  11   8
BRANCH  19  25
ATOM     25  N   UNL     1      -3.219  -0.195  25.360  0.00  0.00    -0.205 NA
ATOM     26  C   UNL     1      -3.900  -0.635  25.206  0.00  0.00    +0.241 C 
ATOM     27  O   UNL     1      -4.642  -0.321  25.377  0.00  0.00    -0.273 OA
BRANCH  26  28
ATOM     28  C   UNL     1      -3.836  -1.391  24.881  0.00  0.00    +0.078 C 
ATOM     29  C   UNL     1      -3.940  -1.587  24.087  0.00  0.00    +0.009 C 
ATOM     30  C   UNL     1      -3.826  -2.400  24.007  0.00  0.00    +0.001 C 
ATOM     31  C   UNL     1      -3.650  -2.707  24.753  0.00  0.00    +0.001 C 
ATOM     32  C   UNL     1      -3.657  -2.083  25.293  0.00  0.00    +0.009 C 
ENDBRANCH  26  28
ENDBRANCH  19  25
TORSDOF 5
ENDMDL
MODEL 8
REMARK VINA RESULT:      -8.2      1.731      5.683
REMARK  Name = 
REMARK  5 active torsions:
REMARK  status: ('A' for Active; 'I' for Inactive)
REMARK    1  A    between atoms: O_2  and  C_3
REMARK    2  A    between atoms: C_5  and  O_6
REMARK    3  A    between atoms: C_8  and  C_11
REMARK    4  A    between atoms: C_19  and  N_25
REMARK    5  A    between atoms: C_26  and  C_28
REMARK                            x       y       z     vdW  Elec       q    Type
REMARK                         _______ _______ _______ _____ _____    ______ ____
ROOT
ATOM     11  C   UNL     1      -3.946   2.452  24.930  0.00  0.00    +0.003 A 
ATOM     12  C   UNL     1      -4.025   1.689  25.232  0.00  0.00    +0.006 A 
ATOM     13  C   UNL     1      -3.490   1.100  25.011  0.00  0.00    +0.069 A 
ATOM     14  C   UNL     1      -2.877   1.275  24.488  0.00  0.00    +0.078 A 
ATOM     15  N   UNL     1      -2.289   0.774  24.199  0.00  0.00    -0.178 NA
ATOM     16  C   UNL     1      -2.169  -0.026  24.361  0.00  0.00    +0.265 C 
ATOM     17  O   UNL     1      -1.525  -0.376  23.981  0.00  0.00    -0.271 OA
ATOM     18  C   UNL     1      -2.608  -0.522  24.852  0.00  0.00    +0.174 C 
ATOM     19  C   UNL     1      -2.430  -1.320  24.969  0.00  0.00    +0.124 C 
ATOM     20  C   UNL     1      -2.986  -1.632  25.492  0.00  0.00    +0.045 C 
ATOM     21  C   UNL     1      -3.509  -1.027  25.698  0.00  0.00    +0.096 C 
ATOM     22  N   UNL     1      -3.275  -0.342  25.303  0.00  0.00    -0.268 N 
ATOM     23  C   UNL     1      -3.668   0.380  25.374  0.00  0.00    +0.251 C 
ATOM     24  O   UNL     1      -4.325   0.383  25.873  0.00  0.00    -0.270 OA
ATOM     33  C   UNL     1      -2.797   2.039  24.186  0.00  0.00    +0.017 A 
ATOM     34  C   UNL     1      -3.332   2.627  24.407  0.00  0.00    +0.001 A 
ENDROOT
BRANCH  11   8
ATOM      3  C   UNL     1      -5.548   4.218  25.593  0.00  0.00    +0.142 A 
ATOM      4  C   UNL     1      -4.765   4.256  25.847  0.00  0.00    +0.074 A 
ATOM      5  C   UNL     1      -4.230   3.667  25.626  0.00  0.00    +0.142 A 
ATOM      8  C   UNL     1      -4.480   3.040  25.151  0.00  0.00    +0.034 A 
ATOM      9  C   UNL     1      -5.264   3.002  24.897  0.00  0.00    +0.006 A 
ATOM     10  C   UNL     1      -5.798   3.591  25.118  0.00  0.00    +0.037 A 
BRANCH   3   2
ATOM      1  C   UNL     1      -6.332   5.365  25.260  0.00  0.00    +0.252 C 
ATOM      2  O   UNL     1      -6.082   4.806  25.813  0.00  0.00    -0.471 OA
ENDBRANCH   3   2
BRANCH   5   6
ATOM      6  O   UNL     1      -3.446   3.704  25.880  0.00  0.00    -0.471 OA
ATOM      7  C   UNL     1      -3.207   4.300  26.397  0.00  0.00    +0.252 C 
ENDBRANCH   5   6
ENDBRANCH  11   8
BRANCH  19  25
ATOM     25  N   UNL     1      -1.805  -1.733  24.624  0.00  0.00    -0.205 NA
ATOM     26  C   UNL     1      -1.936  -2.474  24.286  0.00  0.00    +0.241 C 
ATOM     27  O   UNL     1      -1.311  -2.887  23.941  0.00  0.00    -0.273 OA
BRANCH  26  28
ATOM     28  C   UNL     1      -2.692  -2.802  24.294  0.00  0.00    +0.078 C 
ATOM     29  C   UNL     1      -3.259  -2.729  23.699  0.00  0.00    +0.009 C 
ATOM     30  C   UNL     1      -3.933  -3.142  23.935  0.00  0.00    +0.001 C 
ATOM     31  C   UNL     1      -3.783  -3.471  24.677  0.00  0.00    +0.001 C 
ATOM     32  C   UNL     1      -3.016  -3.261  24.899  0.00  0.00    +0.009 C 
ENDBRANCH  26  28
ENDBRANCH  19  25
TORSDOF 5
ENDMDL
