MODEL 1
REMARK VINA RESULT:     -13.8      0.000      0.000
REMARK  Name = 
REMARK  6 active torsions:
REMARK  status: ('A' for Active; 'I' for Inactive)
REMARK    1  A    between atoms: C_2  and  C_3
REMARK    2  A    between atoms: C_11  and  C_12
REMARK    3  A    between atoms: C_12  and  C_13
REMARK    4  A    between atoms: N_15  and  C_16
REMARK    5  A    between atoms: C_16  and  C_17
REMARK    6  A    between atoms: C_30  and  C_32
REMARK                            x       y       z     vdW  Elec       q    Type
REMARK                         _______ _______ _______ _____ _____    ______ ____
ROOT
ATOM      1  C   UNL     1      -5.053   4.001  25.690  0.00  0.00    +0.005 C 
ATOM      2  C   UNL     1      -4.758   3.281  25.415  0.00  0.00    +0.059 C 
ATOM      5  C   UNL     1      -5.560   3.098  25.463  0.00  0.00    +0.154 C 
ATOM      6  O   UNL     1      -6.099   3.667  25.721  0.00  0.00    -0.223 OA
ATOM      7  C   UNL     1      -5.825   2.344  25.253  0.00  0.00    +0.033 C 
ATOM      8  C   UNL     1      -5.287   1.776  24.995  0.00  0.00    +0.003 C 
ATOM      9  C   UNL     1      -4.484   1.959  24.947  0.00  0.00    +0.006 C 
ATOM     10  C   UNL     1      -4.748   1.207  24.737  0.00  0.00    +0.000 C 
ATOM     11  C   UNL     1      -3.945   1.390  24.689  0.00  0.00    +0.050 C 
ATOM     23  C   UNL     1      -3.143   1.573  24.640  0.00  0.00    +0.063 A 
ATOM     24  C   UNL     1      -2.878   2.327  24.851  0.00  0.00    +0.023 A 
ATOM     25  C   UNL     1      -3.416   2.895  25.109  0.00  0.00    +0.034 C 
ATOM     26  C   UNL     1      -4.220   2.712  25.157  0.00  0.00    +0.010 C 
ATOM     27  S   UNL     1      -2.060   2.347  24.747  0.00  0.00    -0.054 S 
ATOM     28  C   UNL     1      -1.818   1.607  24.473  0.00  0.00    +0.186 A 
ATOM     29  N   UNL     1      -1.044   1.385  24.296  0.00  0.00    -0.148 NA
ATOM     30  C   UNL     1      -0.428   1.926  24.390  0.00  0.00    +0.305 C 
ATOM     31  O   UNL     1       0.347   1.703  24.213  0.00  0.00    -0.265 OA
ATOM     37  N   UNL     1      -2.487   1.130  24.407  0.00  0.00    -0.227 NA
ENDROOT
BRANCH  30  32
ATOM     32  C   UNL     1      -0.586   2.688  24.660  0.00  0.00    +0.201 A 
ATOM     33  C   UNL     1      -0.553   2.942  25.445  0.00  0.00    +0.046 A 
ATOM     34  C   UNL     1      -0.752   3.743  25.463  0.00  0.00    +0.044 A 
ATOM     35  C   UNL     1      -0.907   3.984  24.689  0.00  0.00    +0.180 A 
ATOM     36  O   UNL     1      -0.804   3.333  24.193  0.00  0.00    -0.446 OA
ENDBRANCH  30  32
BRANCH   2   3
ATOM      3  C   UNL     1      -4.058   3.715  25.462  0.00  0.00    +0.184 C 
ATOM      4  O   UNL     1      -4.070   4.489  25.748  0.00  0.00    -0.220 OA
ENDBRANCH   2   3
BRANCH  11  12
ATOM     12  C   UNL     1      -4.209   0.637  24.478  0.00  0.00    +0.093 C 
BRANCH  12  13
ATOM     13  C   UNL     1      -4.017  -0.014  24.948  0.00  0.00    +0.242 C 
ATOM     14  O   UNL     1      -4.031   0.053  25.770  0.00  0.00    -0.273 OA
ATOM     15  N   UNL     1      -3.811  -0.730  24.596  0.00  0.00    -0.200 NA
BRANCH  15  16
ATOM     16  C   UNL     1      -3.619  -1.381  25.065  0.00  0.00    +0.143 C 
BRANCH  16  17
ATOM     17  C   UNL     1      -3.316  -2.065  24.718  0.00  0.00    +0.019 A 
ATOM     18  C   UNL     1      -3.823  -2.594  24.339  0.00  0.00    +0.001 A 
ATOM     19  C   UNL     1      -3.520  -3.278  23.992  0.00  0.00    +0.020 A 
ATOM     20  C   UNL     1      -2.711  -3.434  24.023  0.00  0.00    +0.099 A 
ATOM     21  N   UNL     1      -2.204  -2.904  24.402  0.00  0.00    -0.243 NA
ATOM     22  C   UNL     1      -2.507  -2.220  24.749  0.00  0.00    +0.096 A 
ENDBRANCH  16  17
ENDBRANCH  15  16
ENDBRANCH  12  13
ENDBRANCH  11  12
TORSDOF 6
ENDMDL
MODEL 2
REMARK VINA RESULT:     -13.0      1.141      3.378
REMARK  Name = 
REMARK  6 active torsions:
REMARK  status: ('A' for Active; 'I' for Inactive)
REMARK    1  A    between atoms: C_2  and  C_3
REMARK    2  A    between atoms: C_11  and  C_12
REMARK    3  A    between atoms: C_12  and  C_13
REMARK    4  A    between atoms: N_15  and  C_16
REMARK    5  A    between atoms: C_16  and  C_17
REMARK    6  A    between atoms: C_30  and  C_32
REMARK                            x       y       z     vdW  Elec       q    Type
REMARK                         _______ _______ _______ _____ _____    ______ ____
ROOT
ATOM      1  C   UNL     1      -1.164   4.571  25.185  0.00  0.00    +0.005 C 
ATOM      2  C   UNL     1      -1.408   3.801  25.022  0.00  0.00    +0.059 C 
ATOM      5  C   UNL     1      -0.598   3.724  24.894  0.00  0.00    +0.154 C 
ATOM      6  O   UNL     1      -0.100   4.375  24.993  0.00  0.00    -0.223 OA
ATOM      7  C   UNL     1      -0.283   2.995  24.667  0.00  0.00    +0.033 C 
ATOM      8  C   UNL     1      -0.779   2.344  24.568  0.00  0.00    +0.003 C 
ATOM      9  C   UNL     1      -1.590   2.421  24.695  0.00  0.00    +0.006 C 
ATOM     10  C   UNL     1      -1.276   1.694  24.469  0.00  0.00    +0.000 C 
ATOM     11  C   UNL     1      -2.088   1.771  24.596  0.00  0.00    +0.050 C 
ATOM     23  C   UNL     1      -2.899   1.847  24.724  0.00  0.00    +0.063 A 
ATOM     24  C   UNL     1      -3.213   2.577  24.951  0.00  0.00    +0.023 A 
ATOM     25  C   UNL     1      -2.717   3.227  25.050  0.00  0.00    +0.034 C 
ATOM     26  C   UNL     1      -1.905   3.150  24.923  0.00  0.00    +0.010 C 
ATOM     27  S   UNL     1      -4.029   2.486  25.037  0.00  0.00    -0.054 S 
ATOM     28  C   UNL     1      -4.219   1.702  24.863  0.00  0.00    +0.186 A 
ATOM     29  N   UNL     1      -4.974   1.371  24.879  0.00  0.00    -0.148 NA
ATOM     30  C   UNL     1      -5.624   1.836  25.084  0.00  0.00    +0.305 C 
ATOM     31  O   UNL     1      -6.379   1.505  25.101  0.00  0.00    -0.265 OA
ATOM     37  N   UNL     1      -3.521   1.308  24.670  0.00  0.00    -0.227 NA
ENDROOT
BRANCH  30  32
ATOM     32  C   UNL     1      -5.519   2.632  25.272  0.00  0.00    +0.201 A 
ATOM     33  C   UNL     1      -5.441   2.945  26.032  0.00  0.00    +0.046 A 
ATOM     34  C   UNL     1      -5.347   3.762  25.963  0.00  0.00    +0.044 A 
ATOM     35  C   UNL     1      -5.367   3.953  25.161  0.00  0.00    +0.180 A 
ATOM     36  O   UNL     1      -5.473   3.256  24.733  0.00  0.00    -0.446 OA
ENDBRANCH  30  32
BRANCH   2   3
ATOM      3  C   UNL     1      -2.134   4.146  25.206  0.00  0.00    +0.184 C 
ATOM      4  O   UNL     1      -2.168   4.937  25.440  0.00  0.00    -0.220 OA
ENDBRANCH   2   3
BRANCH  11  12
ATOM     12  C   UNL     1      -1.773   1.042  24.369  0.00  0.00    +0.093 C 
BRANCH  12  13
ATOM     13  C   UNL     1      -1.797   0.402  24.890  0.00  0.00    +0.242 C 
ATOM     14  O   UNL     1      -1.593   0.508  25.682  0.00  0.00    -0.273 OA
ATOM     15  N   UNL     1      -2.025  -0.342  24.618  0.00  0.00    -0.200 NA
BRANCH  15  16
ATOM     16  C   UNL     1      -2.049  -0.982  25.138  0.00  0.00    +0.143 C 
BRANCH  16  17
ATOM     17  C   UNL     1      -2.403  -1.690  24.906  0.00  0.00    +0.019 A 
ATOM     18  C   UNL     1      -3.171  -1.866  25.149  0.00  0.00    +0.001 A 
ATOM     19  C   UNL     1      -3.525  -2.574  24.917  0.00  0.00    +0.020 A 
ATOM     20  C   UNL     1      -3.112  -3.106  24.440  0.00  0.00    +0.099 A 
ATOM     21  N   UNL     1      -2.344  -2.929  24.197  0.00  0.00    -0.243 NA
ATOM     22  C   UNL     1      -1.989  -2.221  24.430  0.00  0.00    +0.096 A 
ENDBRANCH  16  17
ENDBRANCH  15  16
ENDBRANCH  12  13
ENDBRANCH  11  12
TORSDOF 6
ENDMDL
MODEL 3
REMARK VINA RESULT:     -12.2      1.645      4.604
REMARK  Name = 
REMARK  6 active torsions:
REMARK  status: ('A' for Active; 'I' for Inactive)
REMARK    1  A    between atoms: C_2  and  C_3
REMARK    2  A    between atoms: C_11  and  C_12
REMARK    3  A    between atoms: C_12  and  C_13
REMARK    4  A    between atoms: N_15  and  C_16
REMARK    5  A    between atoms: C_16  and  C_17
REMARK    6  A    between atoms: C_30  and  C_32
REMARK                            x       y       z     vdW  Elec       q    Type
REMARK                         _______ _______ _______ _____ _____    ______ ____
ROOT
ATOM      1  C   UNL     1      -2.447  -3.100  24.297  0.00  0.00    +0.005 C 
ATOM      2  C   UNL     1      -2.652  -2.329  24.506  0.00  0.00    +0.059 C 
ATOM      5  C   UNL     1      -3.349  -2.722  24.707  0.00  0.00    +0.154 C 
ATOM      6  O   UNL     1      -3.411  -3.537  24.593  0.00  0.00    -0.223 OA
ATOM      7  C   UNL     1      -3.985  -2.299  25.022  0.00  0.00    +0.033 C 
ATOM      8  C   UNL     1      -3.923  -1.485  25.136  0.00  0.00    +0.003 C 
ATOM      9  C   UNL     1      -3.227  -1.092  24.935  0.00  0.00    +0.006 C 
ATOM     10  C   UNL     1      -3.861  -0.671  25.249  0.00  0.00    +0.000 C 
ATOM     11  C   UNL     1      -3.164  -0.277  25.048  0.00  0.00    +0.050 C 
ATOM     23  C   UNL     1      -2.468   0.115  24.847  0.00  0.00    +0.063 A 
ATOM     24  C   UNL     1      -1.832  -0.307  24.532  0.00  0.00    +0.023 A 
ATOM     25  C   UNL     1      -1.894  -1.121  24.419  0.00  0.00    +0.034 C 
ATOM     26  C   UNL     1      -2.591  -1.515  24.619  0.00  0.00    +0.010 C 
ATOM     27  S   UNL     1      -1.219   0.227  24.387  0.00  0.00    -0.054 S 
ATOM     28  C   UNL     1      -1.476   0.978  24.612  0.00  0.00    +0.186 A 
ATOM     29  N   UNL     1      -1.038   1.675  24.562  0.00  0.00    -0.148 NA
ATOM     30  C   UNL     1      -0.268   1.658  24.264  0.00  0.00    +0.305 C 
ATOM     31  O   UNL     1       0.170   2.355  24.213  0.00  0.00    -0.265 OA
ATOM     37  N   UNL     1      -2.247   0.909  24.896  0.00  0.00    -0.227 NA
ENDROOT
BRANCH  30  32
ATOM     32  C   UNL     1       0.063   0.944  24.016  0.00  0.00    +0.201 A 
ATOM     33  C   UNL     1       0.095   0.668  23.239  0.00  0.00    +0.046 A 
ATOM     34  C   UNL     1       0.473  -0.066  23.246  0.00  0.00    +0.044 A 
ATOM     35  C   UNL     1       0.673  -0.243  24.026  0.00  0.00    +0.180 A 
ATOM     36  O   UNL     1       0.420   0.381  24.503  0.00  0.00    -0.446 OA
ENDBRANCH  30  32
BRANCH   2   3
ATOM      3  C   UNL     1      -1.884  -2.204  24.232  0.00  0.00    +0.184 C 
ATOM      4  O   UNL     1      -1.435  -2.840  23.958  0.00  0.00    -0.220 OA
ENDBRANCH   2   3
BRANCH  11  12
ATOM     12  C   UNL     1      -3.800   0.144  25.363  0.00  0.00    +0.093 C 
BRANCH  12  13
ATOM     13  C   UNL     1      -4.205   0.691  24.895  0.00  0.00    +0.242 C 
ATOM     14  O   UNL     1      -4.336   0.532  24.097  0.00  0.00    -0.273 OA
ATOM     15  N   UNL     1      -4.478   1.395  25.226  0.00  0.00    -0.200 NA
BRANCH  15  16
ATOM     16  C   UNL     1      -4.882   1.941  24.759  0.00  0.00    +0.143 C 
BRANCH  16  17
ATOM     17  C   UNL     1      -5.078   2.681  25.066  0.00  0.00    +0.019 A 
ATOM     18  C   UNL     1      -4.572   3.322  24.949  0.00  0.00    +0.001 A 
ATOM     19  C   UNL     1      -4.768   4.063  25.256  0.00  0.00    +0.020 A 
ATOM     20  C   UNL     1      -5.469   4.163  25.679  0.00  0.00    +0.099 A 
ATOM     21  N   UNL     1      -5.974   3.521  25.795  0.00  0.00    -0.243 NA
ATOM     22  C   UNL     1      -5.779   2.781  25.488  0.00  0.00    +0.096 A 
ENDBRANCH  16  17
ENDBRANCH  15  16
ENDBRANCH  12  13
ENDBRANCH  11  12
TORSDOF 6
ENDMDL
MODEL 4
REMARK VINA RESULT:     -11.6      2.131      4.701
REMARK  Name = 
REMARK  6 active torsions:
REMARK  status: ('A' for Active; 'I' for Inactive)
REMARK    1  A    between atoms: C_2  and  C_3
REMARK    2  A    between atoms: C_11  and  C_12
REMARK    3  A    between atoms: C_12  and  C_13
REMARK    4  A    between atoms: N_15  and  C_16
REMARK    5  A    between atoms: C_16  and  C_17
REMARK    6  A    between atoms: C_30  and  C_32
REMARK                            x       y       z     vdW  Elec       q    Type
REMARK                         _______ _______ _______ _____ _____    ______ ____
ROOT
ATOM      1  C   UNL     1      -3.686  -1.929  24.858  0.00  0.00    +0.005 C 
ATOM      2  C   UNL     1      -3.000  -1.481  24.754  0.00  0.00    +0.059 C 
ATOM      5  C   UNL     1      -2.680  -2.241  24.734  0.00  0.00    +0.154 C 
ATOM      6  O   UNL     1      -3.171  -2.899  24.819  0.00  0.00    -0.223 OA
ATOM      7  C   UNL     1      -1.867  -2.343  24.630  0.00  0.00    +0.033 C 
ATOM      8  C   UNL     1      -1.376  -1.686  24.546  0.00  0.00    +0.003 C 
ATOM      9  C   UNL     1      -1.697  -0.927  24.565  0.00  0.00    +0.006 C 
ATOM     10  C   UNL     1      -0.886  -1.029  24.461  0.00  0.00    +0.000 C 
ATOM     11  C   UNL     1      -1.206  -0.269  24.480  0.00  0.00    +0.050 C 
ATOM     23  C   UNL     1      -1.526   0.490  24.500  0.00  0.00    +0.063 A 
ATOM     24  C   UNL     1      -2.339   0.593  24.604  0.00  0.00    +0.023 A 
ATOM     25  C   UNL     1      -2.830  -0.064  24.688  0.00  0.00    +0.034 C 
ATOM     26  C   UNL     1      -2.510  -0.824  24.669  0.00  0.00    +0.010 C 
ATOM     27  S   UNL     1      -2.495   1.403  24.600  0.00  0.00    -0.054 S 
ATOM     28  C   UNL     1      -1.781   1.801  24.494  0.00  0.00    +0.186 A 
ATOM     29  N   UNL     1      -1.683   2.619  24.456  0.00  0.00    -0.148 NA
ATOM     30  C   UNL     1      -2.337   3.117  24.527  0.00  0.00    +0.305 C 
ATOM     31  O   UNL     1      -2.239   3.935  24.489  0.00  0.00    -0.265 OA
ATOM     37  N   UNL     1      -1.183   1.237  24.432  0.00  0.00    -0.227 NA
ENDROOT
BRANCH  30  32
ATOM     32  C   UNL     1      -3.089   2.797  24.636  0.00  0.00    +0.201 A 
ATOM     33  C   UNL     1      -3.639   2.636  24.041  0.00  0.00    +0.046 A 
ATOM     34  C   UNL     1      -4.314   2.321  24.397  0.00  0.00    +0.044 A 
ATOM     35  C   UNL     1      -4.181   2.287  25.211  0.00  0.00    +0.180 A 
ATOM     36  O   UNL     1      -3.424   2.581  25.359  0.00  0.00    -0.446 OA
ENDBRANCH  30  32
BRANCH   2   3
ATOM      3  C   UNL     1      -3.559  -0.877  24.809  0.00  0.00    +0.184 C 
ATOM      4  O   UNL     1      -4.361  -1.061  24.874  0.00  0.00    -0.220 OA
ENDBRANCH   2   3
BRANCH  11  12
ATOM     12  C   UNL     1      -0.394  -0.372  24.376  0.00  0.00    +0.093 C 
BRANCH  12  13
ATOM     13  C   UNL     1      -0.044  -0.189  23.651  0.00  0.00    +0.242 C 
ATOM     14  O   UNL     1      -0.500  -0.185  22.964  0.00  0.00    -0.273 OA
ATOM     15  N   UNL     1       0.760  -0.011  23.614  0.00  0.00    -0.200 NA
BRANCH  15  16
ATOM     16  C   UNL     1       1.109   0.171  22.890  0.00  0.00    +0.143 C 
BRANCH  16  17
ATOM     17  C   UNL     1       1.912   0.358  22.854  0.00  0.00    +0.019 A 
ATOM     18  C   UNL     1       2.429  -0.124  22.429  0.00  0.00    +0.001 A 
ATOM     19  C   UNL     1       3.231   0.062  22.393  0.00  0.00    +0.020 A 
ATOM     20  C   UNL     1       3.518   0.731  22.782  0.00  0.00    +0.099 A 
ATOM     21  N   UNL     1       3.000   1.212  23.207  0.00  0.00    -0.243 NA
ATOM     22  C   UNL     1       2.198   1.026  23.243  0.00  0.00    +0.096 A 
ENDBRANCH  16  17
ENDBRANCH  15  16
ENDBRANCH  12  13
ENDBRANCH  11  12
TORSDOF 6
ENDMDL
