MODEL 1
REMARK VINA RESULT:      -8.7      0.000      0.000
REMARK  Name = 
REMARK  7 active torsions:
REMARK  status: ('A' for Active; 'I' for Inactive)
REMARK    1  A    between atoms: C_2  and  N_3
REMARK    2  A    between atoms: N_3  and  C_4
REMARK    3  A    between atoms: N_3  and  C_6
REMARK    4  A    between atoms: C_6  and  C_7
REMARK    5  A    between atoms: C_7  and  C_8
REMARK    6  A    between atoms: C_13  and  C_14
REMARK    7  A    between atoms: C_14  and  C_15
REMARK                            x       y       z     vdW  Elec       q    Type
REMARK                         _______ _______ _______ _____ _____    ______ ____
ROOT
ATOM      8  C   UNL     1      -3.981   1.100  24.283  0.00  0.00    +0.022 C 
ATOM      9  C   UNL     1      -4.583   1.347  24.789  0.00  0.00    +0.093 C 
ATOM     10  N   UNL     1      -4.736   2.152  24.887  0.00  0.00    -0.280 N 
ATOM     11  C   UNL     1      -4.285   2.709  24.478  0.00  0.00    +0.093 C 
ATOM     12  C   UNL     1      -3.683   2.462  23.972  0.00  0.00    +0.022 C 
ATOM     13  C   UNL     1      -3.530   1.657  23.874  0.00  0.00    +0.015 C 
ATOM     18  C   UNL     1      -5.338   2.400  25.393  0.00  0.00    +0.226 C 
ATOM     19  C   UNL     1      -5.490   3.204  25.490  0.00  0.00    +0.095 C 
ATOM     20  O   UNL     1      -5.789   1.842  25.801  0.00  0.00    -0.275 OA
ENDROOT
BRANCH   8   7
ATOM      7  C   UNL     1      -3.828   0.295  24.185  0.00  0.00    +0.019 C 
BRANCH   7   6
ATOM      6  C   UNL     1      -4.021  -0.236  24.786  0.00  0.00    +0.072 C 
BRANCH   6   3
ATOM      3  N   UNL     1      -3.862  -1.041  24.692  0.00  0.00    -0.273 NA
BRANCH   3   2
ATOM      1  C   UNL     1      -3.398  -1.477  25.971  0.00  0.00    +0.019 C 
ATOM      2  C   UNL     1      -3.285  -1.405  25.157  0.00  0.00    +0.072 C 
ENDBRANCH   3   2
BRANCH   3   4
ATOM      4  C   UNL     1      -4.279  -1.481  24.132  0.00  0.00    +0.072 C 
ATOM      5  C   UNL     1      -4.053  -2.258  23.967  0.00  0.00    +0.019 C 
ENDBRANCH   3   4
ENDBRANCH   6   3
ENDBRANCH   7   6
ENDBRANCH   8   7
BRANCH  13  14
ATOM     14  C   UNL     1      -2.927   1.410  23.368  0.00  0.00    +0.114 C 
BRANCH  14  15
ATOM     15  C   UNL     1      -2.478   1.967  22.959  0.00  0.00    +0.365 C 
ATOM     16  O   UNL     1      -2.695   2.193  22.196  0.00  0.00    -0.246 OA
ATOM     17  O   UNL     1      -1.811   2.299  23.313  0.00  0.00    -0.246 OA
ENDBRANCH  14  15
ENDBRANCH  13  14
TORSDOF 7
ENDMDL
MODEL 2
REMARK VINA RESULT:      -8.1      1.025      2.657
REMARK  Name = 
REMARK  7 active torsions:
REMARK  status: ('A' for Active; 'I' for Inactive)
REMARK    1  A    between atoms: C_2  and  N_3
REMARK    2  A    between atoms: N_3  and  C_4
REMARK    3  A    between atoms: N_3  and  C_6
REMARK    4  A    between atoms: C_6  and  C_7
REMARK    5  A    between atoms: C_7  and  C_8
REMARK    6  A    between atoms: C_13  and  C_14
REMARK    7  A    between atoms: C_14  and  C_15
REMARK                            x       y       z     vdW  Elec       q    Type
REMARK                         _______ _______ _______ _____ _____    ______ ____
ROOT
ATOM      8  C   UNL     1      -3.925   1.021  24.739  0.00  0.00    +0.022 C 
ATOM      9  C   UNL     1      -3.155   1.273  24.588  0.00  0.00    +0.093 C 
ATOM     10  N   UNL     1      -2.963   2.074  24.654  0.00  0.00    -0.280 N 
ATOM     11  C   UNL     1      -3.541   2.619  24.873  0.00  0.00    +0.093 C 
ATOM     12  C   UNL     1      -4.311   2.367  25.024  0.00  0.00    +0.022 C 
ATOM     13  C   UNL     1      -4.503   1.567  24.958  0.00  0.00    +0.015 C 
ATOM     18  C   UNL     1      -2.192   2.327  24.503  0.00  0.00    +0.226 C 
ATOM     19  C   UNL     1      -2.000   3.125  24.569  0.00  0.00    +0.095 C 
ATOM     20  O   UNL     1      -1.614   1.779  24.285  0.00  0.00    -0.275 OA
ENDROOT
BRANCH   8   7
ATOM      7  C   UNL     1      -4.117   0.221  24.673  0.00  0.00    +0.019 C 
BRANCH   7   6
ATOM      6  C   UNL     1      -3.520  -0.347  24.673  0.00  0.00    +0.072 C 
BRANCH   6   3
ATOM      3  N   UNL     1      -3.711  -1.146  24.592  0.00  0.00    -0.273 NA
BRANCH   3   2
ATOM      1  C   UNL     1      -4.305  -2.197  23.827  0.00  0.00    +0.019 C 
ATOM      2  C   UNL     1      -4.008  -1.429  23.876  0.00  0.00    +0.072 C 
ENDBRANCH   3   2
BRANCH   3   4
ATOM      4  C   UNL     1      -3.607  -1.662  25.228  0.00  0.00    +0.072 C 
ATOM      5  C   UNL     1      -2.868  -2.006  25.362  0.00  0.00    +0.019 C 
ENDBRANCH   3   4
ENDBRANCH   6   3
ENDBRANCH   7   6
ENDBRANCH   8   7
BRANCH  13  14
ATOM     14  C   UNL     1      -5.274   1.314  25.109  0.00  0.00    +0.114 C 
BRANCH  14  15
ATOM     15  C   UNL     1      -5.854   1.862  25.319  0.00  0.00    +0.365 C 
ATOM     16  O   UNL     1      -5.941   2.089  26.108  0.00  0.00    -0.246 OA
ATOM     17  O   UNL     1      -6.346   2.183  24.741  0.00  0.00    -0.246 OA
ENDBRANCH  14  15
ENDBRANCH  13  14
TORSDOF 7
ENDMDL
MODEL 3
REMARK VINA RESULT:      -7.9      1.762      3.728
REMARK  Name = 
REMARK  7 active torsions:
REMARK  status: ('A' for Active; 'I' for Inactive)
REMARK    1  A    between atoms: C_2  and  N_3
REMARK    2  A    between atoms: N_3  and  C_4
REMARK    3  A    between atoms: N_3  and  C_6
REMARK    4  A    between atoms: C_6  and  C_7
REMARK    5  A    between atoms: C_7  and  C_8
REMARK    6  A    between atoms: C_13  and  C_14
REMARK    7  A    between atoms: C_14  and  C_15
REMARK                            x       y       z     vdW  Elec       q    Type
REMARK                         _______ _______ _______ _____ _____    ______ ____
ROOT
ATOM      8  C   UNL     1      -3.137  -0.021  24.646  0.00  0.00    +0.022 C 
ATOM      9  C   UNL     1      -3.659  -0.604  24.385  0.00  0.00    +0.093 C 
ATOM     10  N   UNL     1      -3.435  -1.398  24.406  0.00  0.00    -0.280 N 
ATOM     11  C   UNL     1      -2.689  -1.608  24.689  0.00  0.00    +0.093 C 
ATOM     12  C   UNL     1      -2.168  -1.026  24.950  0.00  0.00    +0.022 C 
ATOM     13  C   UNL     1      -2.391  -0.232  24.929  0.00  0.00    +0.015 C 
ATOM     18  C   UNL     1      -3.957  -1.981  24.145  0.00  0.00    +0.226 C 
ATOM     19  C   UNL     1      -3.733  -2.774  24.167  0.00  0.00    +0.095 C 
ATOM     20  O   UNL     1      -4.703  -1.770  23.862  0.00  0.00    -0.275 OA
ENDROOT
BRANCH   8   7
ATOM      7  C   UNL     1      -3.360   0.772  24.624  0.00  0.00    +0.019 C 
BRANCH   7   6
ATOM      6  C   UNL     1      -4.158   0.974  24.561  0.00  0.00    +0.072 C 
BRANCH   6   3
ATOM      3  N   UNL     1      -4.383   1.768  24.559  0.00  0.00    -0.273 NA
BRANCH   3   2
ATOM      1  C   UNL     1      -5.726   1.896  25.029  0.00  0.00    +0.019 C 
ATOM      2  C   UNL     1      -4.921   2.046  25.121  0.00  0.00    +0.072 C 
ENDBRANCH   3   2
BRANCH   3   4
ATOM      4  C   UNL     1      -4.071   2.285  23.996  0.00  0.00    +0.072 C 
ATOM      5  C   UNL     1      -4.092   3.099  24.128  0.00  0.00    +0.019 C 
ENDBRANCH   3   4
ENDBRANCH   6   3
ENDBRANCH   7   6
ENDBRANCH   8   7
BRANCH  13  14
ATOM     14  C   UNL     1      -1.869   0.351  25.190  0.00  0.00    +0.114 C 
BRANCH  14  15
ATOM     15  C   UNL     1      -1.095   0.151  25.391  0.00  0.00    +0.365 C 
ATOM     16  O   UNL     1      -0.496   0.197  24.826  0.00  0.00    -0.246 OA
ATOM     17  O   UNL     1      -0.919  -0.096  26.158  0.00  0.00    -0.246 OA
ENDBRANCH  14  15
ENDBRANCH  13  14
TORSDOF 7
ENDMDL
MODEL 4
REMARK VINA RESULT:      -7.8      2.043      3.965
REMARK  Name = 
REMARK  7 active torsions:
REMARK  status: ('A' for Active; 'I' for Inactive)
REMARK    1  A    between atoms: C_2  and  N_3
REMARK    2  A    between atoms: N_3  and  C_4
REMARK    3  A    between atoms: N_3  and  C_6
REMARK    4  A    between atoms: C_6  and  C_7
REMARK    5  A    between atoms: C_7  and  C_8
REMARK    6  A    between atoms: C_13  and  C_14
REMARK    7  A    between atoms: C_14  and  C_15
REMARK                            x       y       z     vdW  Elec       q    Type
REMARK                         _______ _______ _______ _____ _____    ______ ____
ROOT
ATOM      8  C   UNL     1      -3.240  -0.016  24.682  0.00  0.00    +0.022 C 
ATOM      9  C   UNL     1      -2.506   0.350  24.757  0.00  0.00    +0.093 C 
ATOM     10  N   UNL     1      -1.815  -0.101  24.737  0.00  0.00    -0.280 N 
ATOM     11  C   UNL     1      -1.861  -0.919  24.642  0.00  0.00    +0.093 C 
ATOM     12  C   UNL     1      -2.595  -1.286  24.568  0.00  0.00    +0.022 C 
ATOM     13  C   UNL     1      -3.285  -0.835  24.588  0.00  0.00    +0.015 C 
ATOM     18  C   UNL     1      -1.080   0.266  24.811  0.00  0.00    +0.226 C 
ATOM     19  C   UNL     1      -0.390  -0.185  24.791  0.00  0.00    +0.095 C 
ATOM     20  O   UNL     1      -1.036   1.084  24.906  0.00  0.00    -0.275 OA
ENDROOT
BRANCH   8   7
ATOM      7  C   UNL     1      -3.931   0.435  24.703  0.00  0.00    +0.019 C 
BRANCH   7   6
ATOM      6  C   UNL     1      -3.888   1.246  24.844  0.00  0.00    +0.072 C 
BRANCH   6   3
ATOM      3  N   UNL     1      -4.571   1.708  24.802  0.00  0.00    -0.273 NA
BRANCH   3   2
ATOM      1  C   UNL     1      -4.237   3.030  24.376  0.00  0.00    +0.019 C 
ATOM      2  C   UNL     1      -4.626   2.315  24.245  0.00  0.00    +0.072 C 
ENDBRANCH   3   2
BRANCH   3   4
ATOM      4  C   UNL     1      -5.199   1.563  25.318  0.00  0.00    +0.072 C 
ATOM      5  C   UNL     1      -5.931   1.923  25.187  0.00  0.00    +0.019 C 
ENDBRANCH   3   4
ENDBRANCH   6   3
ENDBRANCH   7   6
ENDBRANCH   8   7
BRANCH  13  14
ATOM     14  C   UNL     1      -4.020  -1.202  24.513  0.00  0.00    +0.114 C 
BRANCH  14  15
ATOM     15  C   UNL     1      -4.067  -1.981  24.247  0.00  0.00    +0.365 C 
ATOM     16  O   UNL     1      -4.264  -2.137  23.461  0.00  0.00    -0.246 OA
ATOM     17  O   UNL     1      -3.917  -2.604  24.766  0.00  0.00    -0.246 OA
ENDBRANCH  14  15
ENDBRANCH  13  14
TORSDOF 7
ENDMDL
MODEL 5
REMARK VINA RESULT:      -7.8      2.236      3.182
REMARK  Name = 
REMARK  7 active torsions:
REMARK  status: ('A' for Active; 'I' for Inactive)
REMARK    1  A    between atoms: C_2  and  N_3
REMARK    2  A    between atoms: N_3  and  C_4
REMARK    3  A    between atoms: N_3  and  C_6
REMARK    4  A    between atoms: C_6  and  C_7
REMARK    5  A    between atoms: C_7  and  C_8
REMARK    6  A    between atoms: C_13  and  C_14
REMARK    7  A    between atoms: C_14  and  C_15
REMARK                            x       y       z     vdW  Elec       q    Type
REMARK                         _______ _______ _______ _____ _____    ______ ____
ROOT
ATOM      8  C   UNL     1      -3.173   0.722  24.768  0.00  0.00    +0.022 C 
ATOM      9  C   UNL     1      -3.591   1.431  24.796  0.00  0.00    +0.093 C 
ATOM     10  N   UNL     1      -4.413   1.423  24.877  0.00  0.00    -0.280 N 
ATOM     11  C   UNL     1      -4.814   0.704  24.929  0.00  0.00    +0.093 C 
ATOM     12  C   UNL     1      -4.396  -0.005  24.900  0.00  0.00    +0.022 C 
ATOM     13  C   UNL     1      -3.575   0.002  24.820  0.00  0.00    +0.015 C 
ATOM     18  C   UNL     1      -4.832   2.133  24.905  0.00  0.00    +0.226 C 
ATOM     19  C   UNL     1      -5.652   2.124  24.985  0.00  0.00    +0.095 C 
ATOM     20  O   UNL     1      -4.429   2.851  24.853  0.00  0.00    -0.275 OA
ENDROOT
BRANCH   8   7
ATOM      7  C   UNL     1      -2.352   0.729  24.688  0.00  0.00    +0.019 C 
BRANCH   7   6
ATOM      6  C   UNL     1      -1.924   1.402  24.901  0.00  0.00    +0.072 C 
BRANCH   6   3
ATOM      3  N   UNL     1      -1.102   1.408  24.825  0.00  0.00    -0.273 NA
BRANCH   3   2
ATOM      1  C   UNL     1      -0.484   2.169  25.865  0.00  0.00    +0.019 C 
ATOM      2  C   UNL     1      -0.625   1.444  25.498  0.00  0.00    +0.072 C 
ENDBRANCH   3   2
BRANCH   3   4
ATOM      4  C   UNL     1      -0.757   1.380  24.076  0.00  0.00    +0.072 C 
ATOM      5  C   UNL     1       0.014   1.101  23.988  0.00  0.00    +0.019 C 
ENDBRANCH   3   4
ENDBRANCH   6   3
ENDBRANCH   7   6
ENDBRANCH   8   7
BRANCH  13  14
ATOM     14  C   UNL     1      -3.156  -0.708  24.791  0.00  0.00    +0.114 C 
BRANCH  14  15
ATOM     15  C   UNL     1      -3.553  -1.424  24.883  0.00  0.00    +0.365 C 
ATOM     16  O   UNL     1      -3.894  -1.795  24.230  0.00  0.00    -0.246 OA
ATOM     17  O   UNL     1      -3.610  -1.772  25.630  0.00  0.00    -0.246 OA
ENDBRANCH  14  15
ENDBRANCH  13  14
TORSDOF 7
ENDMDL
MODEL 6
REMARK VINA RESULT:      -7.7      1.687      3.986
REMARK  Name = 
REMARK  7 active torsions:
REMARK  status: ('A' for Active; 'I' for Inactive)
REMARK    1  A    between atoms: C_2  and  N_3
REMARK    2  A    between atoms: N_3  and  C_4
REMARK    3  A    between atoms: N_3  and  C_6
REMARK    4  A    between atoms: C_6  and  C_7
REMARK    5  A    between atoms: C_7  and  C_8
REMARK    6  A    between atoms: C_13  and  C_14
REMARK    7  A    between atoms: C_14  and  C_15
REMARK                            x       y       z     vdW  Elec       q    Type
REMARK                         _______ _______ _______ _____ _____    ______ ____
ROOT
ATOM      8  C   UNL     1      -3.500   1.453  24.883  0.00  0.00    +0.022 C 
ATOM      9  C   UNL     1      -3.075   0.747  24.887  0.00  0.00    +0.093 C 
ATOM     10  N   UNL     1      -3.473   0.026  24.947  0.00  0.00    -0.280 N 
ATOM     11  C   UNL     1      -4.296   0.013  25.002  0.00  0.00    +0.093 C 
ATOM     12  C   UNL     1      -4.721   0.719  24.998  0.00  0.00    +0.022 C 
ATOM     13  C   UNL     1      -4.324   1.440  24.938  0.00  0.00    +0.015 C 
ATOM     18  C   UNL     1      -3.048  -0.681  24.951  0.00  0.00    +0.226 C 
ATOM     19  C   UNL     1      -3.446  -1.401  25.010  0.00  0.00    +0.095 C 
ATOM     20  O   UNL     1      -2.225  -0.667  24.895  0.00  0.00    -0.275 OA
ENDROOT
BRANCH   8   7
ATOM      7  C   UNL     1      -3.103   2.173  24.823  0.00  0.00    +0.019 C 
BRANCH   7   6
ATOM      6  C   UNL     1      -2.292   2.209  24.969  0.00  0.00    +0.072 C 
BRANCH   6   3
ATOM      3  N   UNL     1      -1.895   2.931  24.917  0.00  0.00    -0.273 NA
BRANCH   3   2
ATOM      1  C   UNL     1      -0.624   2.861  24.266  0.00  0.00    +0.019 C 
ATOM      2  C   UNL     1      -1.416   3.092  24.263  0.00  0.00    +0.072 C 
ENDBRANCH   3   2
BRANCH   3   4
ATOM      4  C   UNL     1      -1.977   3.492  25.516  0.00  0.00    +0.072 C 
ATOM      5  C   UNL     1      -1.778   4.280  25.373  0.00  0.00    +0.019 C 
ENDBRANCH   3   4
ENDBRANCH   6   3
ENDBRANCH   7   6
ENDBRANCH   8   7
BRANCH  13  14
ATOM     14  C   UNL     1      -4.749   2.147  24.934  0.00  0.00    +0.114 C 
BRANCH  14  15
ATOM     15  C   UNL     1      -5.539   2.154  25.167  0.00  0.00    +0.365 C 
ATOM     16  O   UNL     1      -5.739   2.345  25.945  0.00  0.00    -0.246 OA
ATOM     17  O   UNL     1      -6.132   1.969  24.624  0.00  0.00    -0.246 OA
ENDBRANCH  14  15
ENDBRANCH  13  14
TORSDOF 7
ENDMDL
