MODEL 1
REMARK VINA RESULT:     -13.7      0.000      0.000
REMARK  Name = 
REMARK  5 active torsions:
REMARK  status: ('A' for Active; 'I' for Inactive)
REMARK    1  A    between atoms: C_5  and  C_8
REMARK    2  A    between atoms: C_11  and  C_13
REMARK    3  A    between atoms: N_16  and  C_17
REMARK    4  A    between atoms: C_17  and  C_18
REMARK    5  A    between atoms: C_21  and  C_24
REMARK                            x       y       z     vdW  Elec       q    Type
REMARK                         _______ _______ _______ _____ _____    ______ ____
ROOT
ATOM     13  C   UNL     1      -0.799   0.624  25.315  0.00  0.00    +0.096 C 
ATOM     14  C   UNL     1      -0.480   0.263  24.645  0.00  0.00    +0.028 C 
ATOM     15  C   UNL     1      -0.717  -0.528  24.645  0.00  0.00    +0.073 C 
ATOM     16  N   UNL     1      -1.182  -0.655  25.314  0.00  0.00    -0.268 NA
ATOM     28  C   UNL     1      -1.233   0.057  25.728  0.00  0.00    +0.082 C 
ENDROOT
BRANCH  13  11
ATOM      8  C   UNL     1      -0.840   2.740  25.592  0.00  0.00    +0.250 A 
ATOM      9  N   UNL     1      -0.265   2.518  26.140  0.00  0.00    -0.107 NA
ATOM     10  N   UNL     1      -0.179   1.698  26.104  0.00  0.00    -0.111 NA
ATOM     11  C   UNL     1      -0.702   1.414  25.532  0.00  0.00    +0.227 A 
ATOM     12  O   UNL     1      -1.110   2.058  25.217  0.00  0.00    -0.419 OA
BRANCH   8   5
ATOM      1  C   UNL     1      -1.877   5.818  25.007  0.00  0.00    +0.031 C 
ATOM      2  C   UNL     1      -1.618   5.048  25.153  0.00  0.00    -0.022 A 
ATOM      3  C   UNL     1      -0.872   4.807  24.893  0.00  0.00    -0.004 A 
ATOM      4  C   UNL     1      -0.613   4.038  25.040  0.00  0.00    +0.004 A 
ATOM      5  C   UNL     1      -1.099   3.510  25.446  0.00  0.00    +0.055 A 
ATOM      6  C   UNL     1      -1.844   3.750  25.706  0.00  0.00    +0.004 A 
ATOM      7  C   UNL     1      -2.103   4.519  25.559  0.00  0.00    -0.004 A 
ENDBRANCH   8   5
ENDBRANCH  13  11
BRANCH  16  17
ATOM     17  C   UNL     1      -1.535  -1.369  25.531  0.00  0.00    +0.099 C 
BRANCH  17  18
ATOM     18  C   UNL     1      -2.206  -1.636  25.133  0.00  0.00    -0.006 A 
ATOM     19  C   UNL     1      -2.135  -2.203  24.538  0.00  0.00    -0.003 A 
ATOM     20  C   UNL     1      -2.806  -2.470  24.140  0.00  0.00    +0.004 A 
ATOM     21  C   UNL     1      -3.549  -2.169  24.336  0.00  0.00    +0.071 A 
ATOM     22  C   UNL     1      -3.620  -1.602  24.930  0.00  0.00    +0.004 A 
ATOM     23  C   UNL     1      -2.949  -1.334  25.329  0.00  0.00    -0.003 A 
BRANCH  21  24
ATOM     24  C   UNL     1      -4.220  -2.435  23.937  0.00  0.00    +0.419 C 
ATOM     25  F   UNL     1      -4.892  -2.702  23.538  0.00  0.00    -0.166 F 
ATOM     26  F   UNL     1      -4.355  -1.673  23.654  0.00  0.00    -0.166 F 
ATOM     27  F   UNL     1      -4.085  -3.198  24.221  0.00  0.00    -0.166 F 
ENDBRANCH  21  24
ENDBRANCH  17  18
ENDBRANCH  16  17
TORSDOF 5
ENDMDL
MODEL 2
REMARK VINA RESULT:     -13.5      3.308      6.323
REMARK  Name = 
REMARK  5 active torsions:
REMARK  status: ('A' for Active; 'I' for Inactive)
REMARK    1  A    between atoms: C_5  and  C_8
REMARK    2  A    between atoms: C_11  and  C_13
REMARK    3  A    between atoms: N_16  and  C_17
REMARK    4  A    between atoms: C_17  and  C_18
REMARK    5  A    between atoms: C_21  and  C_24
REMARK                            x       y       z     vdW  Elec       q    Type
REMARK                         _______ _______ _______ _____ _____    ______ ____
ROOT
ATOM     13  C   UNL     1      -4.434   2.282  25.210  0.00  0.00    +0.096 C 
ATOM     14  C   UNL     1      -4.859   2.948  24.971  0.00  0.00    +0.028 C 
ATOM     15  C   UNL     1      -4.494   3.613  25.295  0.00  0.00    +0.073 C 
ATOM     16  N   UNL     1      -3.844   3.359  25.734  0.00  0.00    -0.268 NA
ATOM     28  C   UNL     1      -3.806   2.536  25.681  0.00  0.00    +0.082 C 
ENDROOT
BRANCH  13  11
ATOM      8  C   UNL     1      -4.484   0.187  24.806  0.00  0.00    +0.250 A 
ATOM      9  N   UNL     1      -5.254   0.406  24.609  0.00  0.00    -0.107 NA
ATOM     10  N   UNL     1      -5.330   1.218  24.736  0.00  0.00    -0.111 NA
ATOM     11  C   UNL     1      -4.606   1.500  25.012  0.00  0.00    +0.227 A 
ATOM     12  O   UNL     1      -4.083   0.863  25.055  0.00  0.00    -0.419 OA
BRANCH   8   5
ATOM      1  C   UNL     1      -3.228  -2.860  24.628  0.00  0.00    +0.031 C 
ATOM      2  C   UNL     1      -3.542  -2.098  24.673  0.00  0.00    -0.022 A 
ATOM      3  C   UNL     1      -3.958  -1.785  24.032  0.00  0.00    -0.004 A 
ATOM      4  C   UNL     1      -4.272  -1.023  24.076  0.00  0.00    +0.004 A 
ATOM      5  C   UNL     1      -4.170  -0.575  24.761  0.00  0.00    +0.055 A 
ATOM      6  C   UNL     1      -3.754  -0.887  25.401  0.00  0.00    +0.004 A 
ATOM      7  C   UNL     1      -3.440  -1.649  25.357  0.00  0.00    -0.004 A 
ENDBRANCH   8   5
ENDBRANCH  13  11
BRANCH  16  17
ATOM     17  C   UNL     1      -3.322   3.843  26.152  0.00  0.00    +0.099 C 
BRANCH  17  18
ATOM     18  C   UNL     1      -2.639   4.126  25.787  0.00  0.00    -0.006 A 
ATOM     19  C   UNL     1      -1.949   3.672  25.793  0.00  0.00    -0.003 A 
ATOM     20  C   UNL     1      -1.266   3.954  25.427  0.00  0.00    +0.004 A 
ATOM     21  C   UNL     1      -1.272   4.691  25.056  0.00  0.00    +0.071 A 
ATOM     22  C   UNL     1      -1.960   5.145  25.049  0.00  0.00    +0.004 A 
ATOM     23  C   UNL     1      -2.645   4.862  25.415  0.00  0.00    -0.003 A 
BRANCH  21  24
ATOM     24  C   UNL     1      -0.589   4.974  24.690  0.00  0.00    +0.419 C 
ATOM     25  F   UNL     1       0.095   5.256  24.324  0.00  0.00    -0.166 F 
ATOM     26  F   UNL     1      -0.490   4.247  24.312  0.00  0.00    -0.166 F 
ATOM     27  F   UNL     1      -0.687   5.700  25.068  0.00  0.00    -0.166 F 
ENDBRANCH  21  24
ENDBRANCH  17  18
ENDBRANCH  16  17
TORSDOF 5
ENDMDL
MODEL 3
REMARK VINA RESULT:     -13.0      2.633      5.826
REMARK  Name = 
REMARK  5 active torsions:
REMARK  status: ('A' for Active; 'I' for Inactive)
REMARK    1  A    between atoms: C_5  and  C_8
REMARK    2  A    between atoms: C_11  and  C_13
REMARK    3  A    between atoms: N_16  and  C_17
REMARK    4  A    between atoms: C_17  and  C_18
REMARK    5  A    between atoms: C_21  and  C_24
REMARK                            x       y       z     vdW  Elec       q    Type
REMARK                         _______ _______ _______ _____ _____    ______ ____
ROOT
ATOM     13  C   UNL     1      -0.939   0.556  25.162  0.00  0.00    +0.096 C 
ATOM     14  C   UNL     1      -0.427   0.693  24.530  0.00  0.00    +0.028 C 
ATOM     15  C   UNL     1      -0.047   1.413  24.660  0.00  0.00    +0.073 C 
ATOM     16  N   UNL     1      -0.324   1.722  25.373  0.00  0.00    -0.268 NA
ATOM     28  C   UNL     1      -0.876   1.193  25.683  0.00  0.00    +0.082 C 
ENDROOT
BRANCH  13  11
ATOM      8  C   UNL     1      -2.354  -1.037  25.033  0.00  0.00    +0.250 A 
ATOM      9  N   UNL     1      -2.012  -1.186  25.768  0.00  0.00    -0.107 NA
ATOM     10  N   UNL     1      -1.441  -0.608  25.907  0.00  0.00    -0.111 NA
ATOM     11  C   UNL     1      -1.429  -0.101  25.257  0.00  0.00    +0.227 A 
ATOM     12  O   UNL     1      -1.993  -0.366  24.716  0.00  0.00    -0.419 OA
BRANCH   8   5
ATOM      1  C   UNL     1      -4.742  -2.813  23.606  0.00  0.00    +0.031 C 
ATOM      2  C   UNL     1      -4.145  -2.369  23.963  0.00  0.00    -0.022 A 
ATOM      3  C   UNL     1      -4.203  -1.546  23.991  0.00  0.00    -0.004 A 
ATOM      4  C   UNL     1      -3.606  -1.102  24.348  0.00  0.00    +0.004 A 
ATOM      5  C   UNL     1      -2.951  -1.481  24.676  0.00  0.00    +0.055 A 
ATOM      6  C   UNL     1      -2.892  -2.303  24.648  0.00  0.00    +0.004 A 
ATOM      7  C   UNL     1      -3.489  -2.747  24.291  0.00  0.00    -0.004 A 
ENDBRANCH   8   5
ENDBRANCH  13  11
BRANCH  16  17
ATOM     17  C   UNL     1      -0.091   2.436  25.716  0.00  0.00    +0.099 C 
BRANCH  17  18
ATOM     18  C   UNL     1      -0.501   3.130  25.543  0.00  0.00    -0.006 A 
ATOM     19  C   UNL     1      -0.245   3.619  24.929  0.00  0.00    -0.003 A 
ATOM     20  C   UNL     1      -0.656   4.313  24.756  0.00  0.00    +0.004 A 
ATOM     21  C   UNL     1      -1.322   4.519  25.197  0.00  0.00    +0.071 A 
ATOM     22  C   UNL     1      -1.578   4.031  25.810  0.00  0.00    +0.004 A 
ATOM     23  C   UNL     1      -1.167   3.336  25.984  0.00  0.00    -0.003 A 
BRANCH  21  24
ATOM     24  C   UNL     1      -1.732   5.213  25.024  0.00  0.00    +0.419 C 
ATOM     25  F   UNL     1      -2.144   5.908  24.850  0.00  0.00    -0.166 F 
ATOM     26  F   UNL     1      -2.386   4.768  24.788  0.00  0.00    -0.166 F 
ATOM     27  F   UNL     1      -1.079   5.658  25.259  0.00  0.00    -0.166 F 
ENDBRANCH  21  24
ENDBRANCH  17  18
ENDBRANCH  16  17
TORSDOF 5
ENDMDL
MODEL 4
REMARK VINA RESULT:     -12.3      2.315      5.310
REMARK  Name = 
REMARK  5 active torsions:
REMARK  status: ('A' for Active; 'I' for Inactive)
REMARK    1  A    between atoms: C_5  and  C_8
REMARK    2  A    between atoms: C_11  and  C_13
REMARK    3  A    between atoms: N_16  and  C_17
REMARK    4  A    between atoms: C_17  and  C_18
REMARK    5  A    between atoms: C_21  and  C_24
REMARK                            x       y       z     vdW  Elec       q    Type
REMARK                         _______ _______ _______ _____ _____    ______ ____
ROOT
ATOM     13  C   UNL     1      -1.178   1.539  25.345  0.00  0.00    +0.096 C 
ATOM     14  C   UNL     1      -0.640   1.936  25.829  0.00  0.00    +0.028 C 
ATOM     15  C   UNL     1      -0.835   2.738  25.822  0.00  0.00    +0.073 C 
ATOM     16  N   UNL     1      -1.493   2.836  25.335  0.00  0.00    -0.268 NA
ATOM     28  C   UNL     1      -1.705   2.095  25.039  0.00  0.00    +0.082 C 
ENDROOT
BRANCH  13  11
ATOM      8  C   UNL     1      -1.614  -0.519  24.979  0.00  0.00    +0.250 A 
ATOM      9  N   UNL     1      -0.790  -0.520  24.940  0.00  0.00    -0.107 NA
ATOM     10  N   UNL     1      -0.526   0.250  25.073  0.00  0.00    -0.111 NA
ATOM     11  C   UNL     1      -1.187   0.728  25.193  0.00  0.00    +0.227 A 
ATOM     12  O   UNL     1      -1.859   0.253  25.135  0.00  0.00    -0.419 OA
BRANCH   8   5
ATOM      1  C   UNL     1      -3.581  -3.138  24.580  0.00  0.00    +0.031 C 
ATOM      2  C   UNL     1      -3.089  -2.483  24.680  0.00  0.00    -0.022 A 
ATOM      3  C   UNL     1      -2.285  -2.540  24.502  0.00  0.00    -0.004 A 
ATOM      4  C   UNL     1      -1.793  -1.885  24.601  0.00  0.00    +0.004 A 
ATOM      5  C   UNL     1      -2.105  -1.174  24.879  0.00  0.00    +0.055 A 
ATOM      6  C   UNL     1      -2.908  -1.117  25.057  0.00  0.00    +0.004 A 
ATOM      7  C   UNL     1      -3.400  -1.772  24.957  0.00  0.00    -0.004 A 
ENDBRANCH   8   5
ENDBRANCH  13  11
BRANCH  16  17
ATOM     17  C   UNL     1      -1.873   3.550  25.171  0.00  0.00    +0.099 C 
BRANCH  17  18
ATOM     18  C   UNL     1      -2.690   3.614  25.263  0.00  0.00    -0.006 A 
ATOM     19  C   UNL     1      -3.008   3.815  25.998  0.00  0.00    -0.003 A 
ATOM     20  C   UNL     1      -3.825   3.878  26.090  0.00  0.00    +0.004 A 
ATOM     21  C   UNL     1      -4.325   3.741  25.448  0.00  0.00    +0.071 A 
ATOM     22  C   UNL     1      -4.007   3.540  24.714  0.00  0.00    +0.004 A 
ATOM     23  C   UNL     1      -3.189   3.476  24.621  0.00  0.00    -0.003 A 
BRANCH  21  24
ATOM     24  C   UNL     1      -5.142   3.804  25.540  0.00  0.00    +0.419 C 
ATOM     25  F   UNL     1      -5.960   3.868  25.632  0.00  0.00    -0.166 F 
ATOM     26  F   UNL     1      -5.124   4.549  25.186  0.00  0.00    -0.166 F 
ATOM     27  F   UNL     1      -5.160   3.059  25.895  0.00  0.00    -0.166 F 
ENDBRANCH  21  24
ENDBRANCH  17  18
ENDBRANCH  16  17
TORSDOF 5
ENDMDL
