MODEL 1
REMARK VINA RESULT:     -12.8      0.000      0.000
REMARK  Name = 
REMARK  11 active torsions:
REMARK  status: ('A' for Active; 'I' for Inactive)
REMARK    1  A    between atoms: C_2  and  C_3
REMARK    2  A    between atoms: C_3  and  C_4
REMARK    3  A    between atoms: C_4  and  C_5
REMARK    4  A    between atoms: C_5  and  C_6
REMARK    5  A    between atoms: C_15  and  C_17
REMARK    6  A    between atoms: C_25  and  C_26
REMARK    7  A    between atoms: C_26  and  C_27
REMARK    8  A    between atoms: N_29  and  CA_30
REMARK    9  A    between atoms: CA_30  and  C_31
REMARK   10  A    between atoms: CA_30  and  CB_33
REMARK   11  A    between atoms: CB_33  and  CG_34
REMARK                            x       y       z     vdW  Elec       q    Type
REMARK                         _______ _______ _______ _____ _____    ______ ____
ROOT
ATOM      6  C   UNK A   0      -0.756   2.038  25.228  0.00  0.00    +0.247 C 
ATOM      7  O   UNK A   0      -0.350   1.328  25.333  0.00  0.00    -0.273 OA
ATOM      8  N   UNK A   0      -1.547   2.031  24.997  0.00  0.00    -0.154 NA
ATOM      9  C   UNK A   0      -1.933   1.312  24.872  0.00  0.00    +0.185 A 
ATOM     10  N   UNK A   0      -2.720   1.219  24.641  0.00  0.00    -0.227 NA
ATOM     11  C   UNK A   0      -2.874   0.410  24.582  0.00  0.00    +0.063 A 
ATOM     12  C   UNK A   0      -2.183   0.004  24.777  0.00  0.00    +0.023 A 
ATOM     13  C   UNK A   0      -2.172  -0.820  24.765  0.00  0.00    +0.034 C 
ATOM     14  C   UNK A   0      -2.852  -1.240  24.560  0.00  0.00    +0.010 C 
ATOM     15  C   UNK A   0      -2.841  -2.064  24.549  0.00  0.00    +0.059 C 
ATOM     16  C   UNK A   0      -2.062  -1.914  24.778  0.00  0.00    +0.005 C 
ATOM     19  C   UNK A   0      -3.521  -2.484  24.343  0.00  0.00    +0.154 C 
ATOM     20  O   UNK A   0      -3.510  -3.308  24.332  0.00  0.00    -0.223 OA
ATOM     21  C   UNK A   0      -4.212  -2.078  24.149  0.00  0.00    +0.033 C 
ATOM     22  C   UNK A   0      -4.224  -1.252  24.160  0.00  0.00    +0.003 C 
ATOM     23  C   UNK A   0      -3.543  -0.834  24.366  0.00  0.00    +0.006 C 
ATOM     24  C   UNK A   0      -4.235  -0.428  24.171  0.00  0.00    +0.000 C 
ATOM     25  C   UNK A   0      -3.555  -0.008  24.377  0.00  0.00    +0.050 C 
ATOM     37  S   UNK A   0      -1.601   0.562  24.956  0.00  0.00    -0.054 S 
ENDROOT
BRANCH  15  17
ATOM     17  C   UNK A   0      -2.559  -2.838  24.618  0.00  0.00    +0.184 C 
ATOM     18  O   UNK A   0      -1.748  -2.984  24.592  0.00  0.00    -0.220 OA
ENDBRANCH  15  17
BRANCH   6   5
ATOM      5  C   UNK A   0      -0.369   2.756  25.353  0.00  0.00    +0.087 C 
BRANCH   5   4
ATOM      4  C   UNK A   0      -0.582   3.421  24.914  0.00  0.00    +0.010 C 
BRANCH   4   3
ATOM      3  C   UNK A   0      -0.557   4.170  25.260  0.00  0.00    +0.001 C 
BRANCH   3   2
ATOM      1  C   UNK A   0      -1.239   5.403  25.024  0.00  0.00    +0.000 C 
ATOM      2  C   UNK A   0      -0.678   4.842  24.797  0.00  0.00    +0.000 C 
ENDBRANCH   3   2
ENDBRANCH   4   3
ENDBRANCH   5   4
ENDBRANCH   6   5
BRANCH  25  26
ATOM     26  C   UNK A   0      -4.245   0.397  24.183  0.00  0.00    +0.093 C 
BRANCH  26  27
ATOM     27  C   UNK A   0      -4.653   0.820  24.763  0.00  0.00    +0.242 C 
ATOM     28  O   UNK A   0      -4.693   0.530  25.534  0.00  0.00    -0.273 OA
ATOM     29  N   LEU A   1      -5.019   1.534  24.571  0.00  0.00    -0.204 NA
BRANCH  29  30
ATOM     30  CA  LEU A   1      -5.426   1.957  25.151  0.00  0.00    +0.128 C 
BRANCH  30  31
ATOM     31  C   LEU A   1      -6.225   1.805  25.289  0.00  0.00    +0.204 C 
ATOM     32  O   LEU A   1      -6.742   1.708  24.654  0.00  0.00    -0.219 OA
ENDBRANCH  30  31
BRANCH  30  33
ATOM     33  CB  LEU A   1      -5.034   2.533  25.593  0.00  0.00    +0.024 C 
BRANCH  33  34
ATOM     34  CG  LEU A   1      -5.180   3.333  25.449  0.00  0.00    +0.002 C 
ATOM     35  CD1 LEU A   1      -5.835   3.699  25.790  0.00  0.00    +0.000 C 
ATOM     36  CD2 LEU A   1      -4.670   3.765  24.966  0.00  0.00    +0.000 C 
ENDBRANCH  33  34
ENDBRANCH  30  33
ENDBRANCH  29  30
ENDBRANCH  26  27
ENDBRANCH  25  26
TORSDOF 11
ENDMDL
MODEL 2
REMARK VINA RESULT:     -11.8      2.387      3.128
REMARK  Name = 
REMARK  11 active torsions:
REMARK  status: ('A' for Active; 'I' for Inactive)
REMARK    1  A    between atoms: C_2  and  C_3
REMARK    2  A    between atoms: C_3  and  C_4
REMARK    3  A    between atoms: C_4  and  C_5
REMARK    4  A    between atoms: C_5  and  C_6
REMARK    5  A    between atoms: C_15  and  C_17
REMARK    6  A    between atoms: C_25  and  C_26
REMARK    7  A    between atoms: C_26  and  C_27
REMARK    8  A    between atoms: N_29  and  CA_30
REMARK    9  A    between atoms: CA_30  and  C_31
REMARK   10  A    between atoms: CA_30  and  CB_33
REMARK   11  A    between atoms: CB_33  and  CG_34
REMARK                            x       y       z     vdW  Elec       q    Type
REMARK                         _______ _______ _______ _____ _____    ______ ____
ROOT
ATOM      6  C   UNK A   0       1.286   0.405  23.264  0.00  0.00    +0.247 C 
ATOM      7  O   UNK A   0       1.171  -0.393  23.090  0.00  0.00    -0.273 OA
ATOM      8  N   UNK A   0       0.730   0.814  23.714  0.00  0.00    -0.154 NA
ATOM      9  C   UNK A   0       0.058   0.424  23.992  0.00  0.00    +0.185 A 
ATOM     10  N   UNK A   0      -0.544   0.759  24.448  0.00  0.00    -0.227 NA
ATOM     11  C   UNK A   0      -1.104   0.173  24.601  0.00  0.00    +0.063 A 
ATOM     12  C   UNK A   0      -0.849  -0.524  24.240  0.00  0.00    +0.023 A 
ATOM     13  C   UNK A   0      -1.304  -1.209  24.301  0.00  0.00    +0.034 C 
ATOM     14  C   UNK A   0      -2.013  -1.199  24.722  0.00  0.00    +0.010 C 
ATOM     15  C   UNK A   0      -2.468  -1.884  24.782  0.00  0.00    +0.059 C 
ATOM     16  C   UNK A   0      -1.840  -2.168  24.327  0.00  0.00    +0.005 C 
ATOM     19  C   UNK A   0      -3.177  -1.874  25.203  0.00  0.00    +0.154 C 
ATOM     20  O   UNK A   0      -3.631  -2.559  25.264  0.00  0.00    -0.223 OA
ATOM     21  C   UNK A   0      -3.432  -1.177  25.564  0.00  0.00    +0.033 C 
ATOM     22  C   UNK A   0      -2.977  -0.490  25.503  0.00  0.00    +0.003 C 
ATOM     23  C   UNK A   0      -2.268  -0.502  25.082  0.00  0.00    +0.006 C 
ATOM     24  C   UNK A   0      -2.523   0.195  25.443  0.00  0.00    +0.000 C 
ATOM     25  C   UNK A   0      -1.814   0.185  25.022  0.00  0.00    +0.050 C 
ATOM     37  S   UNK A   0      -0.131  -0.369  23.864  0.00  0.00    -0.054 S 
ENDROOT
BRANCH  15  17
ATOM     17  C   UNK A   0      -2.704  -2.670  24.684  0.00  0.00    +0.184 C 
ATOM     18  O   UNK A   0      -2.292  -3.162  24.167  0.00  0.00    -0.220 OA
ENDBRANCH  15  17
BRANCH   6   5
ATOM      5  C   UNK A   0       1.958   0.795  22.986  0.00  0.00    +0.087 C 
BRANCH   5   4
ATOM      4  C   UNK A   0       2.675   0.392  22.929  0.00  0.00    +0.010 C 
BRANCH   4   3
ATOM      3  C   UNK A   0       3.380   0.812  22.845  0.00  0.00    +0.001 C 
BRANCH   3   2
ATOM      1  C   UNK A   0       4.753   0.583  23.168  0.00  0.00    +0.000 C 
ATOM      2  C   UNK A   0       4.087   0.409  22.712  0.00  0.00    +0.000 C 
ENDBRANCH   3   2
ENDBRANCH   4   3
ENDBRANCH   5   4
ENDBRANCH   6   5
BRANCH  25  26
ATOM     26  C   UNK A   0      -2.068   0.881  25.382  0.00  0.00    +0.093 C 
BRANCH  26  27
ATOM     27  C   UNK A   0      -2.353   1.504  24.921  0.00  0.00    +0.242 C 
ATOM     28  O   UNK A   0      -2.673   1.353  24.176  0.00  0.00    -0.273 OA
ATOM     29  N   LEU A   1      -2.317   2.277  25.207  0.00  0.00    -0.204 NA
BRANCH  29  30
ATOM     30  CA  LEU A   1      -2.602   2.900  24.746  0.00  0.00    +0.128 C 
BRANCH  30  31
ATOM     31  C   LEU A   1      -3.392   2.910  24.509  0.00  0.00    +0.204 C 
ATOM     32  O   LEU A   1      -3.609   3.300  23.816  0.00  0.00    -0.219 OA
ENDBRANCH  30  31
BRANCH  30  33
ATOM     33  CB  LEU A   1      -2.096   3.512  24.523  0.00  0.00    +0.024 C 
BRANCH  33  34
ATOM     34  CG  LEU A   1      -1.806   4.034  25.093  0.00  0.00    +0.002 C 
ATOM     35  CD1 LEU A   1      -2.317   4.358  25.653  0.00  0.00    +0.000 C 
ATOM     36  CD2 LEU A   1      -1.005   4.232  25.101  0.00  0.00    +0.000 C 
ENDBRANCH  33  34
ENDBRANCH  30  33
ENDBRANCH  29  30
ENDBRANCH  26  27
ENDBRANCH  25  26
TORSDOF 11
ENDMDL
MODEL 3
REMARK VINA RESULT:     -11.7      2.202      4.460
REMARK  Name = 
REMARK  11 active torsions:
REMARK  status: ('A' for Active; 'I' for Inactive)
REMARK    1  A    between atoms: C_2  and  C_3
REMARK    2  A    between atoms: C_3  and  C_4
REMARK    3  A    between atoms: C_4  and  C_5
REMARK    4  A    between atoms: C_5  and  C_6
REMARK    5  A    between atoms: C_15  and  C_17
REMARK    6  A    between atoms: C_25  and  C_26
REMARK    7  A    between atoms: C_26  and  C_27
REMARK    8  A    between atoms: N_29  and  CA_30
REMARK    9  A    between atoms: CA_30  and  C_31
REMARK   10  A    between atoms: CA_30  and  CB_33
REMARK   11  A    between atoms: CB_33  and  CG_34
REMARK                            x       y       z     vdW  Elec       q    Type
REMARK                         _______ _______ _______ _____ _____    ______ ____
ROOT
ATOM      6  C   UNK A   0       0.581   0.910  23.715  0.00  0.00    +0.247 C 
ATOM      7  O   UNK A   0       0.685   1.620  24.121  0.00  0.00    -0.273 OA
ATOM      8  N   UNK A   0      -0.179   0.616  23.586  0.00  0.00    -0.154 NA
ATOM      9  C   UNK A   0      -0.834   1.032  23.864  0.00  0.00    +0.185 A 
ATOM     10  N   UNK A   0      -1.624   0.808  23.777  0.00  0.00    -0.227 NA
ATOM     11  C   UNK A   0      -2.094   1.383  24.137  0.00  0.00    +0.063 A 
ATOM     12  C   UNK A   0      -1.595   1.963  24.446  0.00  0.00    +0.023 A 
ATOM     13  C   UNK A   0      -1.913   2.613  24.841  0.00  0.00    +0.034 C 
ATOM     14  C   UNK A   0      -2.731   2.684  24.927  0.00  0.00    +0.010 C 
ATOM     15  C   UNK A   0      -3.049   3.334  25.322  0.00  0.00    +0.059 C 
ATOM     16  C   UNK A   0      -2.245   3.511  25.380  0.00  0.00    +0.005 C 
ATOM     19  C   UNK A   0      -3.867   3.405  25.408  0.00  0.00    +0.154 C 
ATOM     20  O   UNK A   0      -4.185   4.055  25.803  0.00  0.00    -0.223 OA
ATOM     21  C   UNK A   0      -4.366   2.825  25.099  0.00  0.00    +0.033 C 
ATOM     22  C   UNK A   0      -4.047   2.174  24.704  0.00  0.00    +0.003 C 
ATOM     23  C   UNK A   0      -3.230   2.104  24.618  0.00  0.00    +0.006 C 
ATOM     24  C   UNK A   0      -3.729   1.524  24.309  0.00  0.00    +0.000 C 
ATOM     25  C   UNK A   0      -2.911   1.453  24.222  0.00  0.00    +0.050 C 
ATOM     37  S   UNK A   0      -0.817   1.746  24.277  0.00  0.00    -0.054 S 
ENDROOT
BRANCH  15  17
ATOM     17  C   UNK A   0      -3.089   4.047  25.738  0.00  0.00    +0.184 C 
ATOM     18  O   UNK A   0      -2.400   4.477  25.882  0.00  0.00    -0.220 OA
ENDBRANCH  15  17
BRANCH   6   5
ATOM      5  C   UNK A   0       1.237   0.494  23.437  0.00  0.00    +0.087 C 
BRANCH   5   4
ATOM      4  C   UNK A   0       1.915   0.900  23.203  0.00  0.00    +0.010 C 
BRANCH   4   3
ATOM      3  C   UNK A   0       2.580   0.483  22.949  0.00  0.00    +0.001 C 
BRANCH   3   2
ATOM      1  C   UNK A   0       3.989   0.496  22.712  0.00  0.00    +0.000 C 
ATOM      2  C   UNK A   0       3.264   0.890  22.733  0.00  0.00    +0.000 C 
ENDBRANCH   3   2
ENDBRANCH   4   3
ENDBRANCH   5   4
ENDBRANCH   6   5
BRANCH  25  26
ATOM     26  C   UNK A   0      -3.410   0.874  23.914  0.00  0.00    +0.093 C 
BRANCH  26  27
ATOM     27  C   UNK A   0      -3.518   0.163  24.320  0.00  0.00    +0.242 C 
ATOM     28  O   UNK A   0      -3.667   0.171  25.132  0.00  0.00    -0.273 OA
ATOM     29  N   LEU A   1      -3.479  -0.553  23.914  0.00  0.00    -0.204 NA
BRANCH  29  30
ATOM     30  CA  LEU A   1      -3.588  -1.264  24.320  0.00  0.00    +0.128 C 
BRANCH  30  31
ATOM     31  C   LEU A   1      -4.284  -1.695  24.219  0.00  0.00    +0.204 C 
ATOM     32  O   LEU A   1      -4.625  -1.756  23.471  0.00  0.00    -0.219 OA
ENDBRANCH  30  31
BRANCH  30  33
ATOM     33  CB  LEU A   1      -3.000  -1.542  24.827  0.00  0.00    +0.024 C 
BRANCH  33  34
ATOM     34  CG  LEU A   1      -2.753  -2.329  24.780  0.00  0.00    +0.002 C 
ATOM     35  CD1 LEU A   1      -2.062  -2.520  24.373  0.00  0.00    +0.000 C 
ATOM     36  CD2 LEU A   1      -3.199  -2.923  25.139  0.00  0.00    +0.000 C 
ENDBRANCH  33  34
ENDBRANCH  30  33
ENDBRANCH  29  30
ENDBRANCH  26  27
ENDBRANCH  25  26
TORSDOF 11
ENDMDL
MODEL 4
REMARK VINA RESULT:     -11.1      1.505      4.856
REMARK  Name = 
REMARK  11 active torsions:
REMARK  status: ('A' for Active; 'I' for Inactive)
REMARK    1  A    between atoms: C_2  and  C_3
REMARK    2  A    between atoms: C_3  and  C_4
REMARK    3  A    between atoms: C_4  and  C_5
REMARK    4  A    between atoms: C_5  and  C_6
REMARK    5  A    between atoms: C_15  and  C_17
REMARK    6  A    between atoms: C_25  and  C_26
REMARK    7  A    between atoms: C_26  and  C_27
REMARK    8  A    between atoms: N_29  and  CA_30
REMARK    9  A    between atoms: CA_30  and  C_31
REMARK   10  A    between atoms: CA_30  and  CB_33
REMARK   11  A    between atoms: CB_33  and  CG_34
REMARK                            x       y       z     vdW  Elec       q    Type
REMARK                         _______ _______ _______ _____ _____    ______ ____
ROOT
ATOM      6  C   UNK A   0      -1.831  -0.275  24.960  0.00  0.00    +0.247 C 
ATOM      7  O   UNK A   0      -1.124  -0.023  24.619  0.00  0.00    -0.273 OA
ATOM      8  N   UNK A   0      -2.363   0.278  25.261  0.00  0.00    -0.154 NA
ATOM      9  C   UNK A   0      -2.187   1.083  25.223  0.00  0.00    +0.185 A 
ATOM     10  N   UNK A   0      -2.664   1.697  25.501  0.00  0.00    -0.227 NA
ATOM     11  C   UNK A   0      -2.276   2.410  25.350  0.00  0.00    +0.063 A 
ATOM     12  C   UNK A   0      -1.559   2.236  24.979  0.00  0.00    +0.023 A 
ATOM     13  C   UNK A   0      -1.050   2.846  24.760  0.00  0.00    +0.034 C 
ATOM     14  C   UNK A   0      -1.255   3.630  24.912  0.00  0.00    +0.010 C 
ATOM     15  C   UNK A   0      -0.746   4.240  24.694  0.00  0.00    +0.059 C 
ATOM     16  C   UNK A   0      -0.309   3.590  24.434  0.00  0.00    +0.005 C 
ATOM     19  C   UNK A   0      -0.951   5.025  24.846  0.00  0.00    +0.154 C 
ATOM     20  O   UNK A   0      -0.441   5.635  24.628  0.00  0.00    -0.223 OA
ATOM     21  C   UNK A   0      -1.667   5.199  25.217  0.00  0.00    +0.033 C 
ATOM     22  C   UNK A   0      -2.178   4.588  25.436  0.00  0.00    +0.003 C 
ATOM     23  C   UNK A   0      -1.971   3.804  25.283  0.00  0.00    +0.006 C 
ATOM     24  C   UNK A   0      -2.688   3.978  25.654  0.00  0.00    +0.000 C 
ATOM     25  C   UNK A   0      -2.482   3.193  25.502  0.00  0.00    +0.050 C 
ATOM     37  S   UNK A   0      -1.505   1.416  24.901  0.00  0.00    -0.054 S 
ENDROOT
BRANCH  15  17
ATOM     17  C   UNK A   0      -0.083   4.625  24.385  0.00  0.00    +0.184 C 
ATOM     18  O   UNK A   0       0.347   4.277  23.773  0.00  0.00    -0.220 OA
ENDBRANCH  15  17
BRANCH   6   5
ATOM      5  C   UNK A   0      -2.007  -1.080  24.998  0.00  0.00    +0.087 C 
BRANCH   5   4
ATOM      4  C   UNK A   0      -2.686  -1.372  24.632  0.00  0.00    +0.010 C 
BRANCH   4   3
ATOM      3  C   UNK A   0      -2.831  -2.184  24.620  0.00  0.00    +0.001 C 
BRANCH   3   2
ATOM      1  C   UNK A   0      -3.966  -2.780  23.988  0.00  0.00    +0.000 C 
ATOM      2  C   UNK A   0      -3.606  -2.465  24.660  0.00  0.00    +0.000 C 
ENDBRANCH   3   2
ENDBRANCH   4   3
ENDBRANCH   5   4
ENDBRANCH   6   5
BRANCH  25  26
ATOM     26  C   UNK A   0      -3.197   3.367  25.873  0.00  0.00    +0.093 C 
BRANCH  26  27
ATOM     27  C   UNK A   0      -3.907   3.292  25.457  0.00  0.00    +0.242 C 
ATOM     28  O   UNK A   0      -3.923   3.423  24.642  0.00  0.00    -0.273 OA
ATOM     29  N   LEU A   1      -4.599   3.088  25.856  0.00  0.00    -0.204 NA
BRANCH  29  30
ATOM     30  CA  LEU A   1      -5.308   3.013  25.440  0.00  0.00    +0.128 C 
BRANCH  30  31
ATOM     31  C   LEU A   1      -5.840   3.643  25.415  0.00  0.00    +0.204 C 
ATOM     32  O   LEU A   1      -5.882   4.172  26.046  0.00  0.00    -0.219 OA
ENDBRANCH  30  31
BRANCH  30  33
ATOM     33  CB  LEU A   1      -5.484   2.308  25.049  0.00  0.00    +0.024 C 
BRANCH  33  34
ATOM     34  CG  LEU A   1      -6.139   1.862  25.280  0.00  0.00    +0.002 C 
ATOM     35  CD1 LEU A   1      -6.749   1.718  24.743  0.00  0.00    +0.000 C 
ATOM     36  CD2 LEU A   1      -6.183   1.559  26.046  0.00  0.00    +0.000 C 
ENDBRANCH  33  34
ENDBRANCH  30  33
ENDBRANCH  29  30
ENDBRANCH  26  27
ENDBRANCH  25  26
TORSDOF 11
ENDMDL
MODEL 5
REMARK VINA RESULT:     -10.9      0.872      3.612
REMARK  Name = 
REMARK  11 active torsions:
REMARK  status: ('A' for Active; 'I' for Inactive)
REMARK    1  A    between atoms: C_2  and  C_3
REMARK    2  A    between atoms: C_3  and  C_4
REMARK    3  A    between atoms: C_4  and  C_5
REMARK    4  A    between atoms: C_5  and  C_6
REMARK    5  A    between atoms: C_15  and  C_17
REMARK    6  A    between atoms: C_25  and  C_26
REMARK    7  A    between atoms: C_26  and  C_27
REMARK    8  A    between atoms: N_29  and  CA_30
REMARK    9  A    between atoms: CA_30  and  C_31
REMARK   10  A    between atoms: CA_30  and  CB_33
REMARK   11  A    between atoms: CB_33  and  CG_34
REMARK                            x       y       z     vdW  Elec       q    Type
REMARK                         _______ _______ _______ _____ _____    ______ ____
ROOT
ATOM      6  C   UNK A   0      -5.282   1.819  25.044  0.00  0.00    +0.247 C 
ATOM      7  O   UNK A   0      -5.579   1.055  25.133  0.00  0.00    -0.273 OA
ATOM      8  N   UNK A   0      -4.479   1.935  24.899  0.00  0.00    -0.154 NA
ATOM      9  C   UNK A   0      -3.972   1.287  24.842  0.00  0.00    +0.185 A 
ATOM     10  N   UNK A   0      -3.160   1.317  24.699  0.00  0.00    -0.227 NA
ATOM     11  C   UNK A   0      -2.874   0.543  24.687  0.00  0.00    +0.063 A 
ATOM     12  C   UNK A   0      -3.509   0.035  24.823  0.00  0.00    +0.023 A 
ATOM     13  C   UNK A   0      -3.388  -0.780  24.841  0.00  0.00    +0.034 C 
ATOM     14  C   UNK A   0      -2.631  -1.089  24.725  0.00  0.00    +0.010 C 
ATOM     15  C   UNK A   0      -2.510  -1.904  24.743  0.00  0.00    +0.059 C 
ATOM     16  C   UNK A   0      -3.323  -1.877  24.884  0.00  0.00    +0.005 C 
ATOM     19  C   UNK A   0      -1.753  -2.212  24.627  0.00  0.00    +0.154 C 
ATOM     20  O   UNK A   0      -1.632  -3.027  24.645  0.00  0.00    -0.223 OA
ATOM     21  C   UNK A   0      -1.118  -1.703  24.491  0.00  0.00    +0.033 C 
ATOM     22  C   UNK A   0      -1.239  -0.887  24.472  0.00  0.00    +0.003 C 
ATOM     23  C   UNK A   0      -1.996  -0.580  24.589  0.00  0.00    +0.006 C 
ATOM     24  C   UNK A   0      -1.361  -0.071  24.454  0.00  0.00    +0.000 C 
ATOM     25  C   UNK A   0      -2.117   0.237  24.570  0.00  0.00    +0.050 C 
ATOM     37  S   UNK A   0      -4.188   0.494  24.918  0.00  0.00    -0.054 S 
ENDROOT
BRANCH  15  17
ATOM     17  C   UNK A   0      -2.671  -2.711  24.811  0.00  0.00    +0.184 C 
ATOM     18  O   UNK A   0      -3.447  -2.968  24.924  0.00  0.00    -0.220 OA
ENDBRANCH  15  17
BRANCH   6   5
ATOM      5  C   UNK A   0      -5.789   2.467  25.101  0.00  0.00    +0.087 C 
BRANCH   5   4
ATOM      4  C   UNK A   0      -5.550   3.144  25.507  0.00  0.00    +0.010 C 
BRANCH   4   3
ATOM      3  C   UNK A   0      -6.045   3.803  25.539  0.00  0.00    +0.001 C 
BRANCH   3   2
ATOM      1  C   UNK A   0      -6.146   5.228  25.485  0.00  0.00    +0.000 C 
ATOM      2  C   UNK A   0      -5.730   4.548  25.700  0.00  0.00    +0.000 C 
ENDBRANCH   3   2
ENDBRANCH   4   3
ENDBRANCH   5   4
ENDBRANCH   6   5
BRANCH  25  26
ATOM     26  C   UNK A   0      -1.483   0.744  24.435  0.00  0.00    +0.093 C 
BRANCH  26  27
ATOM     27  C   UNK A   0      -1.197   1.221  25.046  0.00  0.00    +0.242 C 
ATOM     28  O   UNK A   0      -1.151   0.922  25.814  0.00  0.00    -0.273 OA
ATOM     29  N   LEU A   1      -0.959   1.994  24.889  0.00  0.00    -0.204 NA
BRANCH  29  30
ATOM     30  CA  LEU A   1      -0.673   2.470  25.500  0.00  0.00    +0.128 C 
BRANCH  30  31
ATOM     31  C   LEU A   1       0.055   2.301  25.850  0.00  0.00    +0.204 C 
ATOM     32  O   LEU A   1       0.180   2.475  26.646  0.00  0.00    -0.219 OA
ENDBRANCH  30  31
BRANCH  30  33
ATOM     33  CB  LEU A   1      -1.116   3.115  25.760  0.00  0.00    +0.024 C 
BRANCH  33  34
ATOM     34  CG  LEU A   1      -1.129   3.812  25.318  0.00  0.00    +0.002 C 
ATOM     35  CD1 LEU A   1      -1.785   4.310  25.353  0.00  0.00    +0.000 C 
ATOM     36  CD2 LEU A   1      -0.485   4.010  24.841  0.00  0.00    +0.000 C 
ENDBRANCH  33  34
ENDBRANCH  30  33
ENDBRANCH  29  30
ENDBRANCH  26  27
ENDBRANCH  25  26
TORSDOF 11
ENDMDL
MODEL 6
REMARK VINA RESULT:     -10.8      1.432      5.282
REMARK  Name = 
REMARK  11 active torsions:
REMARK  status: ('A' for Active; 'I' for Inactive)
REMARK    1  A    between atoms: C_2  and  C_3
REMARK    2  A    between atoms: C_3  and  C_4
REMARK    3  A    between atoms: C_4  and  C_5
REMARK    4  A    between atoms: C_5  and  C_6
REMARK    5  A    between atoms: C_15  and  C_17
REMARK    6  A    between atoms: C_25  and  C_26
REMARK    7  A    between atoms: C_26  and  C_27
REMARK    8  A    between atoms: N_29  and  CA_30
REMARK    9  A    between atoms: CA_30  and  C_31
REMARK   10  A    between atoms: CA_30  and  CB_33
REMARK   11  A    between atoms: CB_33  and  CG_34
REMARK                            x       y       z     vdW  Elec       q    Type
REMARK                         _______ _______ _______ _____ _____    ______ ____
ROOT
ATOM      6  C   UNK A   0      -3.929  -1.245  24.220  0.00  0.00    +0.247 C 
ATOM      7  O   UNK A   0      -4.633  -1.150  24.638  0.00  0.00    -0.273 OA
ATOM      8  N   UNK A   0      -3.478  -0.586  24.016  0.00  0.00    -0.154 NA
ATOM      9  C   UNK A   0      -3.732   0.169  24.230  0.00  0.00    +0.185 A 
ATOM     10  N   UNK A   0      -3.340   0.877  24.064  0.00  0.00    -0.227 NA
ATOM     11  C   UNK A   0      -3.788   1.495  24.379  0.00  0.00    +0.063 A 
ATOM     12  C   UNK A   0      -4.455   1.170  24.738  0.00  0.00    +0.023 A 
ATOM     13  C   UNK A   0      -5.008   1.661  25.103  0.00  0.00    +0.034 C 
ATOM     14  C   UNK A   0      -4.894   2.478  25.109  0.00  0.00    +0.010 C 
ATOM     15  C   UNK A   0      -5.447   2.969  25.473  0.00  0.00    +0.059 C 
ATOM     16  C   UNK A   0      -5.796   2.234  25.612  0.00  0.00    +0.005 C 
ATOM     19  C   UNK A   0      -5.333   3.787  25.479  0.00  0.00    +0.154 C 
ATOM     20  O   UNK A   0      -5.886   4.278  25.844  0.00  0.00    -0.223 OA
ATOM     21  C   UNK A   0      -4.666   4.112  25.119  0.00  0.00    +0.033 C 
ATOM     22  C   UNK A   0      -4.112   3.621  24.754  0.00  0.00    +0.003 C 
ATOM     23  C   UNK A   0      -4.227   2.804  24.749  0.00  0.00    +0.006 C 
ATOM     24  C   UNK A   0      -3.559   3.130  24.389  0.00  0.00    +0.000 C 
ATOM     25  C   UNK A   0      -3.673   2.312  24.384  0.00  0.00    +0.050 C 
ATOM     37  S   UNK A   0      -4.420   0.350  24.646  0.00  0.00    -0.054 S 
ENDROOT
BRANCH  15  17
ATOM     17  C   UNK A   0      -6.122   3.206  25.887  0.00  0.00    +0.184 C 
ATOM     18  O   UNK A   0      -6.447   2.711  26.461  0.00  0.00    -0.220 OA
ENDBRANCH  15  17
BRANCH   6   5
ATOM      5  C   UNK A   0      -3.676  -2.000  24.006  0.00  0.00    +0.087 C 
BRANCH   5   4
ATOM      4  C   UNK A   0      -3.175  -2.425  24.506  0.00  0.00    +0.010 C 
BRANCH   4   3
ATOM      3  C   UNK A   0      -2.494  -2.780  24.205  0.00  0.00    +0.001 C 
BRANCH   3   2
ATOM      1  C   UNK A   0      -1.116  -2.706  24.573  0.00  0.00    +0.000 C 
ATOM      2  C   UNK A   0      -1.878  -2.988  24.713  0.00  0.00    +0.000 C 
ENDBRANCH   3   2
ENDBRANCH   4   3
ENDBRANCH   5   4
ENDBRANCH   6   5
BRANCH  25  26
ATOM     26  C   UNK A   0      -3.007   2.637  24.025  0.00  0.00    +0.093 C 
BRANCH  26  27
ATOM     27  C   UNK A   0      -2.268   2.569  24.387  0.00  0.00    +0.242 C 
ATOM     28  O   UNK A   0      -2.208   2.590  25.209  0.00  0.00    -0.273 OA
ATOM     29  N   LEU A   1      -1.590   2.480  23.925  0.00  0.00    -0.204 NA
BRANCH  29  30
ATOM     30  CA  LEU A   1      -0.851   2.412  24.287  0.00  0.00    +0.128 C 
BRANCH  30  31
ATOM     31  C   LEU A   1      -0.395   3.086  24.426  0.00  0.00    +0.204 C 
ATOM     32  O   LEU A   1      -0.359   3.682  23.858  0.00  0.00    -0.219 OA
ENDBRANCH  30  31
BRANCH  30  33
ATOM     33  CB  LEU A   1      -0.568   1.670  24.510  0.00  0.00    +0.024 C 
BRANCH  33  34
ATOM     34  CG  LEU A   1       0.067   1.332  24.106  0.00  0.00    +0.002 C 
ATOM     35  CD1 LEU A   1       0.833   1.608  24.238  0.00  0.00    +0.000 C 
ATOM     36  CD2 LEU A   1      -0.063   0.719  23.569  0.00  0.00    +0.000 C 
ENDBRANCH  33  34
ENDBRANCH  30  33
ENDBRANCH  29  30
ENDBRANCH  26  27
ENDBRANCH  25  26
TORSDOF 11
ENDMDL
