MODEL 1
REMARK VINA RESULT:     -11.5      0.000      0.000
REMARK  Name = 
REMARK  5 active torsions:
REMARK  status: ('A' for Active; 'I' for Inactive)
REMARK    1  A    between atoms: C_5  and  C_6
REMARK    2  A    between atoms: C_6  and  C_7
REMARK    3  A    between atoms: C_16  and  C_17
REMARK    4  A    between atoms: C_17  and  N_18
REMARK    5  A    between atoms: N_21  and  C_22
REMARK                            x       y       z     vdW  Elec       q    Type
REMARK                         _______ _______ _______ _____ _____    ______ ____
ROOT
ATOM      1  O   UNL     1      -5.926   2.568  25.280  0.00  0.00    -0.218 OA
ATOM      2  C   UNL     1      -5.106   2.653  25.287  0.00  0.00    +0.213 C 
ATOM      3  C   UNL     1      -4.691   3.360  25.387  0.00  0.00    +0.212 C 
ATOM      4  O   UNL     1      -5.026   4.105  25.498  0.00  0.00    -0.218 OA
ATOM      5  C   UNL     1      -3.885   3.189  25.357  0.00  0.00    +0.157 C 
ATOM     15  O   UNL     1      -3.800   2.377  25.238  0.00  0.00    -0.351 OA
ATOM     16  C   UNL     1      -4.554   2.046  25.195  0.00  0.00    +0.170 C 
ENDROOT
BRANCH   5   6
ATOM      6  C   UNL     1      -3.271   3.736  25.433  0.00  0.00    +0.117 C 
BRANCH   6   7
ATOM      7  C   UNL     1      -2.487   3.482  25.405  0.00  0.00    +0.228 C 
ATOM      8  O   UNL     1      -2.306   2.687  25.527  0.00  0.00    -0.275 OA
ATOM      9  N   UNL     1      -1.883   4.024  25.255  0.00  0.00    -0.274 N 
ATOM     10  C   UNL     1      -1.099   3.770  25.227  0.00  0.00    +0.125 C 
ATOM     11  C   UNL     1      -0.494   4.312  25.077  0.00  0.00    +0.164 C 
ATOM     12  O   UNL     1      -0.675   5.107  24.955  0.00  0.00    -0.350 OA
ATOM     13  C   UNL     1      -1.460   5.361  24.983  0.00  0.00    +0.164 C 
ATOM     14  C   UNL     1      -2.063   4.819  25.133  0.00  0.00    +0.125 C 
ENDBRANCH   6   7
ENDBRANCH   5   6
BRANCH  16  17
ATOM     17  C   UNL     1      -4.727   1.247  25.080  0.00  0.00    +0.149 C 
BRANCH  17  18
ATOM     18  N   UNL     1      -4.280   0.801  24.548  0.00  0.00    -0.185 NA
ATOM     19  C   UNL     1      -4.218  -0.015  24.647  0.00  0.00    +0.339 C 
ATOM     20  O   UNL     1      -4.601  -0.385  25.275  0.00  0.00    -0.249 OA
ATOM     21  N   UNL     1      -3.770  -0.461  24.115  0.00  0.00    -0.189 NA
BRANCH  21  22
ATOM     22  C   UNL     1      -3.708  -1.278  24.214  0.00  0.00    +0.097 C 
ATOM     23  C   UNL     1      -3.115  -1.591  24.695  0.00  0.00    +0.022 C 
ATOM     24  C   UNL     1      -3.053  -2.408  24.794  0.00  0.00    +0.002 C 
ATOM     25  C   UNL     1      -3.582  -2.911  24.412  0.00  0.00    +0.000 C 
ATOM     26  C   UNL     1      -4.175  -2.599  23.931  0.00  0.00    +0.002 C 
ATOM     27  C   UNL     1      -4.237  -1.781  23.832  0.00  0.00    +0.022 C 
ENDBRANCH  21  22
ENDBRANCH  17  18
ENDBRANCH  16  17
TORSDOF 5
ENDMDL
MODEL 2
REMARK VINA RESULT:     -10.3      1.014      5.333
REMARK  Name = 
REMARK  5 active torsions:
REMARK  status: ('A' for Active; 'I' for Inactive)
REMARK    1  A    between atoms: C_5  and  C_6
REMARK    2  A    between atoms: C_6  and  C_7
REMARK    3  A    between atoms: C_16  and  C_17
REMARK    4  A    between atoms: C_17  and  N_18
REMARK    5  A    between atoms: N_21  and  C_22
REMARK                            x       y       z     vdW  Elec       q    Type
REMARK                         _______ _______ _______ _____ _____    ______ ____
ROOT
ATOM      1  O   UNL     1      -5.827   2.611  25.210  0.00  0.00    -0.218 OA
ATOM      2  C   UNL     1      -5.308   2.001  25.011  0.00  0.00    +0.213 C 
ATOM      3  C   UNL     1      -5.488   1.196  24.994  0.00  0.00    +0.212 C 
ATOM      4  O   UNL     1      -6.219   0.859  25.173  0.00  0.00    -0.218 OA
ATOM      5  C   UNL     1      -4.807   0.788  24.767  0.00  0.00    +0.157 C 
ATOM     15  O   UNL     1      -4.207   1.341  24.644  0.00  0.00    -0.351 OA
ATOM     16  C   UNL     1      -4.516   2.090  24.795  0.00  0.00    +0.170 C 
ENDROOT
BRANCH   5   6
ATOM      6  C   UNL     1      -4.740  -0.030  24.679  0.00  0.00    +0.117 C 
BRANCH   6   7
ATOM      7  C   UNL     1      -4.114  -0.433  25.033  0.00  0.00    +0.228 C 
ATOM      8  O   UNL     1      -3.705  -0.089  25.662  0.00  0.00    -0.275 OA
ATOM      9  N   UNL     1      -3.896  -1.180  24.759  0.00  0.00    -0.274 N 
ATOM     10  C   UNL     1      -3.269  -1.583  25.113  0.00  0.00    +0.125 C 
ATOM     11  C   UNL     1      -3.051  -2.330  24.839  0.00  0.00    +0.164 C 
ATOM     12  O   UNL     1      -3.460  -2.674  24.210  0.00  0.00    -0.350 OA
ATOM     13  C   UNL     1      -4.087  -2.271  23.856  0.00  0.00    +0.164 C 
ATOM     14  C   UNL     1      -4.304  -1.524  24.130  0.00  0.00    +0.125 C 
ENDBRANCH   6   7
ENDBRANCH   5   6
BRANCH  16  17
ATOM     17  C   UNL     1      -4.106   2.804  24.739  0.00  0.00    +0.149 C 
BRANCH  17  18
ATOM     18  N   UNL     1      -3.436   2.932  25.204  0.00  0.00    -0.185 NA
ATOM     19  C   UNL     1      -2.875   3.490  24.972  0.00  0.00    +0.339 C 
ATOM     20  O   UNL     1      -2.983   3.920  24.277  0.00  0.00    -0.249 OA
ATOM     21  N   UNL     1      -2.205   3.618  25.437  0.00  0.00    -0.189 NA
BRANCH  21  22
ATOM     22  C   UNL     1      -1.644   4.176  25.205  0.00  0.00    +0.097 C 
ATOM     23  C   UNL     1      -1.802   4.982  25.295  0.00  0.00    +0.022 C 
ATOM     24  C   UNL     1      -1.240   5.540  25.064  0.00  0.00    +0.002 C 
ATOM     25  C   UNL     1      -0.522   5.294  24.742  0.00  0.00    +0.000 C 
ATOM     26  C   UNL     1      -0.364   4.490  24.652  0.00  0.00    +0.002 C 
ATOM     27  C   UNL     1      -0.926   3.931  24.884  0.00  0.00    +0.022 C 
ENDBRANCH  21  22
ENDBRANCH  17  18
ENDBRANCH  16  17
TORSDOF 5
ENDMDL
MODEL 3
REMARK VINA RESULT:     -10.2      2.070      3.214
REMARK  Name = 
REMARK  5 active torsions:
REMARK  status: ('A' for Active; 'I' for Inactive)
REMARK    1  A    between atoms: C_5  and  C_6
REMARK    2  A    between atoms: C_6  and  C_7
REMARK    3  A    between atoms: C_16  and  C_17
REMARK    4  A    between atoms: C_17  and  N_18
REMARK    5  A    between atoms: N_21  and  C_22
REMARK                            x       y       z     vdW  Elec       q    Type
REMARK                         _______ _______ _______ _____ _____    ______ ____
ROOT
ATOM      1  O   UNL     1       0.756   0.423  23.623  0.00  0.00    -0.218 OA
ATOM      2  C   UNL     1       0.275   0.923  24.069  0.00  0.00    +0.213 C 
ATOM      3  C   UNL     1       0.448   1.702  24.282  0.00  0.00    +0.212 C 
ATOM      4  O   UNL     1       1.134   2.116  24.086  0.00  0.00    -0.218 OA
ATOM      5  C   UNL     1      -0.185   1.992  24.725  0.00  0.00    +0.157 C 
ATOM     15  O   UNL     1      -0.749   1.393  24.785  0.00  0.00    -0.351 OA
ATOM     16  C   UNL     1      -0.466   0.733  24.380  0.00  0.00    +0.170 C 
ENDROOT
BRANCH   5   6
ATOM      6  C   UNL     1      -0.242   2.749  25.050  0.00  0.00    +0.117 C 
BRANCH   6   7
ATOM      7  C   UNL     1      -0.914   2.964  25.476  0.00  0.00    +0.228 C 
ATOM      8  O   UNL     1      -1.291   2.413  25.959  0.00  0.00    -0.275 OA
ATOM      9  N   UNL     1      -1.209   3.733  25.420  0.00  0.00    -0.274 N 
ATOM     10  C   UNL     1      -1.881   3.949  25.846  0.00  0.00    +0.125 C 
ATOM     11  C   UNL     1      -2.177   4.717  25.789  0.00  0.00    +0.164 C 
ATOM     12  O   UNL     1      -1.800   5.269  25.306  0.00  0.00    -0.350 OA
ATOM     13  C   UNL     1      -1.127   5.053  24.879  0.00  0.00    +0.164 C 
ATOM     14  C   UNL     1      -0.832   4.285  24.936  0.00  0.00    +0.125 C 
ENDBRANCH   6   7
ENDBRANCH   5   6
BRANCH  16  17
ATOM     17  C   UNL     1      -0.854   0.009  24.300  0.00  0.00    +0.149 C 
BRANCH  17  18
ATOM     18  N   UNL     1      -1.617  -0.084  24.600  0.00  0.00    -0.185 NA
ATOM     19  C   UNL     1      -2.045  -0.768  24.429  0.00  0.00    +0.339 C 
ATOM     20  O   UNL     1      -1.711  -1.358  23.961  0.00  0.00    -0.249 OA
ATOM     21  N   UNL     1      -2.809  -0.862  24.729  0.00  0.00    -0.189 NA
BRANCH  21  22
ATOM     22  C   UNL     1      -3.237  -1.546  24.558  0.00  0.00    +0.097 C 
ATOM     23  C   UNL     1      -3.818  -1.533  23.972  0.00  0.00    +0.022 C 
ATOM     24  C   UNL     1      -4.246  -2.218  23.801  0.00  0.00    +0.002 C 
ATOM     25  C   UNL     1      -4.094  -2.913  24.216  0.00  0.00    +0.000 C 
ATOM     26  C   UNL     1      -3.514  -2.926  24.802  0.00  0.00    +0.002 C 
ATOM     27  C   UNL     1      -3.085  -2.242  24.973  0.00  0.00    +0.022 C 
ENDBRANCH  21  22
ENDBRANCH  17  18
ENDBRANCH  16  17
TORSDOF 5
ENDMDL
MODEL 4
REMARK VINA RESULT:      -9.8      2.384      6.225
REMARK  Name = 
REMARK  5 active torsions:
REMARK  status: ('A' for Active; 'I' for Inactive)
REMARK    1  A    between atoms: C_5  and  C_6
REMARK    2  A    between atoms: C_6  and  C_7
REMARK    3  A    between atoms: C_16  and  C_17
REMARK    4  A    between atoms: C_17  and  N_18
REMARK    5  A    between atoms: N_21  and  C_22
REMARK                            x       y       z     vdW  Elec       q    Type
REMARK                         _______ _______ _______ _____ _____    ______ ____
ROOT
ATOM      1  O   UNL     1       0.903   0.508  23.319  0.00  0.00    -0.218 OA
ATOM      2  C   UNL     1       0.234   0.239  23.721  0.00  0.00    +0.213 C 
ATOM      3  C   UNL     1       0.063  -0.546  23.909  0.00  0.00    +0.212 C 
ATOM      4  O   UNL     1       0.532  -1.200  23.728  0.00  0.00    -0.218 OA
ATOM      5  C   UNL     1      -0.658  -0.561  24.309  0.00  0.00    +0.157 C 
ATOM     15  O   UNL     1      -0.933   0.214  24.368  0.00  0.00    -0.351 OA
ATOM     16  C   UNL     1      -0.382   0.709  24.005  0.00  0.00    +0.170 C 
ENDROOT
BRANCH   5   6
ATOM      6  C   UNL     1      -1.038  -1.235  24.599  0.00  0.00    +0.117 C 
BRANCH   6   7
ATOM      7  C   UNL     1      -1.654  -1.159  25.142  0.00  0.00    +0.228 C 
ATOM      8  O   UNL     1      -1.599  -0.610  25.754  0.00  0.00    -0.275 OA
ATOM      9  N   UNL     1      -2.325  -1.634  25.072  0.00  0.00    -0.274 N 
ATOM     10  C   UNL     1      -2.941  -1.558  25.615  0.00  0.00    +0.125 C 
ATOM     11  C   UNL     1      -3.613  -2.033  25.546  0.00  0.00    +0.164 C 
ATOM     12  O   UNL     1      -3.668  -2.582  24.933  0.00  0.00    -0.350 OA
ATOM     13  C   UNL     1      -3.051  -2.658  24.390  0.00  0.00    +0.164 C 
ATOM     14  C   UNL     1      -2.380  -2.183  24.460  0.00  0.00    +0.125 C 
ENDBRANCH   6   7
ENDBRANCH   5   6
BRANCH  16  17
ATOM     17  C   UNL     1      -0.437   1.530  23.938  0.00  0.00    +0.149 C 
BRANCH  17  18
ATOM     18  N   UNL     1      -0.454   1.999  24.616  0.00  0.00    -0.185 NA
ATOM     19  C   UNL     1      -0.796   2.748  24.590  0.00  0.00    +0.339 C 
ATOM     20  O   UNL     1      -1.122   3.029  23.887  0.00  0.00    -0.249 OA
ATOM     21  N   UNL     1      -0.813   3.218  25.269  0.00  0.00    -0.189 NA
BRANCH  21  22
ATOM     22  C   UNL     1      -1.156   3.968  25.242  0.00  0.00    +0.097 C 
ATOM     23  C   UNL     1      -1.934   4.074  25.496  0.00  0.00    +0.022 C 
ATOM     24  C   UNL     1      -2.277   4.824  25.469  0.00  0.00    +0.002 C 
ATOM     25  C   UNL     1      -1.843   5.466  25.190  0.00  0.00    +0.000 C 
ATOM     26  C   UNL     1      -1.065   5.361  24.937  0.00  0.00    +0.002 C 
ATOM     27  C   UNL     1      -0.722   4.610  24.963  0.00  0.00    +0.022 C 
ENDBRANCH  21  22
ENDBRANCH  17  18
ENDBRANCH  16  17
TORSDOF 5
ENDMDL
MODEL 5
REMARK VINA RESULT:      -9.5      2.360      4.614
REMARK  Name = 
REMARK  5 active torsions:
REMARK  status: ('A' for Active; 'I' for Inactive)
REMARK    1  A    between atoms: C_5  and  C_6
REMARK    2  A    between atoms: C_6  and  C_7
REMARK    3  A    between atoms: C_16  and  C_17
REMARK    4  A    between atoms: C_17  and  N_18
REMARK    5  A    between atoms: N_21  and  C_22
REMARK                            x       y       z     vdW  Elec       q    Type
REMARK                         _______ _______ _______ _____ _____    ______ ____
ROOT
ATOM      1  O   UNL     1      -3.532  -2.489  24.868  0.00  0.00    -0.218 OA
ATOM      2  C   UNL     1      -2.960  -1.901  24.782  0.00  0.00    +0.213 C 
ATOM      3  C   UNL     1      -2.150  -2.023  24.674  0.00  0.00    +0.212 C 
ATOM      4  O   UNL     1      -1.772  -2.754  24.632  0.00  0.00    -0.218 OA
ATOM      5  C   UNL     1      -1.787  -1.284  24.615  0.00  0.00    +0.157 C 
ATOM     15  O   UNL     1      -2.372  -0.706  24.688  0.00  0.00    -0.351 OA
ATOM     16  C   UNL     1      -3.096  -1.087  24.791  0.00  0.00    +0.170 C 
ENDROOT
BRANCH   5   6
ATOM      6  C   UNL     1      -0.981  -1.148  24.504  0.00  0.00    +0.117 C 
BRANCH   6   7
ATOM      7  C   UNL     1      -0.658  -0.412  24.688  0.00  0.00    +0.228 C 
ATOM      8  O   UNL     1      -0.896  -0.016  25.371  0.00  0.00    -0.275 OA
ATOM      9  N   UNL     1      -0.096  -0.072  24.188  0.00  0.00    -0.274 N 
ATOM     10  C   UNL     1       0.228   0.664  24.372  0.00  0.00    +0.125 C 
ATOM     11  C   UNL     1       0.790   1.004  23.873  0.00  0.00    +0.164 C 
ATOM     12  O   UNL     1       1.028   0.608  23.190  0.00  0.00    -0.350 OA
ATOM     13  C   UNL     1       0.704  -0.129  23.006  0.00  0.00    +0.164 C 
ATOM     14  C   UNL     1       0.142  -0.468  23.505  0.00  0.00    +0.125 C 
ENDBRANCH   6   7
ENDBRANCH   5   6
BRANCH  16  17
ATOM     17  C   UNL     1      -3.829  -0.719  24.886  0.00  0.00    +0.149 C 
BRANCH  17  18
ATOM     18  N   UNL     1      -3.987  -0.010  24.495  0.00  0.00    -0.185 NA
ATOM     19  C   UNL     1      -4.403   0.588  24.882  0.00  0.00    +0.339 C 
ATOM     20  O   UNL     1      -4.659   0.479  25.657  0.00  0.00    -0.249 OA
ATOM     21  N   UNL     1      -4.561   1.298  24.491  0.00  0.00    -0.189 NA
BRANCH  21  22
ATOM     22  C   UNL     1      -4.977   1.897  24.877  0.00  0.00    +0.097 C 
ATOM     23  C   UNL     1      -4.572   2.551  25.178  0.00  0.00    +0.022 C 
ATOM     24  C   UNL     1      -4.988   3.150  25.564  0.00  0.00    +0.002 C 
ATOM     25  C   UNL     1      -5.805   3.096  25.651  0.00  0.00    +0.000 C 
ATOM     26  C   UNL     1      -6.210   2.442  25.351  0.00  0.00    +0.002 C 
ATOM     27  C   UNL     1      -5.794   1.842  24.964  0.00  0.00    +0.022 C 
ENDBRANCH  21  22
ENDBRANCH  17  18
ENDBRANCH  16  17
TORSDOF 5
ENDMDL
