MODEL 1
REMARK VINA RESULT:     -13.4      0.000      0.000
REMARK  Name = 
REMARK  5 active torsions:
REMARK  status: ('A' for Active; 'I' for Inactive)
REMARK    1  A    between atoms: C_4  and  C_8
REMARK    2  A    between atoms: C_11  and  C_13
REMARK    3  A    between atoms: N_18  and  C_19
REMARK    4  A    between atoms: C_19  and  C_20
REMARK    5  A    between atoms: C_23  and  S_26
REMARK                            x       y       z     vdW  Elec       q    Type
REMARK                         _______ _______ _______ _____ _____    ______ ____
ROOT
ATOM     13  C   UNL     1      -4.608   2.488  25.256  0.00  0.00    +0.140 C 
ATOM     14  C   UNL     1      -5.408   2.679  25.182  0.00  0.00    +0.060 C 
ATOM     15  C   UNL     1      -5.804   2.012  24.901  0.00  0.00    +0.170 C 
ATOM     16  O   UNL     1      -6.613   1.957  24.747  0.00  0.00    -0.222 OA
ATOM     17  C   UNL     1      -5.249   1.409  24.802  0.00  0.00    +0.106 C 
ATOM     18  N   UNL     1      -4.510   1.703  25.022  0.00  0.00    -0.260 NA
ENDROOT
BRANCH  13  11
ATOM      8  C   UNL     1      -2.911   3.747  25.554  0.00  0.00    +0.203 A 
ATOM      9  N   UNL     1      -3.278   3.798  26.291  0.00  0.00    -0.056 NA
ATOM     10  O   UNL     1      -3.959   3.333  26.269  0.00  0.00    -0.336 OA
ATOM     11  C   UNL     1      -4.012   2.994  25.519  0.00  0.00    +0.251 A 
ATOM     12  N   UNL     1      -3.364   3.250  25.077  0.00  0.00    -0.190 NA
BRANCH   8   4
ATOM      1  C   UNL     1      -0.164   3.618  24.774  0.00  0.00    +0.031 C 
ATOM      2  C   UNL     1      -0.839   4.062  24.944  0.00  0.00    -0.022 A 
ATOM      3  C   UNL     1      -1.538   3.683  25.164  0.00  0.00    -0.001 A 
ATOM      4  C   UNL     1      -2.212   4.126  25.334  0.00  0.00    +0.039 A 
ATOM      5  C   UNL     1      -2.188   4.950  25.283  0.00  0.00    +0.003 A 
ATOM      6  C   UNL     1      -1.490   5.329  25.062  0.00  0.00    -0.000 A 
ATOM      7  C   UNL     1      -0.815   4.885  24.892  0.00  0.00    -0.004 A 
ENDBRANCH   8   4
ENDBRANCH  13  11
BRANCH  18  19
ATOM     19  C   UNL     1      -3.799   1.286  25.008  0.00  0.00    +0.100 C 
BRANCH  19  20
ATOM     20  C   UNL     1      -3.797   0.479  24.842  0.00  0.00    -0.006 A 
ATOM     21  C   UNL     1      -3.875  -0.069  25.453  0.00  0.00    -0.002 A 
ATOM     22  C   UNL     1      -3.873  -0.877  25.287  0.00  0.00    +0.018 A 
ATOM     23  C   UNL     1      -3.793  -1.137  24.507  0.00  0.00    +0.106 A 
ATOM     24  C   UNL     1      -3.715  -0.589  23.896  0.00  0.00    +0.018 A 
ATOM     25  C   UNL     1      -3.717   0.218  24.063  0.00  0.00    -0.002 A 
BRANCH  23  26
ATOM     26  S   UNL     1      -3.791  -1.945  24.341  0.00  0.00    +0.010 S 
ATOM     27  C   UNL     1      -3.788  -2.753  24.174  0.00  0.00    +0.182 C 
ATOM     28  O   UNL     1      -3.118  -2.040  24.808  0.00  0.00    -0.169 OA
ATOM     29  O   UNL     1      -4.464  -1.850  23.872  0.00  0.00    -0.169 OA
ENDBRANCH  23  26
ENDBRANCH  19  20
ENDBRANCH  18  19
TORSDOF 5
ENDMDL
MODEL 2
REMARK VINA RESULT:     -13.0      2.337      3.392
REMARK  Name = 
REMARK  5 active torsions:
REMARK  status: ('A' for Active; 'I' for Inactive)
REMARK    1  A    between atoms: C_4  and  C_8
REMARK    2  A    between atoms: C_11  and  C_13
REMARK    3  A    between atoms: N_18  and  C_19
REMARK    4  A    between atoms: C_19  and  C_20
REMARK    5  A    between atoms: C_23  and  S_26
REMARK                            x       y       z     vdW  Elec       q    Type
REMARK                         _______ _______ _______ _____ _____    ______ ____
ROOT
ATOM     13  C   UNL     1      -0.089   1.059  24.414  0.00  0.00    +0.140 C 
ATOM     14  C   UNL     1       0.429   0.969  23.778  0.00  0.00    +0.060 C 
ATOM     15  C   UNL     1       0.366   0.194  23.504  0.00  0.00    +0.170 C 
ATOM     16  O   UNL     1       0.787  -0.134  22.874  0.00  0.00    -0.222 OA
ATOM     17  C   UNL     1      -0.191  -0.197  23.970  0.00  0.00    +0.106 C 
ATOM     18  N   UNL     1      -0.473   0.338  24.533  0.00  0.00    -0.260 NA
ENDROOT
BRANCH  13  11
ATOM      8  C   UNL     1      -0.666   2.932  25.258  0.00  0.00    +0.203 A 
ATOM      9  N   UNL     1      -0.094   2.683  25.799  0.00  0.00    -0.056 NA
ATOM     10  O   UNL     1       0.191   1.950  25.548  0.00  0.00    -0.336 OA
ATOM     11  C   UNL     1      -0.204   1.747  24.853  0.00  0.00    +0.251 A 
ATOM     12  N   UNL     1      -0.734   2.354  24.674  0.00  0.00    -0.190 NA
BRANCH   8   4
ATOM      1  C   UNL     1      -3.019   4.359  26.032  0.00  0.00    +0.031 C 
ATOM      2  C   UNL     1      -2.271   4.349  25.683  0.00  0.00    -0.022 A 
ATOM      3  C   UNL     1      -1.842   3.645  25.645  0.00  0.00    -0.001 A 
ATOM      4  C   UNL     1      -1.095   3.636  25.296  0.00  0.00    +0.039 A 
ATOM      5  C   UNL     1      -0.776   4.330  24.984  0.00  0.00    +0.003 A 
ATOM      6  C   UNL     1      -1.204   5.034  25.022  0.00  0.00    -0.000 A 
ATOM      7  C   UNL     1      -1.953   5.044  25.372  0.00  0.00    -0.004 A 
ENDBRANCH   8   4
ENDBRANCH  13  11
BRANCH  18  19
ATOM     19  C   UNL     1      -1.039   0.179  25.112  0.00  0.00    +0.100 C 
BRANCH  19  20
ATOM     20  C   UNL     1      -1.565  -0.447  25.013  0.00  0.00    -0.006 A 
ATOM     21  C   UNL     1      -1.360  -1.203  25.272  0.00  0.00    -0.002 A 
ATOM     22  C   UNL     1      -1.888  -1.831  25.174  0.00  0.00    +0.018 A 
ATOM     23  C   UNL     1      -2.620  -1.701  24.816  0.00  0.00    +0.106 A 
ATOM     24  C   UNL     1      -2.825  -0.945  24.557  0.00  0.00    +0.018 A 
ATOM     25  C   UNL     1      -2.298  -0.319  24.656  0.00  0.00    -0.002 A 
BRANCH  23  26
ATOM     26  S   UNL     1      -3.147  -2.329  24.718  0.00  0.00    +0.010 S 
ATOM     27  C   UNL     1      -3.674  -2.955  24.619  0.00  0.00    +0.182 C 
ATOM     28  O   UNL     1      -2.693  -2.611  24.090  0.00  0.00    -0.169 OA
ATOM     29  O   UNL     1      -3.601  -2.046  25.346  0.00  0.00    -0.169 OA
ENDBRANCH  23  26
ENDBRANCH  19  20
ENDBRANCH  18  19
TORSDOF 5
ENDMDL
MODEL 3
REMARK VINA RESULT:     -12.5      2.823      6.008
REMARK  Name = 
REMARK  5 active torsions:
REMARK  status: ('A' for Active; 'I' for Inactive)
REMARK    1  A    between atoms: C_4  and  C_8
REMARK    2  A    between atoms: C_11  and  C_13
REMARK    3  A    between atoms: N_18  and  C_19
REMARK    4  A    between atoms: C_19  and  C_20
REMARK    5  A    between atoms: C_23  and  S_26
REMARK                            x       y       z     vdW  Elec       q    Type
REMARK                         _______ _______ _______ _____ _____    ______ ____
ROOT
ATOM     13  C   UNL     1      -0.365   0.090  24.399  0.00  0.00    +0.140 C 
ATOM     14  C   UNL     1       0.224  -0.012  23.830  0.00  0.00    +0.060 C 
ATOM     15  C   UNL     1       0.599   0.714  23.716  0.00  0.00    +0.170 C 
ATOM     16  O   UNL     1       1.221   0.862  23.195  0.00  0.00    -0.222 OA
ATOM     17  C   UNL     1       0.241   1.265  24.215  0.00  0.00    +0.106 C 
ATOM     18  N   UNL     1      -0.354   0.880  24.637  0.00  0.00    -0.260 NA
ENDROOT
BRANCH  13  11
ATOM      8  C   UNL     1      -1.899  -1.345  24.779  0.00  0.00    +0.203 A 
ATOM      9  N   UNL     1      -1.419  -1.444  25.444  0.00  0.00    -0.056 NA
ATOM     10  O   UNL     1      -0.786  -0.919  25.382  0.00  0.00    -0.336 OA
ATOM     11  C   UNL     1      -0.874  -0.495  24.680  0.00  0.00    +0.251 A 
ATOM     12  N   UNL     1      -1.562  -0.758  24.307  0.00  0.00    -0.190 NA
BRANCH   8   4
ATOM      1  C   UNL     1      -4.640  -1.361  23.972  0.00  0.00    +0.031 C 
ATOM      2  C   UNL     1      -3.963  -1.768  24.213  0.00  0.00    -0.022 A 
ATOM      3  C   UNL     1      -3.269  -1.353  24.376  0.00  0.00    -0.001 A 
ATOM      4  C   UNL     1      -2.593  -1.759  24.616  0.00  0.00    +0.039 A 
ATOM      5  C   UNL     1      -2.610  -2.581  24.694  0.00  0.00    +0.003 A 
ATOM      6  C   UNL     1      -3.305  -2.995  24.530  0.00  0.00    -0.000 A 
ATOM      7  C   UNL     1      -3.982  -2.589  24.290  0.00  0.00    -0.004 A 
ENDBRANCH   8   4
ENDBRANCH  13  11
BRANCH  18  19
ATOM     19  C   UNL     1      -0.851   1.224  25.199  0.00  0.00    +0.100 C 
BRANCH  19  20
ATOM     20  C   UNL     1      -0.980   2.038  25.192  0.00  0.00    -0.006 A 
ATOM     21  C   UNL     1      -0.522   2.532  25.668  0.00  0.00    -0.002 A 
ATOM     22  C   UNL     1      -0.651   3.348  25.661  0.00  0.00    +0.018 A 
ATOM     23  C   UNL     1      -1.239   3.668  25.178  0.00  0.00    +0.106 A 
ATOM     24  C   UNL     1      -1.696   3.173  24.702  0.00  0.00    +0.018 A 
ATOM     25  C   UNL     1      -1.567   2.359  24.709  0.00  0.00    -0.002 A 
BRANCH  23  26
ATOM     26  S   UNL     1      -1.368   4.483  25.171  0.00  0.00    +0.010 S 
ATOM     27  C   UNL     1      -1.497   5.297  25.164  0.00  0.00    +0.182 C 
ATOM     28  O   UNL     1      -2.078   4.374  25.575  0.00  0.00    -0.169 OA
ATOM     29  O   UNL     1      -0.656   4.592  24.767  0.00  0.00    -0.169 OA
ENDBRANCH  23  26
ENDBRANCH  19  20
ENDBRANCH  18  19
TORSDOF 5
ENDMDL
MODEL 4
REMARK VINA RESULT:     -12.3      1.962      5.180
REMARK  Name = 
REMARK  5 active torsions:
REMARK  status: ('A' for Active; 'I' for Inactive)
REMARK    1  A    between atoms: C_4  and  C_8
REMARK    2  A    between atoms: C_11  and  C_13
REMARK    3  A    between atoms: N_18  and  C_19
REMARK    4  A    between atoms: C_19  and  C_20
REMARK    5  A    between atoms: C_23  and  S_26
REMARK                            x       y       z     vdW  Elec       q    Type
REMARK                         _______ _______ _______ _____ _____    ______ ____
ROOT
ATOM     13  C   UNL     1      -4.330   1.441  24.797  0.00  0.00    +0.140 C 
ATOM     14  C   UNL     1      -5.100   1.680  24.972  0.00  0.00    +0.060 C 
ATOM     15  C   UNL     1      -5.059   2.405  25.363  0.00  0.00    +0.170 C 
ATOM     16  O   UNL     1      -5.701   2.844  25.640  0.00  0.00    -0.222 OA
ATOM     17  C   UNL     1      -4.263   2.614  25.431  0.00  0.00    +0.106 C 
ATOM     18  N   UNL     1      -3.813   2.018  25.080  0.00  0.00    -0.260 NA
ENDROOT
BRANCH  13  11
ATOM      8  C   UNL     1      -3.802  -0.528  24.164  0.00  0.00    +0.203 A 
ATOM      9  N   UNL     1      -3.766  -0.117  23.450  0.00  0.00    -0.056 NA
ATOM     10  O   UNL     1      -3.960   0.672  23.600  0.00  0.00    -0.336 OA
ATOM     11  C   UNL     1      -4.115   0.747  24.407  0.00  0.00    +0.251 A 
ATOM     12  N   UNL     1      -4.018   0.005  24.755  0.00  0.00    -0.190 NA
BRANCH   8   4
ATOM      1  C   UNL     1      -2.027  -2.631  24.936  0.00  0.00    +0.031 C 
ATOM      2  C   UNL     1      -2.762  -2.383  24.654  0.00  0.00    -0.022 A 
ATOM      3  C   UNL     1      -2.915  -1.579  24.550  0.00  0.00    -0.001 A 
ATOM      4  C   UNL     1      -3.650  -1.332  24.269  0.00  0.00    +0.039 A 
ATOM      5  C   UNL     1      -4.233  -1.889  24.091  0.00  0.00    +0.003 A 
ATOM      6  C   UNL     1      -4.080  -2.693  24.195  0.00  0.00    -0.000 A 
ATOM      7  C   UNL     1      -3.344  -2.940  24.477  0.00  0.00    -0.004 A 
ENDBRANCH   8   4
ENDBRANCH  13  11
BRANCH  18  19
ATOM     19  C   UNL     1      -2.990   2.002  25.023  0.00  0.00    +0.100 C 
BRANCH  19  20
ATOM     20  C   UNL     1      -2.563   2.708  25.025  0.00  0.00    -0.006 A 
ATOM     21  C   UNL     1      -2.212   2.976  25.722  0.00  0.00    -0.002 A 
ATOM     22  C   UNL     1      -1.784   3.682  25.723  0.00  0.00    +0.018 A 
ATOM     23  C   UNL     1      -1.708   4.119  25.028  0.00  0.00    +0.106 A 
ATOM     24  C   UNL     1      -2.059   3.851  24.331  0.00  0.00    +0.018 A 
ATOM     25  C   UNL     1      -2.486   3.145  24.330  0.00  0.00    -0.002 A 
BRANCH  23  26
ATOM     26  S   UNL     1      -1.280   4.825  25.030  0.00  0.00    +0.010 S 
ATOM     27  C   UNL     1      -0.853   5.530  25.032  0.00  0.00    +0.182 C 
ATOM     28  O   UNL     1      -1.928   5.217  25.356  0.00  0.00    -0.169 OA
ATOM     29  O   UNL     1      -0.631   4.432  24.703  0.00  0.00    -0.169 OA
ENDBRANCH  23  26
ENDBRANCH  19  20
ENDBRANCH  18  19
TORSDOF 5
ENDMDL
MODEL 5
REMARK VINA RESULT:     -11.4      2.118      3.664
REMARK  Name = 
REMARK  5 active torsions:
REMARK  status: ('A' for Active; 'I' for Inactive)
REMARK    1  A    between atoms: C_4  and  C_8
REMARK    2  A    between atoms: C_11  and  C_13
REMARK    3  A    between atoms: N_18  and  C_19
REMARK    4  A    between atoms: C_19  and  C_20
REMARK    5  A    between atoms: C_23  and  S_26
REMARK                            x       y       z     vdW  Elec       q    Type
REMARK                         _______ _______ _______ _____ _____    ______ ____
ROOT
ATOM     13  C   UNL     1      -1.349   2.645  25.334  0.00  0.00    +0.140 C 
ATOM     14  C   UNL     1      -0.829   3.002  25.867  0.00  0.00    +0.060 C 
ATOM     15  C   UNL     1      -0.168   2.515  25.944  0.00  0.00    +0.170 C 
ATOM     16  O   UNL     1       0.489   2.660  26.421  0.00  0.00    -0.222 OA
ATOM     17  C   UNL     1      -0.279   1.856  25.459  0.00  0.00    +0.106 C 
ATOM     18  N   UNL     1      -1.009   1.936  25.083  0.00  0.00    -0.260 NA
ENDROOT
BRANCH  13  11
ATOM      8  C   UNL     1      -3.390   3.191  25.033  0.00  0.00    +0.203 A 
ATOM      9  N   UNL     1      -3.021   3.615  24.429  0.00  0.00    -0.056 NA
ATOM     10  O   UNL     1      -2.210   3.462  24.468  0.00  0.00    -0.336 OA
ATOM     11  C   UNL     1      -2.080   2.943  25.096  0.00  0.00    +0.251 A 
ATOM     12  N   UNL     1      -2.809   2.776  25.445  0.00  0.00    -0.190 NA
BRANCH   8   4
ATOM      1  C   UNL     1      -5.904   1.831  25.027  0.00  0.00    +0.031 C 
ATOM      2  C   UNL     1      -5.455   2.504  25.193  0.00  0.00    -0.022 A 
ATOM      3  C   UNL     1      -4.646   2.512  25.030  0.00  0.00    -0.001 A 
ATOM      4  C   UNL     1      -4.199   3.184  25.196  0.00  0.00    +0.039 A 
ATOM      5  C   UNL     1      -4.559   3.850  25.524  0.00  0.00    +0.003 A 
ATOM      6  C   UNL     1      -5.368   3.842  25.686  0.00  0.00    -0.000 A 
ATOM      7  C   UNL     1      -5.816   3.169  25.521  0.00  0.00    -0.004 A 
ENDBRANCH   8   4
ENDBRANCH  13  11
BRANCH  18  19
ATOM     19  C   UNL     1      -1.340   1.402  24.548  0.00  0.00    +0.100 C 
BRANCH  19  20
ATOM     20  C   UNL     1      -1.220   0.592  24.646  0.00  0.00    -0.006 A 
ATOM     21  C   UNL     1      -1.710   0.160  25.149  0.00  0.00    -0.002 A 
ATOM     22  C   UNL     1      -1.590  -0.651  25.247  0.00  0.00    +0.018 A 
ATOM     23  C   UNL     1      -0.979  -1.028  24.841  0.00  0.00    +0.106 A 
ATOM     24  C   UNL     1      -0.488  -0.596  24.339  0.00  0.00    +0.018 A 
ATOM     25  C   UNL     1      -0.609   0.214  24.241  0.00  0.00    -0.002 A 
BRANCH  23  26
ATOM     26  S   UNL     1      -0.858  -1.839  24.939  0.00  0.00    +0.010 S 
ATOM     27  C   UNL     1      -0.738  -2.649  25.037  0.00  0.00    +0.182 C 
ATOM     28  O   UNL     1      -0.266  -1.684  25.492  0.00  0.00    -0.169 OA
ATOM     29  O   UNL     1      -1.451  -1.994  24.386  0.00  0.00    -0.169 OA
ENDBRANCH  23  26
ENDBRANCH  19  20
ENDBRANCH  18  19
TORSDOF 5
ENDMDL
MODEL 6
REMARK VINA RESULT:     -11.0      2.211      5.300
REMARK  Name = 
REMARK  5 active torsions:
REMARK  status: ('A' for Active; 'I' for Inactive)
REMARK    1  A    between atoms: C_4  and  C_8
REMARK    2  A    between atoms: C_11  and  C_13
REMARK    3  A    between atoms: N_18  and  C_19
REMARK    4  A    between atoms: C_19  and  C_20
REMARK    5  A    between atoms: C_23  and  S_26
REMARK                            x       y       z     vdW  Elec       q    Type
REMARK                         _______ _______ _______ _____ _____    ______ ____
ROOT
ATOM     13  C   UNL     1      -1.263   1.041  25.119  0.00  0.00    +0.140 C 
ATOM     14  C   UNL     1      -0.667   1.248  25.652  0.00  0.00    +0.060 C 
ATOM     15  C   UNL     1      -0.759   2.046  25.838  0.00  0.00    +0.170 C 
ATOM     16  O   UNL     1      -0.283   2.482  26.352  0.00  0.00    -0.222 OA
ATOM     17  C   UNL     1      -1.411   2.333  25.421  0.00  0.00    +0.106 C 
ATOM     18  N   UNL     1      -1.723   1.711  24.977  0.00  0.00    -0.260 NA
ENDROOT
BRANCH  13  11
ATOM      8  C   UNL     1      -1.886  -0.910  24.517  0.00  0.00    +0.203 A 
ATOM      9  N   UNL     1      -1.224  -0.800  24.038  0.00  0.00    -0.056 NA
ATOM     10  O   UNL     1      -0.909  -0.055  24.205  0.00  0.00    -0.336 OA
ATOM     11  C   UNL     1      -1.377   0.294  24.787  0.00  0.00    +0.251 A 
ATOM     12  N   UNL     1      -1.981  -0.235  24.980  0.00  0.00    -0.190 NA
BRANCH   8   4
ATOM      1  C   UNL     1      -4.377  -2.178  23.922  0.00  0.00    +0.031 C 
ATOM      2  C   UNL     1      -3.613  -2.213  24.233  0.00  0.00    -0.022 A 
ATOM      3  C   UNL     1      -3.131  -1.544  24.220  0.00  0.00    -0.001 A 
ATOM      4  C   UNL     1      -2.369  -1.579  24.531  0.00  0.00    +0.039 A 
ATOM      5  C   UNL     1      -2.087  -2.284  24.856  0.00  0.00    +0.003 A 
ATOM      6  C   UNL     1      -2.569  -2.953  24.870  0.00  0.00    -0.000 A 
ATOM      7  C   UNL     1      -3.333  -2.918  24.558  0.00  0.00    -0.004 A 
ENDBRANCH   8   4
ENDBRANCH  13  11
BRANCH  18  19
ATOM     19  C   UNL     1      -2.378   1.752  24.478  0.00  0.00    +0.100 C 
BRANCH  19  20
ATOM     20  C   UNL     1      -3.029   2.212  24.689  0.00  0.00    -0.006 A 
ATOM     21  C   UNL     1      -3.089   2.990  24.423  0.00  0.00    -0.002 A 
ATOM     22  C   UNL     1      -3.741   3.450  24.634  0.00  0.00    +0.018 A 
ATOM     23  C   UNL     1      -4.332   3.131  25.113  0.00  0.00    +0.106 A 
ATOM     24  C   UNL     1      -4.272   2.353  25.379  0.00  0.00    +0.018 A 
ATOM     25  C   UNL     1      -3.621   1.893  25.168  0.00  0.00    -0.002 A 
BRANCH  23  26
ATOM     26  S   UNL     1      -4.984   3.591  25.324  0.00  0.00    +0.010 S 
ATOM     27  C   UNL     1      -5.635   4.051  25.536  0.00  0.00    +0.182 C 
ATOM     28  O   UNL     1      -4.479   4.160  25.643  0.00  0.00    -0.169 OA
ATOM     29  O   UNL     1      -5.490   3.021  25.006  0.00  0.00    -0.169 OA
ENDBRANCH  23  26
ENDBRANCH  19  20
ENDBRANCH  18  19
TORSDOF 5
ENDMDL
