MODEL 1
REMARK VINA RESULT:     -10.0      0.000      0.000
REMARK  Name = 
REMARK  4 active torsions:
REMARK  status: ('A' for Active; 'I' for Inactive)
REMARK    1  A    between atoms: C_4  and  C_5
REMARK    2  A    between atoms: C_5  and  N_6
REMARK    3  A    between atoms: N_12  and  C_13
REMARK    4  A    between atoms: C_13  and  C_14
REMARK                            x       y       z     vdW  Elec       q    Type
REMARK                         _______ _______ _______ _____ _____    ______ ____
ROOT
ATOM      6  N   UNL     1      -2.172   2.296  24.410  0.00  0.00    -0.266 NA
ATOM      7  C   UNL     1      -2.799   2.699  24.764  0.00  0.00    +0.094 C 
ATOM      8  C   UNL     1      -3.512   2.311  24.903  0.00  0.00    +0.112 C 
ATOM      9  N   UNL     1      -3.600   1.519  24.689  0.00  0.00    -0.261 N 
ATOM     10  C   UNL     1      -2.974   1.115  24.335  0.00  0.00    +0.113 C 
ATOM     11  C   UNL     1      -3.220   0.343  24.185  0.00  0.00    +0.117 C 
ATOM     12  N   UNL     1      -3.999   0.269  24.446  0.00  0.00    -0.257 N 
ATOM     20  C   UNL     1      -4.233   0.995  24.757  0.00  0.00    +0.308 C 
ATOM     21  O   UNL     1      -4.973   1.168  25.081  0.00  0.00    -0.252 OA
ATOM     22  C   UNL     1      -2.259   1.504  24.195  0.00  0.00    +0.094 C 
ENDROOT
BRANCH   6   5
ATOM      5  C   UNL     1      -1.457   2.685  24.269  0.00  0.00    +0.102 C 
BRANCH   5   4
ATOM      1  C   UNL     1       0.297   2.643  26.583  0.00  0.00    +0.154 C 
ATOM      2  N   UNL     1      -0.003   2.526  25.824  0.00  0.00    -0.248 N 
ATOM      3  C   UNL     1      -0.738   2.780  25.548  0.00  0.00    +0.094 A 
ATOM      4  C   UNL     1      -0.809   2.545  24.761  0.00  0.00    +0.033 A 
ATOM     23  C   UNL     1      -0.119   2.145  24.550  0.00  0.00    +0.119 A 
ATOM     24  N   UNL     1       0.379   2.133  25.207  0.00  0.00    -0.168 NA
ENDBRANCH   5   4
ENDBRANCH   6   5
BRANCH  12  13
ATOM     13  C   UNL     1      -4.462  -0.413  24.403  0.00  0.00    +0.141 C 
BRANCH  13  14
ATOM     14  C   UNL     1      -4.120  -1.153  24.530  0.00  0.00    +0.079 A 
ATOM     15  N   UNL     1      -3.812  -1.344  25.271  0.00  0.00    -0.246 NA
ATOM     16  C   UNL     1      -3.471  -2.085  25.396  0.00  0.00    +0.099 A 
ATOM     17  C   UNL     1      -3.437  -2.634  24.782  0.00  0.00    +0.021 A 
ATOM     18  C   UNL     1      -3.745  -2.442  24.041  0.00  0.00    +0.003 A 
ATOM     19  C   UNL     1      -4.086  -1.702  23.914  0.00  0.00    +0.016 A 
ENDBRANCH  13  14
ENDBRANCH  12  13
TORSDOF 4
ENDMDL
MODEL 2
REMARK VINA RESULT:      -9.8      1.279      4.518
REMARK  Name = 
REMARK  4 active torsions:
REMARK  status: ('A' for Active; 'I' for Inactive)
REMARK    1  A    between atoms: C_4  and  C_5
REMARK    2  A    between atoms: C_5  and  N_6
REMARK    3  A    between atoms: N_12  and  C_13
REMARK    4  A    between atoms: C_13  and  C_14
REMARK                            x       y       z     vdW  Elec       q    Type
REMARK                         _______ _______ _______ _____ _____    ______ ____
ROOT
ATOM      6  N   UNL     1      -3.700  -0.187  25.310  0.00  0.00    -0.266 NA
ATOM      7  C   UNL     1      -4.473   0.010  25.102  0.00  0.00    +0.094 C 
ATOM      8  C   UNL     1      -4.639   0.753  24.786  0.00  0.00    +0.112 C 
ATOM      9  N   UNL     1      -4.031   1.300  24.676  0.00  0.00    -0.261 N 
ATOM     10  C   UNL     1      -3.257   1.103  24.883  0.00  0.00    +0.113 C 
ATOM     11  C   UNL     1      -2.775   1.750  24.713  0.00  0.00    +0.117 C 
ATOM     12  N   UNL     1      -3.251   2.347  24.401  0.00  0.00    -0.257 N 
ATOM     20  C   UNL     1      -4.027   2.068  24.378  0.00  0.00    +0.308 C 
ATOM     21  O   UNL     1      -4.684   2.486  24.104  0.00  0.00    -0.252 OA
ATOM     22  C   UNL     1      -3.091   0.359  25.201  0.00  0.00    +0.094 C 
ENDROOT
BRANCH   6   5
ATOM      5  C   UNL     1      -3.533  -0.931  25.627  0.00  0.00    +0.102 C 
BRANCH   5   4
ATOM      1  C   UNL     1      -1.777  -2.767  24.221  0.00  0.00    +0.154 C 
ATOM      2  N   UNL     1      -2.453  -2.380  24.491  0.00  0.00    -0.248 N 
ATOM      3  C   UNL     1      -2.473  -1.750  25.024  0.00  0.00    +0.094 A 
ATOM      4  C   UNL     1      -3.261  -1.536  25.137  0.00  0.00    +0.033 A 
ATOM     23  C   UNL     1      -3.730  -2.033  24.675  0.00  0.00    +0.119 A 
ATOM     24  N   UNL     1      -3.231  -2.555  24.275  0.00  0.00    -0.168 NA
ENDBRANCH   5   4
ENDBRANCH   6   5
BRANCH  12  13
ATOM     13  C   UNL     1      -2.995   3.092  24.155  0.00  0.00    +0.141 C 
BRANCH  13  14
ATOM     14  C   UNL     1      -2.395   3.480  24.566  0.00  0.00    +0.079 A 
ATOM     15  N   UNL     1      -1.605   3.339  24.375  0.00  0.00    -0.246 NA
ATOM     16  C   UNL     1      -1.006   3.727  24.788  0.00  0.00    +0.099 A 
ATOM     17  C   UNL     1      -1.195   4.256  25.391  0.00  0.00    +0.021 A 
ATOM     18  C   UNL     1      -1.985   4.397  25.582  0.00  0.00    +0.003 A 
ATOM     19  C   UNL     1      -2.586   4.009  25.171  0.00  0.00    +0.016 A 
ENDBRANCH  13  14
ENDBRANCH  12  13
TORSDOF 4
ENDMDL
MODEL 3
REMARK VINA RESULT:      -9.7      1.904      2.664
REMARK  Name = 
REMARK  4 active torsions:
REMARK  status: ('A' for Active; 'I' for Inactive)
REMARK    1  A    between atoms: C_4  and  C_5
REMARK    2  A    between atoms: C_5  and  N_6
REMARK    3  A    between atoms: N_12  and  C_13
REMARK    4  A    between atoms: C_13  and  C_14
REMARK                            x       y       z     vdW  Elec       q    Type
REMARK                         _______ _______ _______ _____ _____    ______ ____
ROOT
ATOM      6  N   UNL     1      -0.384   1.994  25.431  0.00  0.00    -0.266 NA
ATOM      7  C   UNL     1       0.100   1.887  24.771  0.00  0.00    +0.094 C 
ATOM      8  C   UNL     1       0.085   1.172  24.361  0.00  0.00    +0.112 C 
ATOM      9  N   UNL     1      -0.414   0.563  24.608  0.00  0.00    -0.261 N 
ATOM     10  C   UNL     1      -0.898   0.670  25.268  0.00  0.00    +0.113 C 
ATOM     11  C   UNL     1      -1.330  -0.022  25.382  0.00  0.00    +0.117 C 
ATOM     12  N   UNL     1      -1.113  -0.558  24.794  0.00  0.00    -0.257 N 
ATOM     20  C   UNL     1      -0.547  -0.196  24.316  0.00  0.00    +0.308 C 
ATOM     21  O   UNL     1      -0.178  -0.534  23.659  0.00  0.00    -0.252 OA
ATOM     22  C   UNL     1      -0.883   1.386  25.679  0.00  0.00    +0.094 C 
ENDROOT
BRANCH   6   5
ATOM      5  C   UNL     1      -0.369   2.709  25.842  0.00  0.00    +0.102 C 
BRANCH   5   4
ATOM      1  C   UNL     1      -2.709   4.425  25.729  0.00  0.00    +0.154 C 
ATOM      2  N   UNL     1      -1.964   4.104  25.582  0.00  0.00    -0.248 N 
ATOM      3  C   UNL     1      -1.641   3.438  25.947  0.00  0.00    +0.094 A 
ATOM      4  C   UNL     1      -0.888   3.315  25.634  0.00  0.00    +0.033 A 
ATOM     23  C   UNL     1      -0.745   3.905  25.074  0.00  0.00    +0.119 A 
ATOM     24  N   UNL     1      -1.410   4.392  25.042  0.00  0.00    -0.168 NA
ENDBRANCH   5   4
ENDBRANCH   6   5
BRANCH  12  13
ATOM     13  C   UNL     1      -1.411  -1.322  24.699  0.00  0.00    +0.141 C 
BRANCH  13  14
ATOM     14  C   UNL     1      -2.224  -1.456  24.734  0.00  0.00    +0.079 A 
ATOM     15  N   UNL     1      -2.702  -1.264  24.089  0.00  0.00    -0.246 NA
ATOM     16  C   UNL     1      -3.515  -1.399  24.125  0.00  0.00    +0.099 A 
ATOM     17  C   UNL     1      -3.850  -1.725  24.804  0.00  0.00    +0.021 A 
ATOM     18  C   UNL     1      -3.372  -1.917  25.448  0.00  0.00    +0.003 A 
ATOM     19  C   UNL     1      -2.559  -1.782  25.414  0.00  0.00    +0.016 A 
ENDBRANCH  13  14
ENDBRANCH  12  13
TORSDOF 4
ENDMDL
MODEL 4
REMARK VINA RESULT:      -9.6      1.830      2.860
REMARK  Name = 
REMARK  4 active torsions:
REMARK  status: ('A' for Active; 'I' for Inactive)
REMARK    1  A    between atoms: C_4  and  C_5
REMARK    2  A    between atoms: C_5  and  N_6
REMARK    3  A    between atoms: N_12  and  C_13
REMARK    4  A    between atoms: C_13  and  C_14
REMARK                            x       y       z     vdW  Elec       q    Type
REMARK                         _______ _______ _______ _____ _____    ______ ____
ROOT
ATOM      6  N   UNL     1      -2.895   2.092  23.923  0.00  0.00    -0.266 NA
ATOM      7  C   UNL     1      -2.085   2.248  23.887  0.00  0.00    +0.094 C 
ATOM      8  C   UNL     1      -1.544   1.667  24.108  0.00  0.00    +0.112 C 
ATOM      9  N   UNL     1      -1.810   0.929  24.365  0.00  0.00    -0.261 N 
ATOM     10  C   UNL     1      -2.619   0.773  24.400  0.00  0.00    +0.113 C 
ATOM     11  C   UNL     1      -2.718   0.002  24.673  0.00  0.00    +0.117 C 
ATOM     12  N   UNL     1      -1.970  -0.320  24.806  0.00  0.00    -0.257 N 
ATOM     20  C   UNL     1      -1.410   0.254  24.616  0.00  0.00    +0.308 C 
ATOM     21  O   UNL     1      -0.590   0.168  24.667  0.00  0.00    -0.252 OA
ATOM     22  C   UNL     1      -3.162   1.355  24.179  0.00  0.00    +0.094 C 
ENDROOT
BRANCH   6   5
ATOM      5  C   UNL     1      -3.438   2.673  23.702  0.00  0.00    +0.102 C 
BRANCH   5   4
ATOM      1  C   UNL     1      -5.445   3.620  25.574  0.00  0.00    +0.154 C 
ATOM      2  N   UNL     1      -4.747   3.552  25.141  0.00  0.00    -0.248 N 
ATOM      3  C   UNL     1      -4.582   2.976  24.573  0.00  0.00    +0.094 A 
ATOM      4  C   UNL     1      -3.824   3.116  24.280  0.00  0.00    +0.033 A 
ATOM     23  C   UNL     1      -3.519   3.779  24.666  0.00  0.00    +0.119 A 
ATOM     24  N   UNL     1      -4.090   4.048  25.199  0.00  0.00    -0.168 NA
ENDBRANCH   5   4
ENDBRANCH   6   5
BRANCH  12  13
ATOM     13  C   UNL     1      -1.811  -1.081  25.082  0.00  0.00    +0.141 C 
BRANCH  13  14
ATOM     14  C   UNL     1      -2.340  -1.695  24.927  0.00  0.00    +0.079 A 
ATOM     15  N   UNL     1      -2.248  -2.158  24.251  0.00  0.00    -0.246 NA
ATOM     16  C   UNL     1      -2.777  -2.772  24.097  0.00  0.00    +0.099 A 
ATOM     17  C   UNL     1      -3.397  -2.923  24.619  0.00  0.00    +0.021 A 
ATOM     18  C   UNL     1      -3.489  -2.460  25.295  0.00  0.00    +0.003 A 
ATOM     19  C   UNL     1      -2.961  -1.846  25.450  0.00  0.00    +0.016 A 
ENDBRANCH  13  14
ENDBRANCH  12  13
TORSDOF 4
ENDMDL
MODEL 5
REMARK VINA RESULT:      -9.5      2.200      3.366
REMARK  Name = 
REMARK  4 active torsions:
REMARK  status: ('A' for Active; 'I' for Inactive)
REMARK    1  A    between atoms: C_4  and  C_5
REMARK    2  A    between atoms: C_5  and  N_6
REMARK    3  A    between atoms: N_12  and  C_13
REMARK    4  A    between atoms: C_13  and  C_14
REMARK                            x       y       z     vdW  Elec       q    Type
REMARK                         _______ _______ _______ _____ _____    ______ ____
ROOT
ATOM      6  N   UNL     1      -1.213   1.453  24.392  0.00  0.00    -0.266 NA
ATOM      7  C   UNL     1      -1.255   1.589  23.579  0.00  0.00    +0.094 C 
ATOM      8  C   UNL     1      -1.905   1.983  23.261  0.00  0.00    +0.112 C 
ATOM      9  N   UNL     1      -2.514   2.241  23.754  0.00  0.00    -0.261 N 
ATOM     10  C   UNL     1      -2.472   2.105  24.566  0.00  0.00    +0.113 C 
ATOM     11  C   UNL     1      -3.150   2.421  24.913  0.00  0.00    +0.117 C 
ATOM     12  N   UNL     1      -3.612   2.752  24.316  0.00  0.00    -0.257 N 
ATOM     20  C   UNL     1      -3.218   2.641  23.599  0.00  0.00    +0.308 C 
ATOM     21  O   UNL     1      -3.483   2.887  22.857  0.00  0.00    -0.252 OA
ATOM     22  C   UNL     1      -1.821   1.711  24.886  0.00  0.00    +0.094 C 
ENDROOT
BRANCH   6   5
ATOM      5  C   UNL     1      -0.561   1.059  24.711  0.00  0.00    +0.102 C 
BRANCH   5   4
ATOM      1  C   UNL     1      -0.843  -1.779  25.259  0.00  0.00    +0.154 C 
ATOM      2  N   UNL     1      -0.635  -1.066  24.901  0.00  0.00    -0.248 N 
ATOM      3  C   UNL     1      -0.822  -0.311  25.176  0.00  0.00    +0.094 A 
ATOM      4  C   UNL     1      -0.505   0.238  24.649  0.00  0.00    +0.033 A 
ATOM     23  C   UNL     1      -0.123  -0.177  24.046  0.00  0.00    +0.119 A 
ATOM     24  N   UNL     1      -0.203  -0.983  24.202  0.00  0.00    -0.168 NA
ENDBRANCH   5   4
ENDBRANCH   6   5
BRANCH  12  13
ATOM     13  C   UNL     1      -4.339   3.129  24.416  0.00  0.00    +0.141 C 
BRANCH  13  14
ATOM     14  C   UNL     1      -4.924   2.779  24.880  0.00  0.00    +0.079 A 
ATOM     15  N   UNL     1      -5.351   2.136  24.590  0.00  0.00    -0.246 NA
ATOM     16  C   UNL     1      -5.937   1.786  25.055  0.00  0.00    +0.099 A 
ATOM     17  C   UNL     1      -6.095   2.080  25.808  0.00  0.00    +0.021 A 
ATOM     18  C   UNL     1      -5.668   2.723  26.099  0.00  0.00    +0.003 A 
ATOM     19  C   UNL     1      -5.083   3.073  25.635  0.00  0.00    +0.016 A 
ENDBRANCH  13  14
ENDBRANCH  12  13
TORSDOF 4
ENDMDL
MODEL 6
REMARK VINA RESULT:      -9.4      2.266      3.742
REMARK  Name = 
REMARK  4 active torsions:
REMARK  status: ('A' for Active; 'I' for Inactive)
REMARK    1  A    between atoms: C_4  and  C_5
REMARK    2  A    between atoms: C_5  and  N_6
REMARK    3  A    between atoms: N_12  and  C_13
REMARK    4  A    between atoms: C_13  and  C_14
REMARK                            x       y       z     vdW  Elec       q    Type
REMARK                         _______ _______ _______ _____ _____    ______ ____
ROOT
ATOM      6  N   UNL     1      -3.147   3.260  24.894  0.00  0.00    -0.266 NA
ATOM      7  C   UNL     1      -2.707   3.690  25.444  0.00  0.00    +0.094 C 
ATOM      8  C   UNL     1      -1.974   3.409  25.696  0.00  0.00    +0.112 C 
ATOM      9  N   UNL     1      -1.680   2.697  25.399  0.00  0.00    -0.261 N 
ATOM     10  C   UNL     1      -2.120   2.267  24.850  0.00  0.00    +0.113 C 
ATOM     11  C   UNL     1      -1.693   1.589  24.656  0.00  0.00    +0.117 C 
ATOM     12  N   UNL     1      -0.989   1.600  25.085  0.00  0.00    -0.257 N 
ATOM     20  C   UNL     1      -0.982   2.285  25.544  0.00  0.00    +0.308 C 
ATOM     21  O   UNL     1      -0.380   2.517  26.059  0.00  0.00    -0.252 OA
ATOM     22  C   UNL     1      -2.854   2.548  24.597  0.00  0.00    +0.094 C 
ENDROOT
BRANCH   6   5
ATOM      5  C   UNL     1      -3.881   3.541  24.641  0.00  0.00    +0.102 C 
BRANCH   5   4
ATOM      1  C   UNL     1      -6.259   2.009  25.295  0.00  0.00    +0.154 C 
ATOM      2  N   UNL     1      -5.664   2.580  25.313  0.00  0.00    -0.248 N 
ATOM      3  C   UNL     1      -5.027   2.634  24.792  0.00  0.00    +0.094 A 
ATOM      4  C   UNL     1      -4.571   3.284  25.013  0.00  0.00    +0.033 A 
ATOM     23  C   UNL     1      -4.925   3.633  25.672  0.00  0.00    +0.119 A 
ATOM     24  N   UNL     1      -5.601   3.198  25.857  0.00  0.00    -0.168 NA
ENDBRANCH   5   4
ENDBRANCH   6   5
BRANCH  12  13
ATOM     13  C   UNL     1      -0.396   1.026  25.060  0.00  0.00    +0.141 C 
BRANCH  13  14
ATOM     14  C   UNL     1      -0.597   0.227  25.020  0.00  0.00    +0.079 A 
ATOM     15  N   UNL     1      -0.920  -0.152  25.678  0.00  0.00    -0.246 NA
ATOM     16  C   UNL     1      -1.120  -0.951  25.636  0.00  0.00    +0.099 A 
ATOM     17  C   UNL     1      -0.996  -1.372  24.938  0.00  0.00    +0.021 A 
ATOM     18  C   UNL     1      -0.673  -0.993  24.280  0.00  0.00    +0.003 A 
ATOM     19  C   UNL     1      -0.473  -0.194  24.320  0.00  0.00    +0.016 A 
ENDBRANCH  13  14
ENDBRANCH  12  13
TORSDOF 4
ENDMDL
MODEL 7
REMARK VINA RESULT:      -9.4      1.974      4.734
REMARK  Name = 
REMARK  4 active torsions:
REMARK  status: ('A' for Active; 'I' for Inactive)
REMARK    1  A    between atoms: C_4  and  C_5
REMARK    2  A    between atoms: C_5  and  N_6
REMARK    3  A    between atoms: N_12  and  C_13
REMARK    4  A    between atoms: C_13  and  C_14
REMARK                            x       y       z     vdW  Elec       q    Type
REMARK                         _______ _______ _______ _____ _____    ______ ____
ROOT
ATOM      6  N   UNL     1      -0.877  -0.374  25.122  0.00  0.00    -0.266 NA
ATOM      7  C   UNL     1      -0.388  -0.261  24.468  0.00  0.00    +0.094 C 
ATOM      8  C   UNL     1      -0.251   0.501  24.183  0.00  0.00    +0.112 C 
ATOM      9  N   UNL     1      -0.602   1.150  24.552  0.00  0.00    -0.261 N 
ATOM     10  C   UNL     1      -1.091   1.036  25.206  0.00  0.00    +0.113 C 
ATOM     11  C   UNL     1      -1.360   1.775  25.455  0.00  0.00    +0.117 C 
ATOM     12  N   UNL     1      -1.038   2.345  24.954  0.00  0.00    -0.257 N 
ATOM     20  C   UNL     1      -0.569   1.958  24.396  0.00  0.00    +0.308 C 
ATOM     21  O   UNL     1      -0.142   2.318  23.788  0.00  0.00    -0.252 OA
ATOM     22  C   UNL     1      -1.229   0.274  25.492  0.00  0.00    +0.094 C 
ENDROOT
BRANCH   6   5
ATOM      5  C   UNL     1      -1.014  -1.136  25.408  0.00  0.00    +0.102 C 
BRANCH   5   4
ATOM      1  C   UNL     1      -3.547  -2.358  24.686  0.00  0.00    +0.154 C 
ATOM      2  N   UNL     1      -2.743  -2.178  24.714  0.00  0.00    -0.248 N 
ATOM      3  C   UNL     1      -2.389  -1.612  25.199  0.00  0.00    +0.094 A 
ATOM      4  C   UNL     1      -1.579  -1.616  25.046  0.00  0.00    +0.033 A 
ATOM     23  C   UNL     1      -1.431  -2.185  24.467  0.00  0.00    +0.119 A 
ATOM     24  N   UNL     1      -2.151  -2.533  24.262  0.00  0.00    -0.168 NA
ENDBRANCH   5   4
ENDBRANCH   6   5
BRANCH  12  13
ATOM     13  C   UNL     1      -1.161   3.160  25.003  0.00  0.00    +0.141 C 
BRANCH  13  14
ATOM     14  C   UNL     1      -1.911   3.453  25.183  0.00  0.00    +0.079 A 
ATOM     15  N   UNL     1      -2.504   3.453  24.610  0.00  0.00    -0.246 NA
ATOM     16  C   UNL     1      -3.253   3.747  24.792  0.00  0.00    +0.099 A 
ATOM     17  C   UNL     1      -3.409   4.041  25.546  0.00  0.00    +0.021 A 
ATOM     18  C   UNL     1      -2.816   4.041  26.120  0.00  0.00    +0.003 A 
ATOM     19  C   UNL     1      -2.067   3.747  25.939  0.00  0.00    +0.016 A 
ENDBRANCH  13  14
ENDBRANCH  12  13
TORSDOF 4
ENDMDL
