MODEL 1
REMARK VINA RESULT:     -10.2      0.000      0.000
REMARK  Name = 
REMARK  6 active torsions:
REMARK  status: ('A' for Active; 'I' for Inactive)
REMARK    1  A    between atoms: C_2  and  C_3
REMARK    2  A    between atoms: C_3  and  N_4
REMARK    3  A    between atoms: C_5  and  C_7
REMARK    4  A    between atoms: C_7  and  C_8
REMARK    5  A    between atoms: C_13  and  C_14
REMARK    6  A    between atoms: C_16  and  C_18
REMARK                            x       y       z     vdW  Elec       q    Type
REMARK                         _______ _______ _______ _____ _____    ______ ____
ROOT
ATOM      8  C   UNL     1      -4.139   1.175  24.830  0.00  0.00    +0.012 C 
ATOM      9  C   UNL     1      -3.315   1.132  24.837  0.00  0.00    +0.022 C 
ATOM     10  C   UNL     1      -2.866   1.821  24.896  0.00  0.00    +0.094 C 
ATOM     11  N   UNL     1      -3.240   2.554  24.947  0.00  0.00    -0.276 N 
ATOM     12  C   UNL     1      -4.064   2.598  24.940  0.00  0.00    +0.094 C 
ATOM     13  C   UNL     1      -4.513   1.909  24.881  0.00  0.00    +0.020 C 
ATOM     16  C   UNL     1      -2.790   3.244  25.005  0.00  0.00    +0.251 C 
ATOM     17  O   UNL     1      -3.166   3.978  25.056  0.00  0.00    -0.270 OA
ENDROOT
BRANCH  16  18
ATOM     18  C   UNL     1      -1.967   3.200  25.013  0.00  0.00    +0.073 A 
ATOM     19  C   UNL     1      -1.550   3.166  24.303  0.00  0.00    +0.103 A 
ATOM     20  N   UNL     1      -0.726   3.122  24.309  0.00  0.00    -0.242 NA
ATOM     21  C   UNL     1      -0.320   3.113  25.027  0.00  0.00    +0.099 A 
ATOM     22  C   UNL     1      -0.738   3.147  25.738  0.00  0.00    +0.021 A 
ATOM     23  C   UNL     1      -1.561   3.191  25.731  0.00  0.00    +0.008 A 
ENDBRANCH  16  18
BRANCH  13  14
ATOM     14  C   UNL     1      -5.338   1.953  24.874  0.00  0.00    +0.002 C 
ATOM     15  C   UNL     1      -5.721   2.575  25.255  0.00  0.00    +0.000 C 
ENDBRANCH  13  14
BRANCH   8   7
ATOM      7  C   UNL     1      -4.587   0.486  24.772  0.00  0.00    +0.087 C 
BRANCH   7   5
ATOM      4  N   UNL     1      -4.259  -0.839  24.352  0.00  0.00    -0.205 NA
ATOM      5  C   UNL     1      -4.241  -0.246  24.926  0.00  0.00    +0.241 C 
ATOM      6  O   UNL     1      -3.877  -0.386  25.653  0.00  0.00    -0.273 OA
BRANCH   4   3
ATOM      3  C   UNL     1      -3.913  -1.572  24.506  0.00  0.00    +0.115 C 
BRANCH   3   2
ATOM      1  C   UNL     1      -3.680  -2.933  24.137  0.00  0.00    +0.002 C 
ATOM      2  C   UNL     1      -4.031  -2.201  23.985  0.00  0.00    +0.023 C 
ENDBRANCH   3   2
ENDBRANCH   4   3
ENDBRANCH   7   5
ENDBRANCH   8   7
TORSDOF 6
ENDMDL
MODEL 2
REMARK VINA RESULT:      -9.6      1.347      4.268
REMARK  Name = 
REMARK  6 active torsions:
REMARK  status: ('A' for Active; 'I' for Inactive)
REMARK    1  A    between atoms: C_2  and  C_3
REMARK    2  A    between atoms: C_3  and  N_4
REMARK    3  A    between atoms: C_5  and  C_7
REMARK    4  A    between atoms: C_7  and  C_8
REMARK    5  A    between atoms: C_13  and  C_14
REMARK    6  A    between atoms: C_16  and  C_18
REMARK                            x       y       z     vdW  Elec       q    Type
REMARK                         _______ _______ _______ _____ _____    ______ ____
ROOT
ATOM      8  C   UNL     1      -3.643   1.738  24.534  0.00  0.00    +0.012 C 
ATOM      9  C   UNL     1      -2.976   1.275  24.390  0.00  0.00    +0.022 C 
ATOM     10  C   UNL     1      -2.967   0.482  24.618  0.00  0.00    +0.094 C 
ATOM     11  N   UNL     1      -3.625   0.153  24.990  0.00  0.00    -0.276 N 
ATOM     12  C   UNL     1      -4.293   0.615  25.135  0.00  0.00    +0.094 C 
ATOM     13  C   UNL     1      -4.302   1.408  24.907  0.00  0.00    +0.020 C 
ATOM     16  C   UNL     1      -3.616  -0.641  25.218  0.00  0.00    +0.251 C 
ATOM     17  O   UNL     1      -4.275  -0.971  25.590  0.00  0.00    -0.270 OA
ENDROOT
BRANCH  16  18
ATOM     18  C   UNL     1      -2.949  -1.104  25.074  0.00  0.00    +0.073 A 
ATOM     19  C   UNL     1      -2.276  -1.014  25.542  0.00  0.00    +0.103 A 
ATOM     20  N   UNL     1      -1.608  -1.477  25.399  0.00  0.00    -0.242 NA
ATOM     21  C   UNL     1      -1.614  -2.030  24.786  0.00  0.00    +0.099 A 
ATOM     22  C   UNL     1      -2.287  -2.118  24.317  0.00  0.00    +0.021 A 
ATOM     23  C   UNL     1      -2.954  -1.656  24.461  0.00  0.00    +0.008 A 
ENDBRANCH  16  18
BRANCH  13  14
ATOM     14  C   UNL     1      -4.970   1.871  25.051  0.00  0.00    +0.002 C 
ATOM     15  C   UNL     1      -5.717   1.524  25.066  0.00  0.00    +0.000 C 
ENDBRANCH  13  14
BRANCH   8   7
ATOM      7  C   UNL     1      -3.652   2.530  24.307  0.00  0.00    +0.087 C 
BRANCH   7   5
ATOM      4  N   UNL     1      -2.783   3.559  24.779  0.00  0.00    -0.205 NA
ATOM      5  C   UNL     1      -2.945   2.951  24.247  0.00  0.00    +0.241 C 
ATOM      6  O   UNL     1      -2.402   2.763  23.655  0.00  0.00    -0.273 OA
BRANCH   4   3
ATOM      3  C   UNL     1      -2.075   3.981  24.720  0.00  0.00    +0.115 C 
BRANCH   3   2
ATOM      1  C   UNL     1      -1.288   5.109  25.107  0.00  0.00    +0.002 C 
ATOM      2  C   UNL     1      -1.911   4.587  25.254  0.00  0.00    +0.023 C 
ENDBRANCH   3   2
ENDBRANCH   4   3
ENDBRANCH   7   5
ENDBRANCH   8   7
TORSDOF 6
ENDMDL
MODEL 3
REMARK VINA RESULT:      -9.4      2.010      3.290
REMARK  Name = 
REMARK  6 active torsions:
REMARK  status: ('A' for Active; 'I' for Inactive)
REMARK    1  A    between atoms: C_2  and  C_3
REMARK    2  A    between atoms: C_3  and  N_4
REMARK    3  A    between atoms: C_5  and  C_7
REMARK    4  A    between atoms: C_7  and  C_8
REMARK    5  A    between atoms: C_13  and  C_14
REMARK    6  A    between atoms: C_16  and  C_18
REMARK                            x       y       z     vdW  Elec       q    Type
REMARK                         _______ _______ _______ _____ _____    ______ ____
ROOT
ATOM      8  C   UNL     1      -2.889  -0.215  24.874  0.00  0.00    +0.012 C 
ATOM      9  C   UNL     1      -2.734   0.589  24.974  0.00  0.00    +0.022 C 
ATOM     10  C   UNL     1      -3.350   1.137  24.936  0.00  0.00    +0.094 C 
ATOM     11  N   UNL     1      -4.121   0.880  24.797  0.00  0.00    -0.276 N 
ATOM     12  C   UNL     1      -4.278   0.076  24.696  0.00  0.00    +0.094 C 
ATOM     13  C   UNL     1      -3.662  -0.471  24.735  0.00  0.00    +0.020 C 
ATOM     16  C   UNL     1      -4.738   1.429  24.759  0.00  0.00    +0.251 C 
ATOM     17  O   UNL     1      -5.510   1.172  24.620  0.00  0.00    -0.270 OA
ENDROOT
BRANCH  16  18
ATOM     18  C   UNL     1      -4.582   2.232  24.859  0.00  0.00    +0.073 A 
ATOM     19  C   UNL     1      -4.688   2.584  25.597  0.00  0.00    +0.103 A 
ATOM     20  N   UNL     1      -4.533   3.388  25.698  0.00  0.00    -0.242 NA
ATOM     21  C   UNL     1      -4.270   3.840  25.060  0.00  0.00    +0.099 A 
ATOM     22  C   UNL     1      -4.163   3.487  24.321  0.00  0.00    +0.021 A 
ATOM     23  C   UNL     1      -4.319   2.684  24.221  0.00  0.00    +0.008 A 
ENDBRANCH  16  18
BRANCH  13  14
ATOM     14  C   UNL     1      -3.818  -1.276  24.634  0.00  0.00    +0.002 C 
ATOM     15  C   UNL     1      -4.348  -1.523  24.055  0.00  0.00    +0.000 C 
ENDBRANCH  13  14
BRANCH   8   7
ATOM      7  C   UNL     1      -2.274  -0.762  24.912  0.00  0.00    +0.087 C 
BRANCH   7   5
ATOM      4  N   UNL     1      -1.019  -0.610  24.249  0.00  0.00    -0.205 NA
ATOM      5  C   UNL     1      -1.491  -0.503  24.917  0.00  0.00    +0.241 C 
ATOM      6  O   UNL     1      -1.181  -0.137  25.588  0.00  0.00    -0.273 OA
BRANCH   4   3
ATOM      3  C   UNL     1      -0.235  -0.351  24.253  0.00  0.00    +0.115 C 
BRANCH   3   2
ATOM      1  C   UNL     1       0.737  -0.003  23.265  0.00  0.00    +0.002 C 
ATOM      2  C   UNL     1       0.275  -0.573  23.644  0.00  0.00    +0.023 C 
ENDBRANCH   3   2
ENDBRANCH   4   3
ENDBRANCH   7   5
ENDBRANCH   8   7
TORSDOF 6
ENDMDL
MODEL 4
REMARK VINA RESULT:      -9.4      2.227      3.733
REMARK  Name = 
REMARK  6 active torsions:
REMARK  status: ('A' for Active; 'I' for Inactive)
REMARK    1  A    between atoms: C_2  and  C_3
REMARK    2  A    between atoms: C_3  and  N_4
REMARK    3  A    between atoms: C_5  and  C_7
REMARK    4  A    between atoms: C_7  and  C_8
REMARK    5  A    between atoms: C_13  and  C_14
REMARK    6  A    between atoms: C_16  and  C_18
REMARK                            x       y       z     vdW  Elec       q    Type
REMARK                         _______ _______ _______ _____ _____    ______ ____
ROOT
ATOM      8  C   UNL     1      -2.360   3.334  24.928  0.00  0.00    +0.012 C 
ATOM      9  C   UNL     1      -2.416   2.533  24.738  0.00  0.00    +0.022 C 
ATOM     10  C   UNL     1      -1.741   2.058  24.749  0.00  0.00    +0.094 C 
ATOM     11  N   UNL     1      -1.011   2.384  24.949  0.00  0.00    -0.276 N 
ATOM     12  C   UNL     1      -0.954   3.185  25.139  0.00  0.00    +0.094 C 
ATOM     13  C   UNL     1      -1.628   3.660  25.128  0.00  0.00    +0.020 C 
ATOM     16  C   UNL     1      -0.336   1.908  24.960  0.00  0.00    +0.251 C 
ATOM     17  O   UNL     1       0.395   2.235  25.160  0.00  0.00    -0.270 OA
ENDROOT
BRANCH  16  18
ATOM     18  C   UNL     1      -0.392   1.108  24.770  0.00  0.00    +0.073 A 
ATOM     19  C   UNL     1      -0.187   0.848  24.015  0.00  0.00    +0.103 A 
ATOM     20  N   UNL     1      -0.243   0.047  23.825  0.00  0.00    -0.242 NA
ATOM     21  C   UNL     1      -0.506  -0.494  24.390  0.00  0.00    +0.099 A 
ATOM     22  C   UNL     1      -0.711  -0.232  25.145  0.00  0.00    +0.021 A 
ATOM     23  C   UNL     1      -0.655   0.568  25.335  0.00  0.00    +0.008 A 
ENDBRANCH  16  18
BRANCH  13  14
ATOM     14  C   UNL     1      -1.572   4.461  25.319  0.00  0.00    +0.002 C 
ATOM     15  C   UNL     1      -0.938   4.907  25.040  0.00  0.00    +0.000 C 
ENDBRANCH  13  14
BRANCH   8   7
ATOM      7  C   UNL     1      -3.034   3.808  24.917  0.00  0.00    +0.087 C 
BRANCH   7   5
ATOM      4  N   UNL     1      -4.315   3.353  25.354  0.00  0.00    -0.205 NA
ATOM      5  C   UNL     1      -3.770   3.477  24.747  0.00  0.00    +0.241 C 
ATOM      6  O   UNL     1      -3.960   3.269  23.972  0.00  0.00    -0.273 OA
BRANCH   4   3
ATOM      3  C   UNL     1      -5.052   3.021  25.185  0.00  0.00    +0.115 C 
BRANCH   3   2
ATOM      1  C   UNL     1      -6.061   2.228  25.812  0.00  0.00    +0.002 C 
ATOM      2  C   UNL     1      -5.604   2.915  25.788  0.00  0.00    +0.023 C 
ENDBRANCH   3   2
ENDBRANCH   4   3
ENDBRANCH   7   5
ENDBRANCH   8   7
TORSDOF 6
ENDMDL
MODEL 5
REMARK VINA RESULT:      -9.3      2.188      3.788
REMARK  Name = 
REMARK  6 active torsions:
REMARK  status: ('A' for Active; 'I' for Inactive)
REMARK    1  A    between atoms: C_2  and  C_3
REMARK    2  A    between atoms: C_3  and  N_4
REMARK    3  A    between atoms: C_5  and  C_7
REMARK    4  A    between atoms: C_7  and  C_8
REMARK    5  A    between atoms: C_13  and  C_14
REMARK    6  A    between atoms: C_16  and  C_18
REMARK                            x       y       z     vdW  Elec       q    Type
REMARK                         _______ _______ _______ _____ _____    ______ ____
ROOT
ATOM      8  C   UNL     1      -1.617   2.923  25.199  0.00  0.00    +0.012 C 
ATOM      9  C   UNL     1      -2.218   2.358  25.223  0.00  0.00    +0.022 C 
ATOM     10  C   UNL     1      -3.007   2.593  25.185  0.00  0.00    +0.094 C 
ATOM     11  N   UNL     1      -3.196   3.394  25.124  0.00  0.00    -0.276 N 
ATOM     12  C   UNL     1      -2.596   3.959  25.101  0.00  0.00    +0.094 C 
ATOM     13  C   UNL     1      -1.806   3.724  25.138  0.00  0.00    +0.020 C 
ATOM     16  C   UNL     1      -3.987   3.629  25.087  0.00  0.00    +0.251 C 
ATOM     17  O   UNL     1      -4.176   4.430  25.026  0.00  0.00    -0.270 OA
ENDROOT
BRANCH  16  18
ATOM     18  C   UNL     1      -4.587   3.065  25.110  0.00  0.00    +0.073 A 
ATOM     19  C   UNL     1      -4.763   2.621  24.438  0.00  0.00    +0.103 A 
ATOM     20  N   UNL     1      -5.363   2.056  24.461  0.00  0.00    -0.242 NA
ATOM     21  C   UNL     1      -5.788   1.934  25.158  0.00  0.00    +0.099 A 
ATOM     22  C   UNL     1      -5.612   2.378  25.830  0.00  0.00    +0.021 A 
ATOM     23  C   UNL     1      -5.012   2.943  25.807  0.00  0.00    +0.008 A 
ENDBRANCH  16  18
BRANCH  13  14
ATOM     14  C   UNL     1      -1.205   4.289  25.115  0.00  0.00    +0.002 C 
ATOM     15  C   UNL     1      -1.394   5.091  25.097  0.00  0.00    +0.000 C 
ENDBRANCH  13  14
BRANCH   8   7
ATOM      7  C   UNL     1      -0.828   2.687  25.237  0.00  0.00    +0.087 C 
BRANCH   7   5
ATOM      4  N   UNL     1      -0.282   1.641  24.433  0.00  0.00    -0.205 NA
ATOM      5  C   UNL     1      -0.629   1.893  25.137  0.00  0.00    +0.241 C 
ATOM      6  O   UNL     1      -0.775   1.352  25.742  0.00  0.00    -0.273 OA
BRANCH   4   3
ATOM      3  C   UNL     1      -0.083   0.846  24.333  0.00  0.00    +0.115 C 
BRANCH   3   2
ATOM      1  C   UNL     1       0.366  -0.203  23.472  0.00  0.00    +0.002 C 
ATOM      2  C   UNL     1       0.306   0.602  23.647  0.00  0.00    +0.023 C 
ENDBRANCH   3   2
ENDBRANCH   4   3
ENDBRANCH   7   5
ENDBRANCH   8   7
TORSDOF 6
ENDMDL
MODEL 6
REMARK VINA RESULT:      -9.2      1.766      3.296
REMARK  Name = 
REMARK  6 active torsions:
REMARK  status: ('A' for Active; 'I' for Inactive)
REMARK    1  A    between atoms: C_2  and  C_3
REMARK    2  A    between atoms: C_3  and  N_4
REMARK    3  A    between atoms: C_5  and  C_7
REMARK    4  A    between atoms: C_7  and  C_8
REMARK    5  A    between atoms: C_13  and  C_14
REMARK    6  A    between atoms: C_16  and  C_18
REMARK                            x       y       z     vdW  Elec       q    Type
REMARK                         _______ _______ _______ _____ _____    ______ ____
ROOT
ATOM      8  C   UNL     1      -3.491   0.129  25.036  0.00  0.00    +0.012 C 
ATOM      9  C   UNL     1      -3.031   0.776  24.810  0.00  0.00    +0.022 C 
ATOM     10  C   UNL     1      -2.208   0.728  24.838  0.00  0.00    +0.094 C 
ATOM     11  N   UNL     1      -1.844   0.034  25.092  0.00  0.00    -0.276 N 
ATOM     12  C   UNL     1      -2.303  -0.614  25.319  0.00  0.00    +0.094 C 
ATOM     13  C   UNL     1      -3.126  -0.566  25.290  0.00  0.00    +0.020 C 
ATOM     16  C   UNL     1      -1.020  -0.014  25.121  0.00  0.00    +0.251 C 
ATOM     17  O   UNL     1      -0.657  -0.710  25.375  0.00  0.00    -0.270 OA
ENDROOT
BRANCH  16  18
ATOM     18  C   UNL     1      -0.562   0.633  24.895  0.00  0.00    +0.073 A 
ATOM     19  C   UNL     1      -0.250   0.671  24.133  0.00  0.00    +0.103 A 
ATOM     20  N   UNL     1       0.209   1.318  23.906  0.00  0.00    -0.242 NA
ATOM     21  C   UNL     1       0.355   1.928  24.443  0.00  0.00    +0.099 A 
ATOM     22  C   UNL     1       0.043   1.889  25.206  0.00  0.00    +0.021 A 
ATOM     23  C   UNL     1      -0.416   1.242  25.431  0.00  0.00    +0.008 A 
ENDBRANCH  16  18
BRANCH  13  14
ATOM     14  C   UNL     1      -3.585  -1.214  25.517  0.00  0.00    +0.002 C 
ATOM     15  C   UNL     1      -3.316  -1.980  25.376  0.00  0.00    +0.000 C 
ENDBRANCH  13  14
BRANCH   8   7
ATOM      7  C   UNL     1      -4.313   0.177  25.007  0.00  0.00    +0.087 C 
BRANCH   7   5
ATOM      4  N   UNL     1      -5.101   1.314  25.361  0.00  0.00    -0.205 NA
ATOM      5  C   UNL     1      -4.678   0.886  24.797  0.00  0.00    +0.241 C 
ATOM      6  O   UNL     1      -4.621   1.166  24.023  0.00  0.00    -0.273 OA
BRANCH   4   3
ATOM      3  C   UNL     1      -5.467   2.024  25.150  0.00  0.00    +0.115 C 
BRANCH   3   2
ATOM      1  C   UNL     1      -5.784   3.305  25.698  0.00  0.00    +0.002 C 
ATOM      2  C   UNL     1      -5.840   2.482  25.726  0.00  0.00    +0.023 C 
ENDBRANCH   3   2
ENDBRANCH   4   3
ENDBRANCH   7   5
ENDBRANCH   8   7
TORSDOF 6
ENDMDL
MODEL 7
REMARK VINA RESULT:      -9.1      1.599      4.501
REMARK  Name = 
REMARK  6 active torsions:
REMARK  status: ('A' for Active; 'I' for Inactive)
REMARK    1  A    between atoms: C_2  and  C_3
REMARK    2  A    between atoms: C_3  and  N_4
REMARK    3  A    between atoms: C_5  and  C_7
REMARK    4  A    between atoms: C_7  and  C_8
REMARK    5  A    between atoms: C_13  and  C_14
REMARK    6  A    between atoms: C_16  and  C_18
REMARK                            x       y       z     vdW  Elec       q    Type
REMARK                         _______ _______ _______ _____ _____    ______ ____
ROOT
ATOM      8  C   UNL     1      -2.212   1.605  24.788  0.00  0.00    +0.012 C 
ATOM      9  C   UNL     1      -2.736   1.007  24.571  0.00  0.00    +0.022 C 
ATOM     10  C   UNL     1      -2.575   0.223  24.771  0.00  0.00    +0.094 C 
ATOM     11  N   UNL     1      -1.888   0.038  25.188  0.00  0.00    -0.276 N 
ATOM     12  C   UNL     1      -1.362   0.636  25.406  0.00  0.00    +0.094 C 
ATOM     13  C   UNL     1      -1.524   1.419  25.205  0.00  0.00    +0.020 C 
ATOM     16  C   UNL     1      -1.726  -0.747  25.389  0.00  0.00    +0.251 C 
ATOM     17  O   UNL     1      -1.039  -0.932  25.807  0.00  0.00    -0.270 OA
ENDROOT
BRANCH  16  18
ATOM     18  C   UNL     1      -2.251  -1.344  25.172  0.00  0.00    +0.073 A 
ATOM     19  C   UNL     1      -2.103  -1.800  24.501  0.00  0.00    +0.103 A 
ATOM     20  N   UNL     1      -2.628  -2.398  24.283  0.00  0.00    -0.242 NA
ATOM     21  C   UNL     1      -3.302  -2.540  24.738  0.00  0.00    +0.099 A 
ATOM     22  C   UNL     1      -3.449  -2.084  25.410  0.00  0.00    +0.021 A 
ATOM     23  C   UNL     1      -2.924  -1.487  25.627  0.00  0.00    +0.008 A 
ENDBRANCH  16  18
BRANCH  13  14
ATOM     14  C   UNL     1      -0.999   2.018  25.423  0.00  0.00    +0.002 C 
ATOM     15  C   UNL     1      -0.196   1.851  25.508  0.00  0.00    +0.000 C 
ENDBRANCH  13  14
BRANCH   8   7
ATOM      7  C   UNL     1      -2.373   2.388  24.588  0.00  0.00    +0.087 C 
BRANCH   7   5
ATOM      4  N   UNL     1      -3.590   3.023  24.982  0.00  0.00    -0.205 NA
ATOM      5  C   UNL     1      -3.146   2.620  24.416  0.00  0.00    +0.241 C 
ATOM      6  O   UNL     1      -3.475   2.447  23.679  0.00  0.00    -0.273 OA
BRANCH   4   3
ATOM      3  C   UNL     1      -4.364   3.255  24.811  0.00  0.00    +0.115 C 
BRANCH   3   2
ATOM      1  C   UNL     1      -5.542   3.497  25.582  0.00  0.00    +0.002 C 
ATOM      2  C   UNL     1      -4.782   3.721  25.348  0.00  0.00    +0.023 C 
ENDBRANCH   3   2
ENDBRANCH   4   3
ENDBRANCH   7   5
ENDBRANCH   8   7
TORSDOF 6
ENDMDL
MODEL 8
REMARK VINA RESULT:      -9.0      1.782      2.784
REMARK  Name = 
REMARK  6 active torsions:
REMARK  status: ('A' for Active; 'I' for Inactive)
REMARK    1  A    between atoms: C_2  and  C_3
REMARK    2  A    between atoms: C_3  and  N_4
REMARK    3  A    between atoms: C_5  and  C_7
REMARK    4  A    between atoms: C_7  and  C_8
REMARK    5  A    between atoms: C_13  and  C_14
REMARK    6  A    between atoms: C_16  and  C_18
REMARK                            x       y       z     vdW  Elec       q    Type
REMARK                         _______ _______ _______ _____ _____    ______ ____
ROOT
ATOM      8  C   UNL     1      -1.373   0.119  24.794  0.00  0.00    +0.012 C 
ATOM      9  C   UNL     1      -1.965   0.596  25.113  0.00  0.00    +0.022 C 
ATOM     10  C   UNL     1      -1.923   1.416  25.033  0.00  0.00    +0.094 C 
ATOM     11  N   UNL     1      -1.289   1.759  24.633  0.00  0.00    -0.276 N 
ATOM     12  C   UNL     1      -0.696   1.283  24.312  0.00  0.00    +0.094 C 
ATOM     13  C   UNL     1      -0.738   0.463  24.393  0.00  0.00    +0.020 C 
ATOM     16  C   UNL     1      -1.247   2.580  24.552  0.00  0.00    +0.251 C 
ATOM     17  O   UNL     1      -0.612   2.922  24.151  0.00  0.00    -0.270 OA
ENDROOT
BRANCH  16  18
ATOM     18  C   UNL     1      -1.839   3.056  24.871  0.00  0.00    +0.073 A 
ATOM     19  C   UNL     1      -2.535   3.186  24.450  0.00  0.00    +0.103 A 
ATOM     20  N   UNL     1      -3.128   3.663  24.770  0.00  0.00    -0.242 NA
ATOM     21  C   UNL     1      -3.024   4.009  25.511  0.00  0.00    +0.099 A 
ATOM     22  C   UNL     1      -2.326   3.879  25.933  0.00  0.00    +0.021 A 
ATOM     23  C   UNL     1      -1.734   3.402  25.613  0.00  0.00    +0.008 A 
ENDBRANCH  16  18
BRANCH  13  14
ATOM     14  C   UNL     1      -0.145  -0.015  24.073  0.00  0.00    +0.002 C 
ATOM     15  C   UNL     1       0.375   0.293  23.513  0.00  0.00    +0.000 C 
ENDBRANCH  13  14
BRANCH   8   7
ATOM      7  C   UNL     1      -1.414  -0.700  24.874  0.00  0.00    +0.087 C 
BRANCH   7   5
ATOM      4  N   UNL     1      -2.510  -1.568  24.580  0.00  0.00    -0.205 NA
ATOM      5  C   UNL     1      -2.123  -1.057  25.099  0.00  0.00    +0.241 C 
ATOM      6  O   UNL     1      -2.445  -0.904  25.844  0.00  0.00    -0.273 OA
BRANCH   4   3
ATOM      3  C   UNL     1      -3.219  -1.926  24.805  0.00  0.00    +0.115 C 
BRANCH   3   2
ATOM      1  C   UNL     1      -4.224  -2.510  23.973  0.00  0.00    +0.002 C 
ATOM      2  C   UNL     1      -3.508  -2.571  24.380  0.00  0.00    +0.023 C 
ENDBRANCH   3   2
ENDBRANCH   4   3
ENDBRANCH   7   5
ENDBRANCH   8   7
TORSDOF 6
ENDMDL
