MODEL 1
REMARK VINA RESULT:      -9.2      0.000      0.000
REMARK  Name = 
REMARK  6 active torsions:
REMARK  status: ('A' for Active; 'I' for Inactive)
REMARK    1  A    between atoms: N_4  and  C_5
REMARK    2  A    between atoms: C_8  and  S_11
REMARK    3  A    between atoms: S_11  and  N_14
REMARK    4  A    between atoms: N_14  and  C_15
REMARK    5  A    between atoms: C_19  and  N_23
REMARK    6  A    between atoms: C_26  and  C_30
REMARK                            x       y       z     vdW  Elec       q    Type
REMARK                         _______ _______ _______ _____ _____    ______ ____
ROOT
ATOM     15  C   UNL     1      -2.154   0.088  24.501  0.00  0.00    +0.157 C 
ATOM     16  C   UNL     1      -1.821   0.737  24.887  0.00  0.00    +0.164 C 
ATOM     17  O   UNL     1      -1.001   0.683  24.818  0.00  0.00    -0.350 OA
ATOM     18  C   UNL     1      -0.827  -0.000  24.389  0.00  0.00    +0.166 C 
ATOM     19  C   UNL     1      -0.210  -0.456  24.082  0.00  0.00    +0.154 C 
ATOM     20  C   UNL     1      -0.543  -1.105  23.697  0.00  0.00    +0.166 C 
ATOM     21  O   UNL     1      -1.363  -1.051  23.765  0.00  0.00    -0.350 OA
ATOM     22  C   UNL     1      -1.538  -0.368  24.193  0.00  0.00    +0.164 C 
ENDROOT
BRANCH  19  23
ATOM     23  N   UNL     1       0.595  -0.291  24.149  0.00  0.00    -0.200 NA
ATOM     24  C   UNL     1       1.061  -0.232  23.471  0.00  0.00    +0.237 A 
ATOM     25  N   UNL     1       1.867  -0.067  23.537  0.00  0.00    -0.212 NA
ATOM     26  C   UNL     1       2.334  -0.008  22.860  0.00  0.00    +0.086 A 
ATOM     27  C   UNL     1       1.994  -0.114  22.115  0.00  0.00    +0.040 A 
ATOM     28  C   UNL     1       1.189  -0.279  22.048  0.00  0.00    +0.103 A 
ATOM     29  N   UNL     1       0.722  -0.338  22.726  0.00  0.00    -0.211 NA
BRANCH  26  30
ATOM     30  C   UNL     1       3.139   0.157  22.926  0.00  0.00    +0.021 A 
ATOM     31  C   UNL     1       3.643  -0.388  23.282  0.00  0.00    +0.042 A 
ATOM     32  C   UNL     1       4.449  -0.224  23.349  0.00  0.00    +0.176 A 
ATOM     33  C   UNL     1       4.750   0.488  23.060  0.00  0.00    +0.176 A 
ATOM     34  O   UNL     1       5.562   0.499  23.202  0.00  0.00    -0.435 OA
ATOM     35  C   UNL     1       5.763  -0.206  23.580  0.00  0.00    +0.429 C 
ATOM     36  O   UNL     1       5.076  -0.652  23.671  0.00  0.00    -0.435 OA
ATOM     37  C   UNL     1       4.244   1.035  22.703  0.00  0.00    +0.040 A 
ATOM     38  C   UNL     1       3.439   0.869  22.637  0.00  0.00    +0.005 A 
ENDBRANCH  26  30
ENDBRANCH  19  23
BRANCH  15  14
ATOM     14  N   UNL     1      -2.959  -0.077  24.434  0.00  0.00    -0.074 NA
BRANCH  14  11
ATOM     11  S   UNL     1      -3.514   0.519  24.567  0.00  0.00    +0.077 S 
ATOM     12  O   UNL     1      -3.472   0.734  23.771  0.00  0.00    -0.152 OA
ATOM     13  O   UNL     1      -3.556   0.303  25.362  0.00  0.00    -0.152 OA
BRANCH  11   8
ATOM      5  C   UNL     1      -5.180   2.305  24.964  0.00  0.00    +0.073 A 
ATOM      6  C   UNL     1      -4.596   2.405  24.389  0.00  0.00    +0.018 A 
ATOM      7  C   UNL     1      -4.041   1.809  24.257  0.00  0.00    +0.021 A 
ATOM      8  C   UNL     1      -4.069   1.114  24.699  0.00  0.00    +0.124 A 
ATOM      9  C   UNL     1      -4.652   1.013  25.274  0.00  0.00    +0.021 A 
ATOM     10  C   UNL     1      -5.208   1.609  25.406  0.00  0.00    +0.018 A 
BRANCH   5   4
ATOM      1  C   UNL     1      -6.074   4.177  25.643  0.00  0.00    +0.097 C 
ATOM      2  C   UNL     1      -5.520   3.582  25.511  0.00  0.00    +0.246 C 
ATOM      3  O   UNL     1      -4.749   3.666  25.792  0.00  0.00    -0.273 OA
ATOM      4  N   UNL     1      -5.735   2.901  25.096  0.00  0.00    -0.179 NA
ENDBRANCH   5   4
ENDBRANCH  11   8
ENDBRANCH  14  11
ENDBRANCH  15  14
TORSDOF 6
ENDMDL
MODEL 2
REMARK VINA RESULT:      -8.7      1.554      7.719
REMARK  Name = 
REMARK  6 active torsions:
REMARK  status: ('A' for Active; 'I' for Inactive)
REMARK    1  A    between atoms: N_4  and  C_5
REMARK    2  A    between atoms: C_8  and  S_11
REMARK    3  A    between atoms: S_11  and  N_14
REMARK    4  A    between atoms: N_14  and  C_15
REMARK    5  A    between atoms: C_19  and  N_23
REMARK    6  A    between atoms: C_26  and  C_30
REMARK                            x       y       z     vdW  Elec       q    Type
REMARK                         _______ _______ _______ _____ _____    ______ ____
ROOT
ATOM     15  C   UNL     1       0.555   0.064  23.199  0.00  0.00    +0.157 C 
ATOM     16  C   UNL     1       0.576   0.888  23.154  0.00  0.00    +0.164 C 
ATOM     17  O   UNL     1      -0.073   1.183  23.569  0.00  0.00    -0.350 OA
ATOM     18  C   UNL     1      -0.496   0.542  23.870  0.00  0.00    +0.166 C 
ATOM     19  C   UNL     1      -1.159   0.329  24.314  0.00  0.00    +0.154 C 
ATOM     20  C   UNL     1      -1.180  -0.494  24.358  0.00  0.00    +0.166 C 
ATOM     21  O   UNL     1      -0.531  -0.790  23.944  0.00  0.00    -0.350 OA
ATOM     22  C   UNL     1      -0.108  -0.150  23.642  0.00  0.00    +0.164 C 
ENDROOT
BRANCH  19  23
ATOM     23  N   UNL     1      -1.703   0.848  24.651  0.00  0.00    -0.200 NA
ATOM     24  C   UNL     1      -2.506   0.772  24.480  0.00  0.00    +0.237 A 
ATOM     25  N   UNL     1      -3.052   1.291  24.818  0.00  0.00    -0.212 NA
ATOM     26  C   UNL     1      -3.855   1.215  24.646  0.00  0.00    +0.086 A 
ATOM     27  C   UNL     1      -4.113   0.620  24.136  0.00  0.00    +0.040 A 
ATOM     28  C   UNL     1      -3.569   0.101  23.798  0.00  0.00    +0.103 A 
ATOM     29  N   UNL     1      -2.765   0.177  23.970  0.00  0.00    -0.211 NA
BRANCH  26  30
ATOM     30  C   UNL     1      -4.400   1.734  24.984  0.00  0.00    +0.021 A 
ATOM     31  C   UNL     1      -4.293   2.548  24.913  0.00  0.00    +0.042 A 
ATOM     32  C   UNL     1      -4.838   3.068  25.251  0.00  0.00    +0.176 A 
ATOM     33  C   UNL     1      -5.490   2.772  25.661  0.00  0.00    +0.176 A 
ATOM     34  O   UNL     1      -5.931   3.412  25.934  0.00  0.00    -0.435 OA
ATOM     35  C   UNL     1      -5.553   4.104  25.693  0.00  0.00    +0.429 C 
ATOM     36  O   UNL     1      -4.877   3.891  25.271  0.00  0.00    -0.435 OA
ATOM     37  C   UNL     1      -5.597   1.956  25.732  0.00  0.00    +0.040 A 
ATOM     38  C   UNL     1      -5.052   1.438  25.394  0.00  0.00    +0.005 A 
ENDBRANCH  26  30
ENDBRANCH  19  23
BRANCH  15  14
ATOM     14  N   UNL     1       1.099  -0.454  22.861  0.00  0.00    -0.074 NA
BRANCH  14  11
ATOM     11  S   UNL     1       1.906  -0.288  22.900  0.00  0.00    +0.077 S 
ATOM     12  O   UNL     1       1.870   0.060  22.153  0.00  0.00    -0.152 OA
ATOM     13  O   UNL     1       1.942  -0.636  23.647  0.00  0.00    -0.152 OA
BRANCH  11   8
ATOM      5  C   UNL     1       4.327   0.212  23.016  0.00  0.00    +0.073 A 
ATOM      6  C   UNL     1       3.801   0.783  22.738  0.00  0.00    +0.018 A 
ATOM      7  C   UNL     1       2.993   0.616  22.700  0.00  0.00    +0.021 A 
ATOM      8  C   UNL     1       2.713  -0.121  22.939  0.00  0.00    +0.124 A 
ATOM      9  C   UNL     1       3.239  -0.693  23.217  0.00  0.00    +0.021 A 
ATOM     10  C   UNL     1       4.046  -0.527  23.255  0.00  0.00    +0.018 A 
BRANCH   5   4
ATOM      1  C   UNL     1       6.302   0.668  23.825  0.00  0.00    +0.097 C 
ATOM      2  C   UNL     1       5.496   0.501  23.787  0.00  0.00    +0.246 C 
ATOM      3  O   UNL     1       5.050   0.457  24.479  0.00  0.00    -0.273 OA
ATOM      4  N   UNL     1       5.134   0.379  23.055  0.00  0.00    -0.179 NA
ENDBRANCH   5   4
ENDBRANCH  11   8
ENDBRANCH  14  11
ENDBRANCH  15  14
TORSDOF 6
ENDMDL
MODEL 3
REMARK VINA RESULT:      -7.1      1.910      2.682
REMARK  Name = 
REMARK  6 active torsions:
REMARK  status: ('A' for Active; 'I' for Inactive)
REMARK    1  A    between atoms: N_4  and  C_5
REMARK    2  A    between atoms: C_8  and  S_11
REMARK    3  A    between atoms: S_11  and  N_14
REMARK    4  A    between atoms: N_14  and  C_15
REMARK    5  A    between atoms: C_19  and  N_23
REMARK    6  A    between atoms: C_26  and  C_30
REMARK                            x       y       z     vdW  Elec       q    Type
REMARK                         _______ _______ _______ _____ _____    ______ ____
ROOT
ATOM     15  C   UNL     1      -1.529   1.349  25.029  0.00  0.00    +0.157 C 
ATOM     16  C   UNL     1      -1.068   1.024  25.630  0.00  0.00    +0.164 C 
ATOM     17  O   UNL     1      -0.276   1.082  25.405  0.00  0.00    -0.350 OA
ATOM     18  C   UNL     1      -0.249   1.443  24.664  0.00  0.00    +0.166 C 
ATOM     19  C   UNL     1       0.259   1.701  24.066  0.00  0.00    +0.154 C 
ATOM     20  C   UNL     1      -0.203   2.026  23.464  0.00  0.00    +0.166 C 
ATOM     21  O   UNL     1      -0.994   1.968  23.690  0.00  0.00    -0.350 OA
ATOM     22  C   UNL     1      -1.023   1.608  24.430  0.00  0.00    +0.164 C 
ENDROOT
BRANCH  19  23
ATOM     23  N   UNL     1       1.081   1.645  24.070  0.00  0.00    -0.200 NA
ATOM     24  C   UNL     1       1.459   1.099  23.581  0.00  0.00    +0.237 A 
ATOM     25  N   UNL     1       2.283   1.042  23.584  0.00  0.00    -0.212 NA
ATOM     26  C   UNL     1       2.661   0.496  23.095  0.00  0.00    +0.086 A 
ATOM     27  C   UNL     1       2.216   0.007  22.602  0.00  0.00    +0.040 A 
ATOM     28  C   UNL     1       1.393   0.064  22.598  0.00  0.00    +0.103 A 
ATOM     29  N   UNL     1       1.015   0.610  23.087  0.00  0.00    -0.211 NA
BRANCH  26  30
ATOM     30  C   UNL     1       3.484   0.440  23.099  0.00  0.00    +0.021 A 
ATOM     31  C   UNL     1       3.853  -0.172  23.509  0.00  0.00    +0.042 A 
ATOM     32  C   UNL     1       4.676  -0.229  23.514  0.00  0.00    +0.176 A 
ATOM     33  C   UNL     1       5.130   0.327  23.106  0.00  0.00    +0.176 A 
ATOM     34  O   UNL     1       5.924   0.132  23.208  0.00  0.00    -0.435 OA
ATOM     35  C   UNL     1       5.963  -0.544  23.678  0.00  0.00    +0.429 C 
ATOM     36  O   UNL     1       5.191  -0.767  23.867  0.00  0.00    -0.435 OA
ATOM     37  C   UNL     1       4.760   0.940  22.695  0.00  0.00    +0.040 A 
ATOM     38  C   UNL     1       3.937   0.996  22.692  0.00  0.00    +0.005 A 
ENDBRANCH  26  30
ENDBRANCH  19  23
BRANCH  15  14
ATOM     14  N   UNL     1      -2.352   1.405  25.025  0.00  0.00    -0.074 NA
BRANCH  14  11
ATOM     11  S   UNL     1      -2.809   0.746  24.833  0.00  0.00    +0.077 S 
ATOM     12  O   UNL     1      -2.538   0.361  25.511  0.00  0.00    -0.152 OA
ATOM     13  O   UNL     1      -3.081   1.131  24.156  0.00  0.00    -0.152 OA
BRANCH  11   8
ATOM      5  C   UNL     1      -4.182  -1.232  24.260  0.00  0.00    +0.073 A 
ATOM      6  C   UNL     1      -3.986  -0.682  23.677  0.00  0.00    +0.018 A 
ATOM      7  C   UNL     1      -3.528  -0.023  23.868  0.00  0.00    +0.021 A 
ATOM      8  C   UNL     1      -3.267   0.087  24.642  0.00  0.00    +0.124 A 
ATOM      9  C   UNL     1      -3.463  -0.462  25.226  0.00  0.00    +0.021 A 
ATOM     10  C   UNL     1      -3.920  -1.122  25.035  0.00  0.00    +0.018 A 
BRANCH   5   4
ATOM      1  C   UNL     1      -4.731  -3.266  23.690  0.00  0.00    +0.097 C 
ATOM      2  C   UNL     1      -4.274  -2.607  23.881  0.00  0.00    +0.246 C 
ATOM      3  O   UNL     1      -3.451  -2.663  23.885  0.00  0.00    -0.273 OA
ATOM      4  N   UNL     1      -4.640  -1.891  24.069  0.00  0.00    -0.179 NA
ENDBRANCH   5   4
ENDBRANCH  11   8
ENDBRANCH  14  11
ENDBRANCH  15  14
TORSDOF 6
ENDMDL
