MODEL 1
REMARK VINA RESULT:      -9.8      0.000      0.000
REMARK  Name = 
REMARK  8 active torsions:
REMARK  status: ('A' for Active; 'I' for Inactive)
REMARK    1  A    between atoms: C_2  and  C_4
REMARK    2  A    between atoms: C_4  and  C_5
REMARK    3  A    between atoms: C_5  and  N_6
REMARK    4  A    between atoms: C_5  and  C_23
REMARK    5  A    between atoms: C_7  and  C_9
REMARK    6  A    between atoms: C_11  and  N_12
REMARK    7  A    between atoms: C_13  and  C_15
REMARK    8  A    between atoms: C_15  and  C_16
REMARK                            x       y       z     vdW  Elec       q    Type
REMARK                         _______ _______ _______ _____ _____    ______ ____
ROOT
ATOM      9  C   UNL     1      -3.936   1.562  24.678  0.00  0.00    +0.033 C 
ATOM     10  C   UNL     1      -3.533   2.279  24.615  0.00  0.00    -0.002 C 
ATOM     11  C   UNL     1      -3.909   2.983  24.827  0.00  0.00    +0.150 C 
ATOM     18  C   UNL     1      -4.687   2.970  25.100  0.00  0.00    +0.206 C 
ATOM     19  O   UNL     1      -5.062   3.673  25.311  0.00  0.00    -0.218 OA
ATOM     20  C   UNL     1      -5.089   2.252  25.162  0.00  0.00    +0.189 C 
ATOM     21  O   UNL     1      -5.869   2.238  25.435  0.00  0.00    -0.220 OA
ATOM     22  C   UNL     1      -4.714   1.549  24.951  0.00  0.00    +0.066 C 
ENDROOT
BRANCH   9   7
ATOM      6  N   UNL     1      -3.261   0.360  25.051  0.00  0.00    -0.194 NA
ATOM      7  C   UNL     1      -3.560   0.858  24.466  0.00  0.00    +0.261 C 
ATOM      8  O   UNL     1      -3.484   0.654  23.672  0.00  0.00    -0.269 OA
BRANCH   6   5
ATOM      5  C   UNL     1      -2.885  -0.344  24.840  0.00  0.00    +0.175 C 
BRANCH   5  23
ATOM     23  C   UNL     1      -2.062  -0.387  24.836  0.00  0.00    +0.281 C 
ATOM     24  N   UNL     1      -1.635  -0.202  25.518  0.00  0.00    -0.086 NA
ATOM     25  O   UNL     1      -1.663  -0.614  24.150  0.00  0.00    -0.270 OA
ENDBRANCH   5  23
BRANCH   5   4
ATOM      4  C   UNL     1      -3.333  -1.005  24.633  0.00  0.00    +0.031 C 
BRANCH   4   2
ATOM      1  C   UNL     1      -3.403  -2.406  24.905  0.00  0.00    +0.000 C 
ATOM      2  C   UNL     1      -3.426  -1.625  25.170  0.00  0.00    +0.002 C 
ATOM      3  C   UNL     1      -3.541  -1.464  25.970  0.00  0.00    +0.000 C 
ENDBRANCH   4   2
ENDBRANCH   5   4
ENDBRANCH   6   5
ENDBRANCH   9   7
BRANCH  11  12
ATOM     12  N   UNL     1      -3.506   3.700  24.764  0.00  0.00    -0.200 NA
ATOM     13  C   UNL     1      -2.810   3.820  25.192  0.00  0.00    +0.243 C 
ATOM     14  O   UNL     1      -2.518   3.223  25.681  0.00  0.00    -0.273 OA
BRANCH  13  15
ATOM     15  C   UNL     1      -2.406   4.537  25.130  0.00  0.00    +0.107 C 
BRANCH  15  16
ATOM     16  C   UNL     1      -1.604   4.576  25.321  0.00  0.00    +0.119 C 
ATOM     17  N   UNL     1      -1.153   5.220  25.072  0.00  0.00    -0.131 NA
ENDBRANCH  15  16
ENDBRANCH  13  15
ENDBRANCH  11  12
TORSDOF 8
ENDMDL
MODEL 2
REMARK VINA RESULT:      -9.3      1.400      4.258
REMARK  Name = 
REMARK  8 active torsions:
REMARK  status: ('A' for Active; 'I' for Inactive)
REMARK    1  A    between atoms: C_2  and  C_4
REMARK    2  A    between atoms: C_4  and  C_5
REMARK    3  A    between atoms: C_5  and  N_6
REMARK    4  A    between atoms: C_5  and  C_23
REMARK    5  A    between atoms: C_7  and  C_9
REMARK    6  A    between atoms: C_11  and  N_12
REMARK    7  A    between atoms: C_13  and  C_15
REMARK    8  A    between atoms: C_15  and  C_16
REMARK                            x       y       z     vdW  Elec       q    Type
REMARK                         _______ _______ _______ _____ _____    ______ ____
ROOT
ATOM      9  C   UNL     1      -3.513   1.986  24.567  0.00  0.00    +0.033 C 
ATOM     10  C   UNL     1      -3.507   1.182  24.748  0.00  0.00    -0.002 C 
ATOM     11  C   UNL     1      -4.213   0.793  24.925  0.00  0.00    +0.150 C 
ATOM     18  C   UNL     1      -4.925   1.210  24.921  0.00  0.00    +0.206 C 
ATOM     19  O   UNL     1      -5.631   0.821  25.097  0.00  0.00    -0.218 OA
ATOM     20  C   UNL     1      -4.931   2.015  24.740  0.00  0.00    +0.189 C 
ATOM     21  O   UNL     1      -5.644   2.432  24.736  0.00  0.00    -0.220 OA
ATOM     22  C   UNL     1      -4.225   2.403  24.563  0.00  0.00    +0.066 C 
ENDROOT
BRANCH   9   7
ATOM      6  N   UNL     1      -2.346   2.689  24.998  0.00  0.00    -0.194 NA
ATOM      7  C   UNL     1      -2.807   2.375  24.390  0.00  0.00    +0.261 C 
ATOM      8  O   UNL     1      -2.562   2.449  23.607  0.00  0.00    -0.269 OA
BRANCH   6   5
ATOM      5  C   UNL     1      -1.639   3.077  24.822  0.00  0.00    +0.175 C 
BRANCH   5  23
ATOM     23  C   UNL     1      -0.920   2.684  24.907  0.00  0.00    +0.281 C 
ATOM     24  N   UNL     1      -0.711   2.359  25.636  0.00  0.00    -0.086 NA
ATOM     25  O   UNL     1      -0.409   2.614  24.263  0.00  0.00    -0.270 OA
ENDBRANCH   5  23
BRANCH   5   4
ATOM      4  C   UNL     1      -1.654   3.859  24.560  0.00  0.00    +0.031 C 
BRANCH   4   2
ATOM      1  C   UNL     1      -0.874   4.979  24.984  0.00  0.00    +0.000 C 
ATOM      2  C   UNL     1      -1.517   4.475  25.093  0.00  0.00    +0.002 C 
ATOM      3  C   UNL     1      -2.024   4.585  25.733  0.00  0.00    +0.000 C 
ENDBRANCH   4   2
ENDBRANCH   5   4
ENDBRANCH   6   5
ENDBRANCH   9   7
BRANCH  11  12
ATOM     12  N   UNL     1      -4.207  -0.012  25.105  0.00  0.00    -0.200 NA
ATOM     13  C   UNL     1      -3.997  -0.562  24.526  0.00  0.00    +0.243 C 
ATOM     14  O   UNL     1      -3.794  -0.307  23.768  0.00  0.00    -0.273 OA
BRANCH  13  15
ATOM     15  C   UNL     1      -3.990  -1.367  24.707  0.00  0.00    +0.107 C 
BRANCH  15  16
ATOM     16  C   UNL     1      -3.797  -1.919  24.123  0.00  0.00    +0.119 C 
ATOM     17  N   UNL     1      -3.714  -2.715  24.321  0.00  0.00    -0.131 NA
ENDBRANCH  15  16
ENDBRANCH  13  15
ENDBRANCH  11  12
TORSDOF 8
ENDMDL
MODEL 3
REMARK VINA RESULT:      -9.1      1.459      4.607
REMARK  Name = 
REMARK  8 active torsions:
REMARK  status: ('A' for Active; 'I' for Inactive)
REMARK    1  A    between atoms: C_2  and  C_4
REMARK    2  A    between atoms: C_4  and  C_5
REMARK    3  A    between atoms: C_5  and  N_6
REMARK    4  A    between atoms: C_5  and  C_23
REMARK    5  A    between atoms: C_7  and  C_9
REMARK    6  A    between atoms: C_11  and  N_12
REMARK    7  A    between atoms: C_13  and  C_15
REMARK    8  A    between atoms: C_15  and  C_16
REMARK                            x       y       z     vdW  Elec       q    Type
REMARK                         _______ _______ _______ _____ _____    ______ ____
ROOT
ATOM      9  C   UNL     1      -2.358   1.385  24.693  0.00  0.00    +0.033 C 
ATOM     10  C   UNL     1      -2.478   0.594  24.490  0.00  0.00    -0.002 C 
ATOM     11  C   UNL     1      -1.919   0.025  24.702  0.00  0.00    +0.150 C 
ATOM     18  C   UNL     1      -1.240   0.247  25.116  0.00  0.00    +0.206 C 
ATOM     19  O   UNL     1      -0.682  -0.321  25.328  0.00  0.00    -0.218 OA
ATOM     20  C   UNL     1      -1.122   1.038  25.318  0.00  0.00    +0.189 C 
ATOM     21  O   UNL     1      -0.443   1.261  25.733  0.00  0.00    -0.220 OA
ATOM     22  C   UNL     1      -1.680   1.607  25.107  0.00  0.00    +0.066 C 
ENDROOT
BRANCH   9   7
ATOM      6  N   UNL     1      -3.432   2.257  25.050  0.00  0.00    -0.194 NA
ATOM      7  C   UNL     1      -2.917   1.954  24.481  0.00  0.00    +0.261 C 
ATOM      8  O   UNL     1      -2.961   2.219  23.702  0.00  0.00    -0.269 OA
BRANCH   6   5
ATOM      5  C   UNL     1      -3.992   2.826  24.838  0.00  0.00    +0.175 C 
BRANCH   5  23
ATOM     23  C   UNL     1      -3.803   3.627  24.884  0.00  0.00    +0.281 C 
ATOM     24  N   UNL     1      -3.520   3.944  25.592  0.00  0.00    -0.086 NA
ATOM     25  O   UNL     1      -3.896   4.112  24.223  0.00  0.00    -0.270 OA
ENDBRANCH   5  23
BRANCH   5   4
ATOM      4  C   UNL     1      -4.740   2.592  24.580  0.00  0.00    +0.031 C 
BRANCH   4   2
ATOM      1  C   UNL     1      -5.758   1.695  25.028  0.00  0.00    +0.000 C 
ATOM      2  C   UNL     1      -5.320   2.386  25.131  0.00  0.00    +0.002 C 
ATOM      3  C   UNL     1      -5.460   2.871  25.782  0.00  0.00    +0.000 C 
ENDBRANCH   4   2
ENDBRANCH   5   4
ENDBRANCH   6   5
ENDBRANCH   9   7
BRANCH  11  12
ATOM     12  N   UNL     1      -2.039  -0.765  24.499  0.00  0.00    -0.200 NA
ATOM     13  C   UNL     1      -2.686  -1.176  24.807  0.00  0.00    +0.243 C 
ATOM     14  O   UNL     1      -3.212  -0.796  25.316  0.00  0.00    -0.273 OA
BRANCH  13  15
ATOM     15  C   UNL     1      -2.806  -1.966  24.604  0.00  0.00    +0.107 C 
BRANCH  15  16
ATOM     16  C   UNL     1      -3.533  -2.325  24.758  0.00  0.00    +0.119 C 
ATOM     17  N   UNL     1      -3.693  -3.077  24.457  0.00  0.00    -0.131 NA
ENDBRANCH  15  16
ENDBRANCH  13  15
ENDBRANCH  11  12
TORSDOF 8
ENDMDL
MODEL 4
REMARK VINA RESULT:      -9.0      1.898      3.162
REMARK  Name = 
REMARK  8 active torsions:
REMARK  status: ('A' for Active; 'I' for Inactive)
REMARK    1  A    between atoms: C_2  and  C_4
REMARK    2  A    between atoms: C_4  and  C_5
REMARK    3  A    between atoms: C_5  and  N_6
REMARK    4  A    between atoms: C_5  and  C_23
REMARK    5  A    between atoms: C_7  and  C_9
REMARK    6  A    between atoms: C_11  and  N_12
REMARK    7  A    between atoms: C_13  and  C_15
REMARK    8  A    between atoms: C_15  and  C_16
REMARK                            x       y       z     vdW  Elec       q    Type
REMARK                         _______ _______ _______ _____ _____    ______ ____
ROOT
ATOM      9  C   UNL     1      -1.152   0.142  24.892  0.00  0.00    +0.033 C 
ATOM     10  C   UNL     1      -1.179   0.892  25.235  0.00  0.00    -0.002 C 
ATOM     11  C   UNL     1      -0.632   1.468  25.010  0.00  0.00    +0.150 C 
ATOM     18  C   UNL     1      -0.059   1.295  24.442  0.00  0.00    +0.206 C 
ATOM     19  O   UNL     1       0.486   1.870  24.218  0.00  0.00    -0.218 OA
ATOM     20  C   UNL     1      -0.033   0.545  24.099  0.00  0.00    +0.189 C 
ATOM     21  O   UNL     1       0.540   0.371  23.531  0.00  0.00    -0.220 OA
ATOM     22  C   UNL     1      -0.579  -0.031  24.324  0.00  0.00    +0.066 C 
ENDROOT
BRANCH   9   7
ATOM      6  N   UNL     1      -2.205  -0.763  24.554  0.00  0.00    -0.194 NA
ATOM      7  C   UNL     1      -1.698  -0.434  25.116  0.00  0.00    +0.261 C 
ATOM      8  O   UNL     1      -1.738  -0.680  25.902  0.00  0.00    -0.269 OA
BRANCH   6   5
ATOM      5  C   UNL     1      -2.751  -1.339  24.779  0.00  0.00    +0.175 C 
BRANCH   5  23
ATOM     23  C   UNL     1      -2.533  -2.134  24.786  0.00  0.00    +0.281 C 
ATOM     24  N   UNL     1      -2.750  -2.617  25.420  0.00  0.00    -0.086 NA
ATOM     25  O   UNL     1      -2.099  -2.448  24.159  0.00  0.00    -0.270 OA
ENDBRANCH   5  23
BRANCH   5   4
ATOM      4  C   UNL     1      -3.516  -1.119  24.998  0.00  0.00    +0.031 C 
BRANCH   4   2
ATOM      1  C   UNL     1      -4.330  -1.562  23.910  0.00  0.00    +0.000 C 
ATOM      2  C   UNL     1      -4.080  -0.961  24.417  0.00  0.00    +0.002 C 
ATOM      3  C   UNL     1      -4.394  -0.202  24.343  0.00  0.00    +0.000 C 
ENDBRANCH   4   2
ENDBRANCH   5   4
ENDBRANCH   6   5
ENDBRANCH   9   7
BRANCH  11  12
ATOM     12  N   UNL     1      -0.659   2.218  25.353  0.00  0.00    -0.200 NA
ATOM     13  C   UNL     1      -1.310   2.709  25.221  0.00  0.00    +0.243 C 
ATOM     14  O   UNL     1      -1.932   2.449  24.745  0.00  0.00    -0.273 OA
BRANCH  13  15
ATOM     15  C   UNL     1      -1.337   3.458  25.564  0.00  0.00    +0.107 C 
BRANCH  15  16
ATOM     16  C   UNL     1      -1.897   4.008  25.309  0.00  0.00    +0.119 C 
ATOM     17  N   UNL     1      -1.786   4.811  25.463  0.00  0.00    -0.131 NA
ENDBRANCH  15  16
ENDBRANCH  13  15
ENDBRANCH  11  12
TORSDOF 8
ENDMDL
MODEL 5
REMARK VINA RESULT:      -8.9      2.007      3.969
REMARK  Name = 
REMARK  8 active torsions:
REMARK  status: ('A' for Active; 'I' for Inactive)
REMARK    1  A    between atoms: C_2  and  C_4
REMARK    2  A    between atoms: C_4  and  C_5
REMARK    3  A    between atoms: C_5  and  N_6
REMARK    4  A    between atoms: C_5  and  C_23
REMARK    5  A    between atoms: C_7  and  C_9
REMARK    6  A    between atoms: C_11  and  N_12
REMARK    7  A    between atoms: C_13  and  C_15
REMARK    8  A    between atoms: C_15  and  C_16
REMARK                            x       y       z     vdW  Elec       q    Type
REMARK                         _______ _______ _______ _____ _____    ______ ____
ROOT
ATOM      9  C   UNL     1      -2.686   3.544  24.965  0.00  0.00    +0.033 C 
ATOM     10  C   UNL     1      -2.211   2.870  24.979  0.00  0.00    -0.002 C 
ATOM     11  C   UNL     1      -1.398   2.942  25.099  0.00  0.00    +0.150 C 
ATOM     18  C   UNL     1      -1.060   3.687  25.206  0.00  0.00    +0.206 C 
ATOM     19  O   UNL     1      -0.248   3.758  25.326  0.00  0.00    -0.218 OA
ATOM     20  C   UNL     1      -1.536   4.361  25.192  0.00  0.00    +0.189 C 
ATOM     21  O   UNL     1      -1.198   5.107  25.298  0.00  0.00    -0.220 OA
ATOM     22  C   UNL     1      -2.349   4.290  25.072  0.00  0.00    +0.066 C 
ENDROOT
BRANCH   9   7
ATOM      6  N   UNL     1      -3.953   3.013  25.358  0.00  0.00    -0.194 NA
ATOM      7  C   UNL     1      -3.500   3.473  24.845  0.00  0.00    +0.261 C 
ATOM      8  O   UNL     1      -3.859   3.861  24.213  0.00  0.00    -0.269 OA
BRANCH   6   5
ATOM      5  C   UNL     1      -4.767   2.941  25.238  0.00  0.00    +0.175 C 
BRANCH   5  23
ATOM     23  C   UNL     1      -5.292   3.382  25.696  0.00  0.00    +0.281 C 
ATOM     24  N   UNL     1      -5.359   3.234  26.505  0.00  0.00    -0.086 NA
ATOM     25  O   UNL     1      -5.750   3.972  25.346  0.00  0.00    -0.270 OA
ENDBRANCH   5  23
BRANCH   5   4
ATOM      4  C   UNL     1      -5.054   2.429  24.659  0.00  0.00    +0.031 C 
BRANCH   4   2
ATOM      1  C   UNL     1      -4.836   1.051  24.969  0.00  0.00    +0.000 C 
ATOM      2  C   UNL     1      -5.351   1.689  24.875  0.00  0.00    +0.002 C 
ATOM      3  C   UNL     1      -6.160   1.588  24.995  0.00  0.00    +0.000 C 
ENDBRANCH   4   2
ENDBRANCH   5   4
ENDBRANCH   6   5
ENDBRANCH   9   7
BRANCH  11  12
ATOM     12  N   UNL     1      -0.923   2.267  25.113  0.00  0.00    -0.200 NA
ATOM     13  C   UNL     1      -0.858   1.795  24.439  0.00  0.00    +0.243 C 
ATOM     14  O   UNL     1      -1.268   1.997  23.752  0.00  0.00    -0.273 OA
BRANCH  13  15
ATOM     15  C   UNL     1      -0.383   1.121  24.453  0.00  0.00    +0.107 C 
BRANCH  15  16
ATOM     16  C   UNL     1      -0.339   0.634  23.787  0.00  0.00    +0.119 C 
ATOM     17  N   UNL     1       0.105  -0.061  23.814  0.00  0.00    -0.131 NA
ENDBRANCH  15  16
ENDBRANCH  13  15
ENDBRANCH  11  12
TORSDOF 8
ENDMDL
MODEL 6
REMARK VINA RESULT:      -8.9      1.700      2.591
REMARK  Name = 
REMARK  8 active torsions:
REMARK  status: ('A' for Active; 'I' for Inactive)
REMARK    1  A    between atoms: C_2  and  C_4
REMARK    2  A    between atoms: C_4  and  C_5
REMARK    3  A    between atoms: C_5  and  N_6
REMARK    4  A    between atoms: C_5  and  C_23
REMARK    5  A    between atoms: C_7  and  C_9
REMARK    6  A    between atoms: C_11  and  N_12
REMARK    7  A    between atoms: C_13  and  C_15
REMARK    8  A    between atoms: C_15  and  C_16
REMARK                            x       y       z     vdW  Elec       q    Type
REMARK                         _______ _______ _______ _____ _____    ______ ____
ROOT
ATOM      9  C   UNL     1      -2.483   1.031  24.313  0.00  0.00    +0.033 C 
ATOM     10  C   UNL     1      -3.071   1.466  24.695  0.00  0.00    -0.002 C 
ATOM     11  C   UNL     1      -3.437   2.095  24.306  0.00  0.00    +0.150 C 
ATOM     18  C   UNL     1      -3.216   2.289  23.536  0.00  0.00    +0.206 C 
ATOM     19  O   UNL     1      -3.582   2.917  23.147  0.00  0.00    -0.218 OA
ATOM     20  C   UNL     1      -2.627   1.854  23.154  0.00  0.00    +0.189 C 
ATOM     21  O   UNL     1      -2.405   2.048  22.383  0.00  0.00    -0.220 OA
ATOM     22  C   UNL     1      -2.261   1.225  23.542  0.00  0.00    +0.066 C 
ENDROOT
BRANCH   9   7
ATOM      6  N   UNL     1      -2.154  -0.358  24.383  0.00  0.00    -0.194 NA
ATOM      7  C   UNL     1      -2.117   0.402  24.702  0.00  0.00    +0.261 C 
ATOM      8  O   UNL     1      -1.714   0.533  25.409  0.00  0.00    -0.269 OA
BRANCH   6   5
ATOM      5  C   UNL     1      -1.787  -0.987  24.772  0.00  0.00    +0.175 C 
BRANCH   5  23
ATOM     23  C   UNL     1      -0.982  -1.126  24.663  0.00  0.00    +0.281 C 
ATOM     24  N   UNL     1      -0.492  -1.244  25.317  0.00  0.00    -0.086 NA
ATOM     25  O   UNL     1      -0.666  -1.147  23.902  0.00  0.00    -0.270 OA
ENDBRANCH   5  23
BRANCH   5   4
ATOM      4  C   UNL     1      -2.228  -1.476  25.269  0.00  0.00    +0.031 C 
BRANCH   4   2
ATOM      1  C   UNL     1      -2.446  -2.606  24.421  0.00  0.00    +0.000 C 
ATOM      2  C   UNL     1      -2.737  -2.040  24.946  0.00  0.00    +0.002 C 
ATOM      3  C   UNL     1      -3.536  -2.038  25.149  0.00  0.00    +0.000 C 
ENDBRANCH   4   2
ENDBRANCH   5   4
ENDBRANCH   6   5
ENDBRANCH   9   7
BRANCH  11  12
ATOM     12  N   UNL     1      -4.025   2.529  24.689  0.00  0.00    -0.200 NA
ATOM     13  C   UNL     1      -4.726   2.160  24.919  0.00  0.00    +0.243 C 
ATOM     14  O   UNL     1      -4.839   1.357  24.767  0.00  0.00    -0.273 OA
BRANCH  13  15
ATOM     15  C   UNL     1      -5.314   2.594  25.302  0.00  0.00    +0.107 C 
BRANCH  15  16
ATOM     16  C   UNL     1      -5.864   2.209  25.782  0.00  0.00    +0.119 C 
ATOM     17  N   UNL     1      -6.220   2.614  26.407  0.00  0.00    -0.131 NA
ENDBRANCH  15  16
ENDBRANCH  13  15
ENDBRANCH  11  12
TORSDOF 8
ENDMDL
