MODEL 1
REMARK VINA RESULT:     -10.1      0.000      0.000
REMARK  Name = 
REMARK  5 active torsions:
REMARK  status: ('A' for Active; 'I' for Inactive)
REMARK    1  A    between atoms: C_8  and  C_10
REMARK    2  A    between atoms: C_10  and  C_11
REMARK    3  A    between atoms: C_13  and  C_14
REMARK    4  A    between atoms: C_14  and  N_15
REMARK    5  A    between atoms: N_15  and  S_16
REMARK                            x       y       z     vdW  Elec       q    Type
REMARK                         _______ _______ _______ _____ _____    ______ ____
ROOT
ATOM     11  C   UNL     1      -4.561   1.461  24.832  0.00  0.00    +0.157 C 
ATOM     12  O   UNL     1      -3.891   1.936  24.899  0.00  0.00    -0.351 OA
ATOM     13  C   UNL     1      -4.139   2.706  25.065  0.00  0.00    +0.167 C 
ATOM     20  C   UNL     1      -4.963   2.706  25.100  0.00  0.00    +0.213 C 
ATOM     21  O   UNL     1      -5.442   3.359  25.252  0.00  0.00    -0.218 OA
ATOM     22  C   UNL     1      -5.224   1.936  24.956  0.00  0.00    +0.212 C 
ATOM     23  O   UNL     1      -6.010   1.686  24.939  0.00  0.00    -0.218 OA
ENDROOT
BRANCH  11  10
ATOM     10  C   UNL     1      -4.568   0.652  24.669  0.00  0.00    +0.117 C 
BRANCH  10   8
ATOM      1  C   UNL     1      -3.638  -2.972  24.126  0.00  0.00    +0.000 C 
ATOM      2  C   UNL     1      -3.759  -2.195  24.377  0.00  0.00    +0.003 C 
ATOM      3  C   UNL     1      -4.207  -1.678  23.916  0.00  0.00    +0.022 C 
ATOM      4  C   UNL     1      -4.327  -0.901  24.167  0.00  0.00    +0.093 C 
ATOM      5  N   UNL     1      -3.999  -0.642  24.879  0.00  0.00    -0.279 N 
ATOM      6  C   UNL     1      -3.551  -1.159  25.339  0.00  0.00    +0.093 C 
ATOM      7  C   UNL     1      -3.431  -1.936  25.088  0.00  0.00    +0.022 C 
ATOM      8  C   UNL     1      -4.120   0.135  25.130  0.00  0.00    +0.228 C 
ATOM      9  O   UNL     1      -3.792   0.394  25.840  0.00  0.00    -0.275 OA
ENDBRANCH  10   8
ENDBRANCH  11  10
BRANCH  13  14
ATOM     14  C   UNL     1      -3.649   3.360  25.176  0.00  0.00    +0.147 C 
BRANCH  14  15
ATOM     15  N   UNL     1      -2.833   3.257  25.245  0.00  0.00    -0.079 NA
BRANCH  15  16
ATOM     16  S   UNL     1      -2.341   3.913  25.340  0.00  0.00    +0.059 S 
ATOM     17  C   UNL     1      -1.849   4.568  25.434  0.00  0.00    +0.197 C 
ATOM     18  O   UNL     1      -2.384   3.826  26.159  0.00  0.00    -0.156 OA
ATOM     19  O   UNL     1      -2.298   3.998  24.521  0.00  0.00    -0.156 OA
ENDBRANCH  15  16
ENDBRANCH  14  15
ENDBRANCH  13  14
TORSDOF 5
ENDMDL
MODEL 2
REMARK VINA RESULT:      -8.8      1.543      4.628
REMARK  Name = 
REMARK  5 active torsions:
REMARK  status: ('A' for Active; 'I' for Inactive)
REMARK    1  A    between atoms: C_8  and  C_10
REMARK    2  A    between atoms: C_10  and  C_11
REMARK    3  A    between atoms: C_13  and  C_14
REMARK    4  A    between atoms: C_14  and  N_15
REMARK    5  A    between atoms: N_15  and  S_16
REMARK                            x       y       z     vdW  Elec       q    Type
REMARK                         _______ _______ _______ _____ _____    ______ ____
ROOT
ATOM     11  C   UNL     1      -3.895   2.026  24.911  0.00  0.00    +0.157 C 
ATOM     12  O   UNL     1      -3.616   1.253  24.978  0.00  0.00    -0.351 OA
ATOM     13  C   UNL     1      -4.267   0.745  24.963  0.00  0.00    +0.167 C 
ATOM     20  C   UNL     1      -4.947   1.205  24.888  0.00  0.00    +0.213 C 
ATOM     21  O   UNL     1      -5.721   0.923  24.851  0.00  0.00    -0.218 OA
ATOM     22  C   UNL     1      -4.717   1.997  24.856  0.00  0.00    +0.212 C 
ATOM     23  O   UNL     1      -5.222   2.646  24.781  0.00  0.00    -0.218 OA
ENDROOT
BRANCH  11  10
ATOM     10  C   UNL     1      -3.432   2.709  24.902  0.00  0.00    +0.117 C 
BRANCH  10   8
ATOM      1  C   UNL     1      -0.585   5.191  25.052  0.00  0.00    +0.000 C 
ATOM      2  C   UNL     1      -1.110   4.568  24.927  0.00  0.00    +0.003 C 
ATOM      3  C   UNL     1      -1.856   4.580  25.278  0.00  0.00    +0.022 C 
ATOM      4  C   UNL     1      -2.381   3.957  25.153  0.00  0.00    +0.093 C 
ATOM      5  N   UNL     1      -2.160   3.320  24.676  0.00  0.00    -0.279 N 
ATOM      6  C   UNL     1      -1.414   3.309  24.325  0.00  0.00    +0.093 C 
ATOM      7  C   UNL     1      -0.889   3.932  24.450  0.00  0.00    +0.022 C 
ATOM      8  C   UNL     1      -2.686   2.697  24.550  0.00  0.00    +0.228 C 
ATOM      9  O   UNL     1      -2.465   2.061  24.073  0.00  0.00    -0.275 OA
ENDBRANCH  10   8
ENDBRANCH  11  10
BRANCH  13  14
ATOM     14  C   UNL     1      -4.241  -0.077  25.015  0.00  0.00    +0.147 C 
BRANCH  14  15
ATOM     15  N   UNL     1      -3.527  -0.459  25.174  0.00  0.00    -0.079 NA
BRANCH  15  16
ATOM     16  S   UNL     1      -3.497  -1.283  25.211  0.00  0.00    +0.059 S 
ATOM     17  C   UNL     1      -3.468  -2.106  25.248  0.00  0.00    +0.197 C 
ATOM     18  O   UNL     1      -3.450  -1.317  24.388  0.00  0.00    -0.156 OA
ATOM     19  O   UNL     1      -3.545  -1.247  26.033  0.00  0.00    -0.156 OA
ENDBRANCH  15  16
ENDBRANCH  14  15
ENDBRANCH  13  14
TORSDOF 5
ENDMDL
MODEL 3
REMARK VINA RESULT:      -8.7      1.465      2.280
REMARK  Name = 
REMARK  5 active torsions:
REMARK  status: ('A' for Active; 'I' for Inactive)
REMARK    1  A    between atoms: C_8  and  C_10
REMARK    2  A    between atoms: C_10  and  C_11
REMARK    3  A    between atoms: C_13  and  C_14
REMARK    4  A    between atoms: C_14  and  N_15
REMARK    5  A    between atoms: N_15  and  S_16
REMARK                            x       y       z     vdW  Elec       q    Type
REMARK                         _______ _______ _______ _____ _____    ______ ____
ROOT
ATOM     11  C   UNL     1      -2.658   1.140  24.437  0.00  0.00    +0.157 C 
ATOM     12  O   UNL     1      -3.316   1.551  24.719  0.00  0.00    -0.351 OA
ATOM     13  C   UNL     1      -3.142   2.357  24.698  0.00  0.00    +0.167 C 
ATOM     20  C   UNL     1      -2.377   2.445  24.403  0.00  0.00    +0.213 C 
ATOM     21  O   UNL     1      -1.981   3.159  24.289  0.00  0.00    -0.218 OA
ATOM     22  C   UNL     1      -2.078   1.693  24.241  0.00  0.00    +0.212 C 
ATOM     23  O   UNL     1      -1.330   1.523  23.937  0.00  0.00    -0.218 OA
ENDROOT
BRANCH  11  10
ATOM     10  C   UNL     1      -2.593   0.321  24.363  0.00  0.00    +0.117 C 
BRANCH  10   8
ATOM      1  C   UNL     1      -3.508  -3.323  24.780  0.00  0.00    +0.000 C 
ATOM      2  C   UNL     1      -3.436  -2.521  24.598  0.00  0.00    +0.003 C 
ATOM      3  C   UNL     1      -2.808  -2.084  24.907  0.00  0.00    +0.022 C 
ATOM      4  C   UNL     1      -2.736  -1.282  24.726  0.00  0.00    +0.093 C 
ATOM      5  N   UNL     1      -3.292  -0.918  24.236  0.00  0.00    -0.279 N 
ATOM      6  C   UNL     1      -3.920  -1.356  23.928  0.00  0.00    +0.093 C 
ATOM      7  C   UNL     1      -3.991  -2.158  24.110  0.00  0.00    +0.022 C 
ATOM      8  C   UNL     1      -3.221  -0.116  24.055  0.00  0.00    +0.228 C 
ATOM      9  O   UNL     1      -3.776   0.247  23.566  0.00  0.00    -0.275 OA
ENDBRANCH  10   8
ENDBRANCH  11  10
BRANCH  13  14
ATOM     14  C   UNL     1      -3.645   2.968  24.931  0.00  0.00    +0.147 C 
BRANCH  14  15
ATOM     15  N   UNL     1      -4.309   2.802  25.391  0.00  0.00    -0.079 NA
BRANCH  15  16
ATOM     16  S   UNL     1      -4.886   3.381  25.508  0.00  0.00    +0.059 S 
ATOM     17  C   UNL     1      -5.463   3.959  25.624  0.00  0.00    +0.197 C 
ATOM     18  O   UNL     1      -4.398   3.756  26.056  0.00  0.00    -0.156 OA
ATOM     19  O   UNL     1      -5.373   3.005  24.959  0.00  0.00    -0.156 OA
ENDBRANCH  15  16
ENDBRANCH  14  15
ENDBRANCH  13  14
TORSDOF 5
ENDMDL
MODEL 4
REMARK VINA RESULT:      -8.7      2.284      4.460
REMARK  Name = 
REMARK  5 active torsions:
REMARK  status: ('A' for Active; 'I' for Inactive)
REMARK    1  A    between atoms: C_8  and  C_10
REMARK    2  A    between atoms: C_10  and  C_11
REMARK    3  A    between atoms: C_13  and  C_14
REMARK    4  A    between atoms: C_14  and  N_15
REMARK    5  A    between atoms: N_15  and  S_16
REMARK                            x       y       z     vdW  Elec       q    Type
REMARK                         _______ _______ _______ _____ _____    ______ ____
ROOT
ATOM     11  C   UNL     1      -3.859  -0.683  24.491  0.00  0.00    +0.157 C 
ATOM     12  O   UNL     1      -3.062  -0.664  24.700  0.00  0.00    -0.351 OA
ATOM     13  C   UNL     1      -2.750  -1.419  24.587  0.00  0.00    +0.167 C 
ATOM     20  C   UNL     1      -3.354  -1.905  24.308  0.00  0.00    +0.213 C 
ATOM     21  O   UNL     1      -3.285  -2.705  24.121  0.00  0.00    -0.218 OA
ATOM     22  C   UNL     1      -4.040  -1.450  24.249  0.00  0.00    +0.212 C 
ATOM     23  O   UNL     1      -4.778  -1.716  23.992  0.00  0.00    -0.218 OA
ENDROOT
BRANCH  11  10
ATOM     10  C   UNL     1      -4.384  -0.047  24.519  0.00  0.00    +0.117 C 
BRANCH  10   8
ATOM      1  C   UNL     1      -5.497   3.409  25.574  0.00  0.00    +0.000 C 
ATOM      2  C   UNL     1      -5.158   2.731  25.247  0.00  0.00    +0.003 C 
ATOM      3  C   UNL     1      -5.401   1.985  25.501  0.00  0.00    +0.022 C 
ATOM      4  C   UNL     1      -5.062   1.308  25.174  0.00  0.00    +0.093 C 
ATOM      5  N   UNL     1      -4.480   1.377  24.592  0.00  0.00    -0.279 N 
ATOM      6  C   UNL     1      -4.237   2.124  24.339  0.00  0.00    +0.093 C 
ATOM      7  C   UNL     1      -4.576   2.801  24.666  0.00  0.00    +0.022 C 
ATOM      8  C   UNL     1      -4.140   0.700  24.265  0.00  0.00    +0.228 C 
ATOM      9  O   UNL     1      -3.559   0.769  23.685  0.00  0.00    -0.275 OA
ENDBRANCH  10   8
ENDBRANCH  11  10
BRANCH  13  14
ATOM     14  C   UNL     1      -1.970  -1.647  24.728  0.00  0.00    +0.147 C 
BRANCH  14  15
ATOM     15  N   UNL     1      -1.387  -1.075  24.846  0.00  0.00    -0.079 NA
BRANCH  15  16
ATOM     16  S   UNL     1      -0.593  -1.296  24.885  0.00  0.00    +0.059 S 
ATOM     17  C   UNL     1       0.201  -1.517  24.924  0.00  0.00    +0.197 C 
ATOM     18  O   UNL     1      -0.476  -1.005  24.122  0.00  0.00    -0.156 OA
ATOM     19  O   UNL     1      -0.711  -1.587  25.647  0.00  0.00    -0.156 OA
ENDBRANCH  15  16
ENDBRANCH  14  15
ENDBRANCH  13  14
TORSDOF 5
ENDMDL
MODEL 5
REMARK VINA RESULT:      -8.6      2.723      4.700
REMARK  Name = 
REMARK  5 active torsions:
REMARK  status: ('A' for Active; 'I' for Inactive)
REMARK    1  A    between atoms: C_8  and  C_10
REMARK    2  A    between atoms: C_10  and  C_11
REMARK    3  A    between atoms: C_13  and  C_14
REMARK    4  A    between atoms: C_14  and  N_15
REMARK    5  A    between atoms: N_15  and  S_16
REMARK                            x       y       z     vdW  Elec       q    Type
REMARK                         _______ _______ _______ _____ _____    ______ ____
ROOT
ATOM     11  C   UNL     1      -1.451   2.313  24.459  0.00  0.00    +0.157 C 
ATOM     12  O   UNL     1      -1.463   1.500  24.600  0.00  0.00    -0.351 OA
ATOM     13  C   UNL     1      -0.689   1.220  24.547  0.00  0.00    +0.167 C 
ATOM     20  C   UNL     1      -0.198   1.859  24.374  0.00  0.00    +0.213 C 
ATOM     21  O   UNL     1       0.620   1.830  24.273  0.00  0.00    -0.218 OA
ATOM     22  C   UNL     1      -0.669   2.535  24.319  0.00  0.00    +0.212 C 
ATOM     23  O   UNL     1      -0.404   3.299  24.154  0.00  0.00    -0.218 OA
ENDROOT
BRANCH  11  10
ATOM     10  C   UNL     1      -2.106   2.815  24.458  0.00  0.00    +0.117 C 
BRANCH  10   8
ATOM      1  C   UNL     1      -5.654   3.340  25.651  0.00  0.00    +0.000 C 
ATOM      2  C   UNL     1      -4.946   3.144  25.275  0.00  0.00    +0.003 C 
ATOM      3  C   UNL     1      -4.228   3.404  25.586  0.00  0.00    +0.022 C 
ATOM      4  C   UNL     1      -3.521   3.208  25.210  0.00  0.00    +0.093 C 
ATOM      5  N   UNL     1      -3.532   2.751  24.523  0.00  0.00    -0.279 N 
ATOM      6  C   UNL     1      -4.250   2.491  24.212  0.00  0.00    +0.093 C 
ATOM      7  C   UNL     1      -4.958   2.687  24.589  0.00  0.00    +0.022 C 
ATOM      8  C   UNL     1      -2.824   2.554  24.146  0.00  0.00    +0.228 C 
ATOM      9  O   UNL     1      -2.836   2.098  23.460  0.00  0.00    -0.275 OA
ENDBRANCH  10   8
ENDBRANCH  11  10
BRANCH  13  14
ATOM     14  C   UNL     1      -0.448   0.438  24.650  0.00  0.00    +0.147 C 
BRANCH  14  15
ATOM     15  N   UNL     1      -1.004  -0.145  24.826  0.00  0.00    -0.079 NA
BRANCH  15  16
ATOM     16  S   UNL     1      -0.758  -0.915  24.994  0.00  0.00    +0.059 S 
ATOM     17  C   UNL     1      -0.511  -1.684  25.161  0.00  0.00    +0.197 C 
ATOM     18  O   UNL     1      -0.907  -0.788  25.795  0.00  0.00    -0.156 OA
ATOM     19  O   UNL     1      -0.608  -1.041  24.192  0.00  0.00    -0.156 OA
ENDBRANCH  15  16
ENDBRANCH  14  15
ENDBRANCH  13  14
TORSDOF 5
ENDMDL
MODEL 6
REMARK VINA RESULT:      -8.6      2.016      2.829
REMARK  Name = 
REMARK  5 active torsions:
REMARK  status: ('A' for Active; 'I' for Inactive)
REMARK    1  A    between atoms: C_8  and  C_10
REMARK    2  A    between atoms: C_10  and  C_11
REMARK    3  A    between atoms: C_13  and  C_14
REMARK    4  A    between atoms: C_14  and  N_15
REMARK    5  A    between atoms: N_15  and  S_16
REMARK                            x       y       z     vdW  Elec       q    Type
REMARK                         _______ _______ _______ _____ _____    ______ ____
ROOT
ATOM     11  C   UNL     1      -1.378   0.645  24.750  0.00  0.00    +0.157 C 
ATOM     12  O   UNL     1      -1.695   1.372  24.979  0.00  0.00    -0.351 OA
ATOM     13  C   UNL     1      -1.107   1.945  24.892  0.00  0.00    +0.167 C 
ATOM     20  C   UNL     1      -0.428   1.573  24.610  0.00  0.00    +0.213 C 
ATOM     21  O   UNL     1       0.292   1.938  24.445  0.00  0.00    -0.218 OA
ATOM     22  C   UNL     1      -0.596   0.769  24.522  0.00  0.00    +0.212 C 
ATOM     23  O   UNL     1      -0.072   0.191  24.253  0.00  0.00    -0.218 OA
ENDROOT
BRANCH  11  10
ATOM     10  C   UNL     1      -1.775  -0.078  24.749  0.00  0.00    +0.117 C 
BRANCH  10   8
ATOM      1  C   UNL     1      -4.057  -3.056  24.286  0.00  0.00    +0.000 C 
ATOM      2  C   UNL     1      -3.675  -2.326  24.319  0.00  0.00    +0.003 C 
ATOM      3  C   UNL     1      -2.923  -2.269  24.653  0.00  0.00    +0.022 C 
ATOM      4  C   UNL     1      -2.540  -1.539  24.685  0.00  0.00    +0.093 C 
ATOM      5  N   UNL     1      -2.910  -0.865  24.383  0.00  0.00    -0.279 N 
ATOM      6  C   UNL     1      -3.662  -0.923  24.049  0.00  0.00    +0.093 C 
ATOM      7  C   UNL     1      -4.045  -1.653  24.017  0.00  0.00    +0.022 C 
ATOM      8  C   UNL     1      -2.528  -0.135  24.415  0.00  0.00    +0.228 C 
ATOM      9  O   UNL     1      -2.897   0.538  24.114  0.00  0.00    -0.275 OA
ENDBRANCH  10   8
ENDBRANCH  11  10
BRANCH  13  14
ATOM     14  C   UNL     1      -1.186   2.749  25.059  0.00  0.00    +0.147 C 
BRANCH  14  15
ATOM     15  N   UNL     1      -1.915   3.051  25.299  0.00  0.00    -0.079 NA
BRANCH  15  16
ATOM     16  S   UNL     1      -2.007   3.863  25.418  0.00  0.00    +0.059 S 
ATOM     17  C   UNL     1      -2.099   4.674  25.537  0.00  0.00    +0.197 C 
ATOM     18  O   UNL     1      -2.311   3.939  24.655  0.00  0.00    -0.156 OA
ATOM     19  O   UNL     1      -1.702   3.785  26.180  0.00  0.00    -0.156 OA
ENDBRANCH  15  16
ENDBRANCH  14  15
ENDBRANCH  13  14
TORSDOF 5
ENDMDL
MODEL 7
REMARK VINA RESULT:      -8.3      2.508      5.046
REMARK  Name = 
REMARK  5 active torsions:
REMARK  status: ('A' for Active; 'I' for Inactive)
REMARK    1  A    between atoms: C_8  and  C_10
REMARK    2  A    between atoms: C_10  and  C_11
REMARK    3  A    between atoms: C_13  and  C_14
REMARK    4  A    between atoms: C_14  and  N_15
REMARK    5  A    between atoms: N_15  and  S_16
REMARK                            x       y       z     vdW  Elec       q    Type
REMARK                         _______ _______ _______ _____ _____    ______ ____
ROOT
ATOM     11  C   UNL     1      -1.693   0.729  24.623  0.00  0.00    +0.157 C 
ATOM     12  O   UNL     1      -2.235   0.107  24.637  0.00  0.00    -0.351 OA
ATOM     13  C   UNL     1      -1.812  -0.600  24.679  0.00  0.00    +0.167 C 
ATOM     20  C   UNL     1      -1.009  -0.416  24.691  0.00  0.00    +0.213 C 
ATOM     21  O   UNL     1      -0.387  -0.957  24.731  0.00  0.00    -0.218 OA
ATOM     22  C   UNL     1      -0.935   0.406  24.657  0.00  0.00    +0.212 C 
ATOM     23  O   UNL     1      -0.227   0.830  24.656  0.00  0.00    -0.218 OA
ENDROOT
BRANCH  11  10
ATOM     10  C   UNL     1      -1.877   1.532  24.583  0.00  0.00    +0.117 C 
BRANCH  10   8
ATOM      1  C   UNL     1      -4.625   4.072  25.119  0.00  0.00    +0.000 C 
ATOM      2  C   UNL     1      -4.088   3.502  24.860  0.00  0.00    +0.003 C 
ATOM      3  C   UNL     1      -3.488   3.241  25.363  0.00  0.00    +0.022 C 
ATOM      4  C   UNL     1      -2.951   2.672  25.103  0.00  0.00    +0.093 C 
ATOM      5  N   UNL     1      -3.013   2.363  24.340  0.00  0.00    -0.279 N 
ATOM      6  C   UNL     1      -3.613   2.625  23.838  0.00  0.00    +0.093 C 
ATOM      7  C   UNL     1      -4.150   3.194  24.098  0.00  0.00    +0.022 C 
ATOM      8  C   UNL     1      -2.476   1.793  24.080  0.00  0.00    +0.228 C 
ATOM      9  O   UNL     1      -2.539   1.485  23.318  0.00  0.00    -0.275 OA
ENDBRANCH  10   8
ENDBRANCH  11  10
BRANCH  13  14
ATOM     14  C   UNL     1      -2.136  -1.358  24.703  0.00  0.00    +0.147 C 
BRANCH  14  15
ATOM     15  N   UNL     1      -2.954  -1.456  24.732  0.00  0.00    -0.079 NA
BRANCH  15  16
ATOM     16  S   UNL     1      -3.280  -2.214  24.734  0.00  0.00    +0.059 S 
ATOM     17  C   UNL     1      -3.606  -2.972  24.734  0.00  0.00    +0.197 C 
ATOM     18  O   UNL     1      -3.301  -2.203  25.558  0.00  0.00    -0.156 OA
ATOM     19  O   UNL     1      -3.259  -2.225  23.909  0.00  0.00    -0.156 OA
ENDBRANCH  15  16
ENDBRANCH  14  15
ENDBRANCH  13  14
TORSDOF 5
ENDMDL
MODEL 8
REMARK VINA RESULT:      -8.0      2.335      3.302
REMARK  Name = 
REMARK  5 active torsions:
REMARK  status: ('A' for Active; 'I' for Inactive)
REMARK    1  A    between atoms: C_8  and  C_10
REMARK    2  A    between atoms: C_10  and  C_11
REMARK    3  A    between atoms: C_13  and  C_14
REMARK    4  A    between atoms: C_14  and  N_15
REMARK    5  A    between atoms: N_15  and  S_16
REMARK                            x       y       z     vdW  Elec       q    Type
REMARK                         _______ _______ _______ _____ _____    ______ ____
ROOT
ATOM     11  C   UNL     1      -1.473   2.590  25.396  0.00  0.00    +0.157 C 
ATOM     12  O   UNL     1      -2.296   2.614  25.339  0.00  0.00    -0.351 OA
ATOM     13  C   UNL     1      -2.533   3.403  25.396  0.00  0.00    +0.167 C 
ATOM     20  C   UNL     1      -1.857   3.866  25.488  0.00  0.00    +0.213 C 
ATOM     21  O   UNL     1      -1.838   4.686  25.566  0.00  0.00    -0.218 OA
ATOM     22  C   UNL     1      -1.202   3.363  25.488  0.00  0.00    +0.212 C 
ATOM     23  O   UNL     1      -0.413   3.595  25.566  0.00  0.00    -0.218 OA
ENDROOT
BRANCH  11  10
ATOM     10  C   UNL     1      -1.005   1.912  25.366  0.00  0.00    +0.117 C 
BRANCH  10   8
ATOM      1  C   UNL     1      -0.918  -1.865  25.224  0.00  0.00    +0.000 C 
ATOM      2  C   UNL     1      -0.956  -1.050  25.100  0.00  0.00    +0.003 C 
ATOM      3  C   UNL     1      -0.891  -0.532  25.739  0.00  0.00    +0.022 C 
ATOM      4  C   UNL     1      -0.929   0.282  25.615  0.00  0.00    +0.093 C 
ATOM      5  N   UNL     1      -1.032   0.579  24.851  0.00  0.00    -0.279 N 
ATOM      6  C   UNL     1      -1.096   0.061  24.213  0.00  0.00    +0.093 C 
ATOM      7  C   UNL     1      -1.058  -0.754  24.337  0.00  0.00    +0.022 C 
ATOM      8  C   UNL     1      -1.070   1.394  24.727  0.00  0.00    +0.228 C 
ATOM      9  O   UNL     1      -1.172   1.690  23.964  0.00  0.00    -0.275 OA
ENDBRANCH  10   8
ENDBRANCH  11  10
BRANCH  13  14
ATOM     14  C   UNL     1      -3.309   3.679  25.366  0.00  0.00    +0.147 C 
BRANCH  14  15
ATOM     15  N   UNL     1      -3.938   3.145  25.382  0.00  0.00    -0.079 NA
BRANCH  15  16
ATOM     16  S   UNL     1      -4.715   3.422  25.402  0.00  0.00    +0.059 S 
ATOM     17  C   UNL     1      -5.492   3.699  25.423  0.00  0.00    +0.197 C 
ATOM     18  O   UNL     1      -4.687   3.558  24.589  0.00  0.00    -0.156 OA
ATOM     19  O   UNL     1      -4.742   3.286  26.215  0.00  0.00    -0.156 OA
ENDBRANCH  15  16
ENDBRANCH  14  15
ENDBRANCH  13  14
TORSDOF 5
ENDMDL
