MODEL 1
REMARK VINA RESULT:     -11.3      0.000      0.000
REMARK  Name = 
REMARK  6 active torsions:
REMARK  status: ('A' for Active; 'I' for Inactive)
REMARK    1  A    between atoms: C_2  and  S_3
REMARK    2  A    between atoms: S_3  and  C_6
REMARK    3  A    between atoms: C_11  and  C_13
REMARK    4  A    between atoms: N_16  and  C_17
REMARK    5  A    between atoms: C_17  and  C_18
REMARK    6  A    between atoms: C_21  and  O_22
REMARK                            x       y       z     vdW  Elec       q    Type
REMARK                         _______ _______ _______ _____ _____    ______ ____
ROOT
ATOM      6  C   UNL     1      -3.262  -1.729  24.520  0.00  0.00    +0.107 A 
ATOM      7  C   UNL     1      -3.168  -1.018  24.926  0.00  0.00    +0.041 A 
ATOM      8  C   UNL     1      -3.732  -0.420  24.848  0.00  0.00    +0.120 A 
ATOM      9  C   UNL     1      -4.389  -0.535  24.363  0.00  0.00    +0.164 A 
ATOM     10  O   UNL     1      -4.850   0.148  24.393  0.00  0.00    -0.438 OA
ATOM     11  C   UNL     1      -4.478   0.685  24.897  0.00  0.00    +0.207 A 
ATOM     12  N   UNL     1      -3.787   0.334  25.177  0.00  0.00    -0.212 NA
ATOM     27  C   UNL     1      -4.483  -1.247  23.957  0.00  0.00    +0.040 A 
ATOM     28  C   UNL     1      -3.919  -1.844  24.036  0.00  0.00    +0.022 A 
ENDROOT
BRANCH  11  13
ATOM     13  C   UNL     1      -4.750   1.441  25.086  0.00  0.00    +0.094 C 
ATOM     14  C   UNL     1      -5.451   1.619  25.481  0.00  0.00    +0.028 C 
ATOM     15  C   UNL     1      -5.503   2.440  25.553  0.00  0.00    +0.073 C 
ATOM     16  N   UNL     1      -4.833   2.768  25.202  0.00  0.00    -0.268 NA
ATOM     26  C   UNL     1      -4.367   2.151  24.913  0.00  0.00    +0.082 C 
BRANCH  16  17
ATOM     17  C   UNL     1      -4.658   3.573  25.149  0.00  0.00    +0.099 C 
BRANCH  17  18
ATOM     18  C   UNL     1      -3.886   3.837  25.273  0.00  0.00    -0.006 A 
ATOM     19  C   UNL     1      -3.616   3.977  26.040  0.00  0.00    +0.000 A 
ATOM     20  C   UNL     1      -2.845   4.241  26.163  0.00  0.00    +0.037 A 
ATOM     21  C   UNL     1      -2.343   4.365  25.521  0.00  0.00    +0.139 A 
ATOM     24  C   UNL     1      -2.612   4.225  24.754  0.00  0.00    +0.037 A 
ATOM     25  C   UNL     1      -3.384   3.960  24.629  0.00  0.00    +0.000 A 
BRANCH  21  22
ATOM     22  O   UNL     1      -1.571   4.629  25.645  0.00  0.00    -0.471 OA
ATOM     23  C   UNL     1      -1.097   4.834  25.002  0.00  0.00    +0.252 C 
ENDBRANCH  21  22
ENDBRANCH  17  18
ENDBRANCH  16  17
ENDBRANCH  11  13
BRANCH   6   3
ATOM      3  S   UNL     1      -2.698  -2.326  24.599  0.00  0.00    +0.009 S 
ATOM      4  O   UNL     1      -3.239  -2.781  25.024  0.00  0.00    -0.169 OA
ATOM      5  O   UNL     1      -2.157  -1.871  24.173  0.00  0.00    -0.169 OA
BRANCH   3   2
ATOM      1  C   UNL     1      -1.344  -2.769  24.498  0.00  0.00    +0.028 C 
ATOM      2  C   UNL     1      -2.134  -2.923  24.677  0.00  0.00    +0.156 C 
ENDBRANCH   3   2
ENDBRANCH   6   3
TORSDOF 6
ENDMDL
MODEL 2
REMARK VINA RESULT:     -10.5      2.653      6.221
REMARK  Name = 
REMARK  6 active torsions:
REMARK  status: ('A' for Active; 'I' for Inactive)
REMARK    1  A    between atoms: C_2  and  S_3
REMARK    2  A    between atoms: S_3  and  C_6
REMARK    3  A    between atoms: C_11  and  C_13
REMARK    4  A    between atoms: N_16  and  C_17
REMARK    5  A    between atoms: C_17  and  C_18
REMARK    6  A    between atoms: C_21  and  O_22
REMARK                            x       y       z     vdW  Elec       q    Type
REMARK                         _______ _______ _______ _____ _____    ______ ____
ROOT
ATOM      6  C   UNL     1      -1.120   3.587  25.416  0.00  0.00    +0.107 A 
ATOM      7  C   UNL     1      -1.419   2.932  25.015  0.00  0.00    +0.041 A 
ATOM      8  C   UNL     1      -1.086   2.186  25.134  0.00  0.00    +0.120 A 
ATOM      9  C   UNL     1      -0.453   2.096  25.656  0.00  0.00    +0.164 A 
ATOM     10  O   UNL     1      -0.239   1.300  25.662  0.00  0.00    -0.438 OA
ATOM     11  C   UNL     1      -0.739   0.898  25.145  0.00  0.00    +0.207 A 
ATOM     12  N   UNL     1      -1.263   1.445  24.819  0.00  0.00    -0.212 NA
ATOM     27  C   UNL     1      -0.153   2.752  26.057  0.00  0.00    +0.040 A 
ATOM     28  C   UNL     1      -0.487   3.497  25.937  0.00  0.00    +0.022 A 
ENDROOT
BRANCH  11  13
ATOM     13  C   UNL     1      -0.720   0.089  24.982  0.00  0.00    +0.094 C 
ATOM     14  C   UNL     1      -0.250  -0.280  24.414  0.00  0.00    +0.028 C 
ATOM     15  C   UNL     1      -0.406  -1.090  24.439  0.00  0.00    +0.073 C 
ATOM     16  N   UNL     1      -0.974  -1.221  25.023  0.00  0.00    -0.268 NA
ATOM     26  C   UNL     1      -1.167  -0.492  25.359  0.00  0.00    +0.082 C 
BRANCH  16  17
ATOM     17  C   UNL     1      -1.292  -1.952  25.235  0.00  0.00    +0.099 C 
BRANCH  17  18
ATOM     18  C   UNL     1      -2.038  -2.173  24.961  0.00  0.00    -0.006 A 
ATOM     19  C   UNL     1      -2.109  -2.622  24.272  0.00  0.00    +0.000 A 
ATOM     20  C   UNL     1      -2.855  -2.842  23.999  0.00  0.00    +0.037 A 
ATOM     21  C   UNL     1      -3.531  -2.615  24.414  0.00  0.00    +0.139 A 
ATOM     24  C   UNL     1      -3.460  -2.166  25.103  0.00  0.00    +0.037 A 
ATOM     25  C   UNL     1      -2.713  -1.945  25.377  0.00  0.00    +0.000 A 
BRANCH  21  22
ATOM     22  O   UNL     1      -4.277  -2.835  24.140  0.00  0.00    -0.471 OA
ATOM     23  C   UNL     1      -4.678  -2.355  23.603  0.00  0.00    +0.252 C 
ENDBRANCH  21  22
ENDBRANCH  17  18
ENDBRANCH  16  17
ENDBRANCH  11  13
BRANCH   6   3
ATOM      3  S   UNL     1      -1.453   4.331  25.297  0.00  0.00    +0.009 S 
ATOM      4  O   UNL     1      -0.830   4.530  24.795  0.00  0.00    -0.169 OA
ATOM      5  O   UNL     1      -2.077   4.133  25.799  0.00  0.00    -0.169 OA
BRANCH   3   2
ATOM      1  C   UNL     1      -1.324   5.693  24.884  0.00  0.00    +0.028 C 
ATOM      2  C   UNL     1      -1.787   5.077  25.178  0.00  0.00    +0.156 C 
ENDBRANCH   3   2
ENDBRANCH   6   3
TORSDOF 6
ENDMDL
MODEL 3
REMARK VINA RESULT:     -10.5      1.803      2.827
REMARK  Name = 
REMARK  6 active torsions:
REMARK  status: ('A' for Active; 'I' for Inactive)
REMARK    1  A    between atoms: C_2  and  S_3
REMARK    2  A    between atoms: S_3  and  C_6
REMARK    3  A    between atoms: C_11  and  C_13
REMARK    4  A    between atoms: N_16  and  C_17
REMARK    5  A    between atoms: C_17  and  C_18
REMARK    6  A    between atoms: C_21  and  O_22
REMARK                            x       y       z     vdW  Elec       q    Type
REMARK                         _______ _______ _______ _____ _____    ______ ____
ROOT
ATOM      6  C   UNL     1      -2.136  -1.792  24.849  0.00  0.00    +0.107 A 
ATOM      7  C   UNL     1      -2.396  -1.013  24.923  0.00  0.00    +0.041 A 
ATOM      8  C   UNL     1      -1.856  -0.410  25.082  0.00  0.00    +0.120 A 
ATOM      9  C   UNL     1      -1.055  -0.587  25.169  0.00  0.00    +0.164 A 
ATOM     10  O   UNL     1      -0.654   0.117  25.323  0.00  0.00    -0.438 OA
ATOM     11  C   UNL     1      -1.206   0.729  25.333  0.00  0.00    +0.207 A 
ATOM     12  N   UNL     1      -1.949   0.403  25.184  0.00  0.00    -0.212 NA
ATOM     27  C   UNL     1      -0.794  -1.367  25.095  0.00  0.00    +0.040 A 
ATOM     28  C   UNL     1      -1.335  -1.969  24.936  0.00  0.00    +0.022 A 
ENDROOT
BRANCH  11  13
ATOM     13  C   UNL     1      -1.045   1.526  25.467  0.00  0.00    +0.094 C 
ATOM     14  C   UNL     1      -0.384   1.828  25.857  0.00  0.00    +0.028 C 
ATOM     15  C   UNL     1      -0.445   2.651  25.867  0.00  0.00    +0.073 C 
ATOM     16  N   UNL     1      -1.145   2.858  25.482  0.00  0.00    -0.268 NA
ATOM     26  C   UNL     1      -1.516   2.162  25.235  0.00  0.00    +0.082 C 
BRANCH  16  17
ATOM     17  C   UNL     1      -1.426   3.624  25.365  0.00  0.00    +0.099 C 
BRANCH  17  18
ATOM     18  C   UNL     1      -2.237   3.776  25.394  0.00  0.00    -0.006 A 
ATOM     19  C   UNL     1      -2.685   3.764  24.701  0.00  0.00    +0.000 A 
ATOM     20  C   UNL     1      -3.495   3.916  24.732  0.00  0.00    +0.037 A 
ATOM     21  C   UNL     1      -3.858   4.080  25.454  0.00  0.00    +0.139 A 
ATOM     24  C   UNL     1      -3.410   4.092  26.147  0.00  0.00    +0.037 A 
ATOM     25  C   UNL     1      -2.599   3.940  26.117  0.00  0.00    +0.000 A 
BRANCH  21  22
ATOM     22  O   UNL     1      -4.667   4.232  25.483  0.00  0.00    -0.471 OA
ATOM     23  C   UNL     1      -5.203   3.608  25.541  0.00  0.00    +0.252 C 
ENDBRANCH  21  22
ENDBRANCH  17  18
ENDBRANCH  16  17
ENDBRANCH  11  13
BRANCH   6   3
ATOM      3  S   UNL     1      -2.676  -2.394  24.690  0.00  0.00    +0.009 S 
ATOM      4  O   UNL     1      -3.124  -2.166  25.344  0.00  0.00    -0.169 OA
ATOM      5  O   UNL     1      -2.229  -2.623  24.035  0.00  0.00    -0.169 OA
BRANCH   3   2
ATOM      1  C   UNL     1      -3.923  -2.824  24.141  0.00  0.00    +0.028 C 
ATOM      2  C   UNL     1      -3.217  -2.997  24.530  0.00  0.00    +0.156 C 
ENDBRANCH   3   2
ENDBRANCH   6   3
TORSDOF 6
ENDMDL
MODEL 4
REMARK VINA RESULT:     -10.1      1.736      5.454
REMARK  Name = 
REMARK  6 active torsions:
REMARK  status: ('A' for Active; 'I' for Inactive)
REMARK    1  A    between atoms: C_2  and  S_3
REMARK    2  A    between atoms: S_3  and  C_6
REMARK    3  A    between atoms: C_11  and  C_13
REMARK    4  A    between atoms: N_16  and  C_17
REMARK    5  A    between atoms: C_17  and  C_18
REMARK    6  A    between atoms: C_21  and  O_22
REMARK                            x       y       z     vdW  Elec       q    Type
REMARK                         _______ _______ _______ _____ _____    ______ ____
ROOT
ATOM      6  C   UNL     1      -1.977   4.266  25.264  0.00  0.00    +0.107 A 
ATOM      7  C   UNL     1      -2.054   3.535  24.891  0.00  0.00    +0.041 A 
ATOM      8  C   UNL     1      -2.716   3.065  25.035  0.00  0.00    +0.120 A 
ATOM      9  C   UNL     1      -3.302   3.326  25.553  0.00  0.00    +0.164 A 
ATOM     10  O   UNL     1      -3.889   2.748  25.587  0.00  0.00    -0.438 OA
ATOM     11  C   UNL     1      -3.666   2.129  25.090  0.00  0.00    +0.207 A 
ATOM     12  N   UNL     1      -2.941   2.325  24.749  0.00  0.00    -0.212 NA
ATOM     27  C   UNL     1      -3.226   4.058  25.927  0.00  0.00    +0.040 A 
ATOM     28  C   UNL     1      -2.563   4.528  25.782  0.00  0.00    +0.022 A 
ENDROOT
BRANCH  11  13
ATOM     13  C   UNL     1      -4.093   1.435  24.958  0.00  0.00    +0.094 C 
ATOM     14  C   UNL     1      -4.734   1.350  24.446  0.00  0.00    +0.028 C 
ATOM     15  C   UNL     1      -4.991   0.568  24.485  0.00  0.00    +0.073 C 
ATOM     16  N   UNL     1      -4.509   0.168  25.023  0.00  0.00    -0.268 NA
ATOM     26  C   UNL     1      -3.954   0.705  25.315  0.00  0.00    +0.082 C 
BRANCH  16  17
ATOM     17  C   UNL     1      -4.571  -0.627  25.232  0.00  0.00    +0.099 C 
BRANCH  17  18
ATOM     18  C   UNL     1      -3.990  -1.163  24.993  0.00  0.00    -0.006 A 
ATOM     19  C   UNL     1      -3.355  -1.333  25.493  0.00  0.00    +0.000 A 
ATOM     20  C   UNL     1      -2.776  -1.869  25.254  0.00  0.00    +0.037 A 
ATOM     21  C   UNL     1      -2.829  -2.235  24.517  0.00  0.00    +0.139 A 
ATOM     24  C   UNL     1      -3.464  -2.064  24.017  0.00  0.00    +0.037 A 
ATOM     25  C   UNL     1      -4.045  -1.528  24.255  0.00  0.00    +0.000 A 
BRANCH  21  22
ATOM     22  O   UNL     1      -2.249  -2.770  24.279  0.00  0.00    -0.471 OA
ATOM     23  C   UNL     1      -1.458  -2.540  24.260  0.00  0.00    +0.252 C 
ENDBRANCH  21  22
ENDBRANCH  17  18
ENDBRANCH  16  17
ENDBRANCH  11  13
BRANCH   6   3
ATOM      3  S   UNL     1      -1.315   4.735  25.120  0.00  0.00    +0.009 S 
ATOM      4  O   UNL     1      -1.803   5.391  25.009  0.00  0.00    -0.169 OA
ATOM      5  O   UNL     1      -0.826   4.080  25.230  0.00  0.00    -0.169 OA
BRANCH   3   2
ATOM      1  C   UNL     1      -0.289   5.189  24.235  0.00  0.00    +0.028 C 
ATOM      2  C   UNL     1      -0.652   5.205  24.976  0.00  0.00    +0.156 C 
ENDBRANCH   3   2
ENDBRANCH   6   3
TORSDOF 6
ENDMDL
MODEL 5
REMARK VINA RESULT:      -9.3      3.022      4.032
REMARK  Name = 
REMARK  6 active torsions:
REMARK  status: ('A' for Active; 'I' for Inactive)
REMARK    1  A    between atoms: C_2  and  S_3
REMARK    2  A    between atoms: S_3  and  C_6
REMARK    3  A    between atoms: C_11  and  C_13
REMARK    4  A    between atoms: N_16  and  C_17
REMARK    5  A    between atoms: C_17  and  C_18
REMARK    6  A    between atoms: C_21  and  O_22
REMARK                            x       y       z     vdW  Elec       q    Type
REMARK                         _______ _______ _______ _____ _____    ______ ____
ROOT
ATOM      6  C   UNL     1       0.771   0.299  23.361  0.00  0.00    +0.107 A 
ATOM      7  C   UNL     1       0.578   1.096  23.443  0.00  0.00    +0.041 A 
ATOM      8  C   UNL     1      -0.056   1.320  23.921  0.00  0.00    +0.120 A 
ATOM      9  C   UNL     1      -0.497   0.747  24.317  0.00  0.00    +0.164 A 
ATOM     10  O   UNL     1      -1.087   1.130  24.747  0.00  0.00    -0.438 OA
ATOM     11  C   UNL     1      -1.011   1.941  24.616  0.00  0.00    +0.207 A 
ATOM     12  N   UNL     1      -0.374   2.058  24.106  0.00  0.00    -0.212 NA
ATOM     27  C   UNL     1      -0.303  -0.052  24.236  0.00  0.00    +0.040 A 
ATOM     28  C   UNL     1       0.330  -0.275  23.757  0.00  0.00    +0.022 A 
ENDROOT
BRANCH  11  13
ATOM     13  C   UNL     1      -1.489   2.531  24.940  0.00  0.00    +0.094 C 
ATOM     14  C   UNL     1      -1.349   2.937  25.643  0.00  0.00    +0.028 C 
ATOM     15  C   UNL     1      -1.964   3.475  25.755  0.00  0.00    +0.073 C 
ATOM     16  N   UNL     1      -2.484   3.402  25.120  0.00  0.00    -0.268 NA
ATOM     26  C   UNL     1      -2.191   2.818  24.616  0.00  0.00    +0.082 C 
BRANCH  16  17
ATOM     17  C   UNL     1      -3.177   3.836  25.007  0.00  0.00    +0.099 C 
BRANCH  17  18
ATOM     18  C   UNL     1      -3.912   3.473  25.103  0.00  0.00    -0.006 A 
ATOM     19  C   UNL     1      -4.239   3.035  24.484  0.00  0.00    +0.000 A 
ATOM     20  C   UNL     1      -4.974   2.673  24.581  0.00  0.00    +0.037 A 
ATOM     21  C   UNL     1      -5.381   2.748  25.294  0.00  0.00    +0.139 A 
ATOM     24  C   UNL     1      -5.054   3.186  25.912  0.00  0.00    +0.037 A 
ATOM     25  C   UNL     1      -4.319   3.549  25.816  0.00  0.00    +0.000 A 
BRANCH  21  22
ATOM     22  O   UNL     1      -6.116   2.385  25.389  0.00  0.00    -0.471 OA
ATOM     23  C   UNL     1      -6.284   1.683  24.991  0.00  0.00    +0.252 C 
ENDBRANCH  21  22
ENDBRANCH  17  18
ENDBRANCH  16  17
ENDBRANCH  11  13
BRANCH   6   3
ATOM      3  S   UNL     1       1.404   0.075  22.883  0.00  0.00    +0.009 S 
ATOM      4  O   UNL     1       0.907  -0.426  22.456  0.00  0.00    -0.169 OA
ATOM      5  O   UNL     1       1.903   0.575  23.309  0.00  0.00    -0.169 OA
BRANCH   3   2
ATOM      1  C   UNL     1       2.784   0.184  22.525  0.00  0.00    +0.028 C 
ATOM      2  C   UNL     1       2.039  -0.150  22.405  0.00  0.00    +0.156 C 
ENDBRANCH   3   2
ENDBRANCH   6   3
TORSDOF 6
ENDMDL
