MODEL 1
REMARK VINA RESULT:     -10.4      0.000      0.000
REMARK  Name = 
REMARK  6 active torsions:
REMARK  status: ('A' for Active; 'I' for Inactive)
REMARK    1  A    between atoms: O_2  and  C_3
REMARK    2  A    between atoms: C_3  and  C_4
REMARK    3  A    between atoms: N_6  and  C_7
REMARK    4  A    between atoms: C_7  and  C_8
REMARK    5  A    between atoms: C_15  and  C_16
REMARK    6  A    between atoms: C_16  and  N_17
REMARK                            x       y       z     vdW  Elec       q    Type
REMARK                         _______ _______ _______ _____ _____    ______ ____
ROOT
ATOM      8  C   UNL     1      -2.827   2.226  24.946  0.00  0.00    +0.079 C 
ATOM      9  C   UNL     1      -3.594   2.146  24.844  0.00  0.00    +0.018 C 
ATOM     10  C   UNL     1      -3.994   1.441  24.815  0.00  0.00    +0.006 C 
ATOM     11  C   UNL     1      -4.873   1.564  24.691  0.00  0.00    +0.017 C 
ATOM     12  C   UNL     1      -4.252   1.750  24.769  0.00  0.00    +0.072 C 
ATOM     13  N   UNL     1      -3.241   1.513  24.915  0.00  0.00    -0.272 NA
ATOM     14  C   UNL     1      -2.970   0.645  24.983  0.00  0.00    +0.074 C 
ATOM     15  C   UNL     1      -3.725   0.609  24.881  0.00  0.00    +0.036 C 
ENDROOT
BRANCH   8   7
ATOM      7  C   UNL     1      -2.138   2.673  25.024  0.00  0.00    +0.131 C 
BRANCH   7   6
ATOM      4  C   UNL     1      -1.505   3.936  25.234  0.00  0.00    +0.272 C 
ATOM      5  O   UNL     1      -0.784   3.555  25.360  0.00  0.00    -0.271 OA
ATOM      6  N   UNL     1      -2.182   3.496  25.067  0.00  0.00    -0.202 NA
BRANCH   4   3
ATOM      3  C   UNL     1      -1.549   4.759  25.277  0.00  0.00    +0.229 C 
BRANCH   3   2
ATOM      1  C   UNL     1      -1.082   6.034  24.833  0.00  0.00    +0.175 C 
ATOM      2  O   UNL     1      -0.967   5.222  24.920  0.00  0.00    -0.342 OA
ENDBRANCH   3   2
ENDBRANCH   4   3
ENDBRANCH   7   6
ENDBRANCH   8   7
BRANCH  15  16
ATOM     16  C   UNL     1      -4.191  -0.070  24.842  0.00  0.00    +0.092 C 
BRANCH  16  17
ATOM     17  N   UNL     1      -3.878  -0.800  25.066  0.00  0.00    -0.307 N 
ATOM     18  C   UNL     1      -3.464  -0.956  25.763  0.00  0.00    +0.095 C 
ATOM     19  C   UNL     1      -3.254  -1.753  25.761  0.00  0.00    +0.049 C 
ATOM     20  C   UNL     1      -3.538  -2.090  25.062  0.00  0.00    -0.007 A 
ATOM     21  C   UNL     1      -3.494  -2.858  24.763  0.00  0.00    -0.003 A 
ATOM     22  C   UNL     1      -3.837  -3.035  24.034  0.00  0.00    -0.000 A 
ATOM     23  C   UNL     1      -4.223  -2.445  23.604  0.00  0.00    +0.001 A 
ATOM     24  C   UNL     1      -4.266  -1.678  23.904  0.00  0.00    +0.014 A 
ATOM     25  C   UNL     1      -3.923  -1.501  24.634  0.00  0.00    +0.044 A 
ENDBRANCH  16  17
ENDBRANCH  15  16
TORSDOF 6
ENDMDL
MODEL 2
REMARK VINA RESULT:      -9.5      2.176      5.321
REMARK  Name = 
REMARK  6 active torsions:
REMARK  status: ('A' for Active; 'I' for Inactive)
REMARK    1  A    between atoms: O_2  and  C_3
REMARK    2  A    between atoms: C_3  and  C_4
REMARK    3  A    between atoms: N_6  and  C_7
REMARK    4  A    between atoms: C_7  and  C_8
REMARK    5  A    between atoms: C_15  and  C_16
REMARK    6  A    between atoms: C_16  and  N_17
REMARK                            x       y       z     vdW  Elec       q    Type
REMARK                         _______ _______ _______ _____ _____    ______ ____
ROOT
ATOM      8  C   UNL     1      -4.394   0.542  24.559  0.00  0.00    +0.079 C 
ATOM      9  C   UNL     1      -4.737   1.149  24.905  0.00  0.00    +0.018 C 
ATOM     10  C   UNL     1      -4.386   1.863  25.060  0.00  0.00    +0.006 C 
ATOM     11  C   UNL     1      -4.951   2.430  25.465  0.00  0.00    +0.017 C 
ATOM     12  C   UNL     1      -4.770   1.866  25.189  0.00  0.00    +0.072 C 
ATOM     13  N   UNL     1      -4.044   1.272  24.720  0.00  0.00    -0.272 NA
ATOM     14  C   UNL     1      -3.206   1.597  24.564  0.00  0.00    +0.074 C 
ATOM     15  C   UNL     1      -3.578   2.167  24.906  0.00  0.00    +0.036 C 
ENDROOT
BRANCH   8   7
ATOM      7  C   UNL     1      -4.385  -0.227  24.263  0.00  0.00    +0.131 C 
BRANCH   7   6
ATOM      4  C   UNL     1      -3.884  -1.564  24.308  0.00  0.00    +0.272 C 
ATOM      5  O   UNL     1      -4.311  -1.748  23.626  0.00  0.00    -0.271 OA
ATOM      6  N   UNL     1      -3.921  -0.804  24.626  0.00  0.00    -0.202 NA
BRANCH   4   3
ATOM      3  C   UNL     1      -3.420  -2.142  24.671  0.00  0.00    +0.229 C 
BRANCH   3   2
ATOM      1  C   UNL     1      -2.175  -2.839  24.601  0.00  0.00    +0.175 C 
ATOM      2  O   UNL     1      -2.855  -2.552  24.232  0.00  0.00    -0.342 OA
ENDBRANCH   3   2
ENDBRANCH   4   3
ENDBRANCH   7   6
ENDBRANCH   8   7
BRANCH  15  16
ATOM     16  C   UNL     1      -3.283   2.915  25.092  0.00  0.00    +0.092 C 
BRANCH  16  17
ATOM     17  N   UNL     1      -2.470   3.054  25.072  0.00  0.00    -0.307 N 
ATOM     18  C   UNL     1      -1.880   2.478  25.034  0.00  0.00    +0.095 C 
ATOM     19  C   UNL     1      -1.150   2.861  25.025  0.00  0.00    +0.049 C 
ATOM     20  C   UNL     1      -1.289   3.675  25.058  0.00  0.00    -0.007 A 
ATOM     21  C   UNL     1      -0.777   4.322  25.066  0.00  0.00    -0.003 A 
ATOM     22  C   UNL     1      -1.081   5.088  25.102  0.00  0.00    -0.000 A 
ATOM     23  C   UNL     1      -1.897   5.207  25.131  0.00  0.00    +0.001 A 
ATOM     24  C   UNL     1      -2.408   4.559  25.124  0.00  0.00    +0.014 A 
ATOM     25  C   UNL     1      -2.104   3.793  25.087  0.00  0.00    +0.044 A 
ENDBRANCH  16  17
ENDBRANCH  15  16
TORSDOF 6
ENDMDL
MODEL 3
REMARK VINA RESULT:      -9.4      3.694      4.138
REMARK  Name = 
REMARK  6 active torsions:
REMARK  status: ('A' for Active; 'I' for Inactive)
REMARK    1  A    between atoms: O_2  and  C_3
REMARK    2  A    between atoms: C_3  and  C_4
REMARK    3  A    between atoms: N_6  and  C_7
REMARK    4  A    between atoms: C_7  and  C_8
REMARK    5  A    between atoms: C_15  and  C_16
REMARK    6  A    between atoms: C_16  and  N_17
REMARK                            x       y       z     vdW  Elec       q    Type
REMARK                         _______ _______ _______ _____ _____    ______ ____
ROOT
ATOM      8  C   UNL     1       0.582   0.238  23.478  0.00  0.00    +0.079 C 
ATOM      9  C   UNL     1       0.157   0.674  23.962  0.00  0.00    +0.018 C 
ATOM     10  C   UNL     1      -0.524   0.439  24.334  0.00  0.00    +0.006 C 
ATOM     11  C   UNL     1      -0.863   1.088  24.851  0.00  0.00    +0.017 C 
ATOM     12  C   UNL     1      -0.435   0.820  24.437  0.00  0.00    +0.072 C 
ATOM     13  N   UNL     1      -0.112   0.006  23.861  0.00  0.00    -0.272 NA
ATOM     14  C   UNL     1      -0.582  -0.776  23.851  0.00  0.00    +0.074 C 
ATOM     15  C   UNL     1      -0.970  -0.316  24.320  0.00  0.00    +0.036 C 
ENDROOT
BRANCH   8   7
ATOM      7  C   UNL     1       1.223   0.109  22.976  0.00  0.00    +0.131 C 
BRANCH   7   6
ATOM      4  C   UNL     1       2.583   0.356  22.617  0.00  0.00    +0.272 C 
ATOM      5  O   UNL     1       2.489  -0.105  21.939  0.00  0.00    -0.271 OA
ATOM      6  N   UNL     1       1.951   0.463  23.136  0.00  0.00    -0.202 NA
BRANCH   4   3
ATOM      3  C   UNL     1       3.312   0.710  22.776  0.00  0.00    +0.229 C 
BRANCH   3   2
ATOM      1  C   UNL     1       4.699   0.559  23.081  0.00  0.00    +0.175 C 
ATOM      2  O   UNL     1       4.002   0.260  22.755  0.00  0.00    -0.342 OA
ENDBRANCH   3   2
ENDBRANCH   4   3
ENDBRANCH   7   6
ENDBRANCH   8   7
BRANCH  15  16
ATOM     16  C   UNL     1      -1.665  -0.492  24.728  0.00  0.00    +0.092 C 
BRANCH  16  17
ATOM     17  N   UNL     1      -2.018  -1.233  24.642  0.00  0.00    -0.307 N 
ATOM     18  C   UNL     1      -1.638  -1.962  24.712  0.00  0.00    +0.095 C 
ATOM     19  C   UNL     1      -2.197  -2.555  24.585  0.00  0.00    +0.049 C 
ATOM     20  C   UNL     1      -2.924  -2.191  24.437  0.00  0.00    -0.007 A 
ATOM     21  C   UNL     1      -3.672  -2.500  24.275  0.00  0.00    -0.003 A 
ATOM     22  C   UNL     1      -4.309  -1.991  24.148  0.00  0.00    -0.000 A 
ATOM     23  C   UNL     1      -4.198  -1.174  24.183  0.00  0.00    +0.001 A 
ATOM     24  C   UNL     1      -3.450  -0.866  24.346  0.00  0.00    +0.014 A 
ATOM     25  C   UNL     1      -2.813  -1.375  24.473  0.00  0.00    +0.044 A 
ENDBRANCH  16  17
ENDBRANCH  15  16
TORSDOF 6
ENDMDL
MODEL 4
REMARK VINA RESULT:      -9.3      1.299      1.957
REMARK  Name = 
REMARK  6 active torsions:
REMARK  status: ('A' for Active; 'I' for Inactive)
REMARK    1  A    between atoms: O_2  and  C_3
REMARK    2  A    between atoms: C_3  and  C_4
REMARK    3  A    between atoms: N_6  and  C_7
REMARK    4  A    between atoms: C_7  and  C_8
REMARK    5  A    between atoms: C_15  and  C_16
REMARK    6  A    between atoms: C_16  and  N_17
REMARK                            x       y       z     vdW  Elec       q    Type
REMARK                         _______ _______ _______ _____ _____    ______ ____
ROOT
ATOM      8  C   UNL     1      -0.942   1.393  24.979  0.00  0.00    +0.079 C 
ATOM      9  C   UNL     1      -0.826   0.798  25.466  0.00  0.00    +0.018 C 
ATOM     10  C   UNL     1      -1.298   0.142  25.530  0.00  0.00    +0.006 C 
ATOM     11  C   UNL     1      -0.992  -0.429  26.150  0.00  0.00    +0.017 C 
ATOM     12  C   UNL     1      -0.989   0.116  25.790  0.00  0.00    +0.072 C 
ATOM     13  N   UNL     1      -1.418   0.723  25.050  0.00  0.00    -0.272 NA
ATOM     14  C   UNL     1      -2.181   0.467  24.621  0.00  0.00    +0.074 C 
ATOM     15  C   UNL     1      -2.032  -0.097  25.112  0.00  0.00    +0.036 C 
ENDROOT
BRANCH   8   7
ATOM      7  C   UNL     1      -0.745   2.123  24.650  0.00  0.00    +0.131 C 
BRANCH   7   6
ATOM      4  C   UNL     1      -0.702   3.548  24.735  0.00  0.00    +0.272 C 
ATOM      5  O   UNL     1      -0.368   3.584  23.980  0.00  0.00    -0.271 OA
ATOM      6  N   UNL     1      -0.890   2.818  25.070  0.00  0.00    -0.202 NA
BRANCH   4   3
ATOM      3  C   UNL     1      -0.846   4.244  25.154  0.00  0.00    +0.229 C 
BRANCH   3   2
ATOM      1  C   UNL     1      -1.559   5.483  25.153  0.00  0.00    +0.175 C 
ATOM      2  O   UNL     1      -1.106   4.919  24.756  0.00  0.00    -0.342 OA
ENDBRANCH   3   2
ENDBRANCH   4   3
ENDBRANCH   7   6
ENDBRANCH   8   7
BRANCH  15  16
ATOM     16  C   UNL     1      -2.468  -0.787  25.227  0.00  0.00    +0.092 C 
BRANCH  16  17
ATOM     17  N   UNL     1      -3.152  -0.921  24.786  0.00  0.00    -0.307 N 
ATOM     18  C   UNL     1      -3.685  -0.345  24.529  0.00  0.00    +0.095 C 
ATOM     19  C   UNL     1      -4.285  -0.722  24.108  0.00  0.00    +0.049 C 
ATOM     20  C   UNL     1      -4.124  -1.532  24.106  0.00  0.00    -0.007 A 
ATOM     21  C   UNL     1      -4.526  -2.173  23.775  0.00  0.00    -0.003 A 
ATOM     22  C   UNL     1      -4.226  -2.937  23.864  0.00  0.00    -0.000 A 
ATOM     23  C   UNL     1      -3.526  -3.060  24.283  0.00  0.00    +0.001 A 
ATOM     24  C   UNL     1      -3.125  -2.418  24.613  0.00  0.00    +0.014 A 
ATOM     25  C   UNL     1      -3.424  -1.655  24.524  0.00  0.00    +0.044 A 
ENDBRANCH  16  17
ENDBRANCH  15  16
TORSDOF 6
ENDMDL
MODEL 5
REMARK VINA RESULT:      -9.2      3.179      4.443
REMARK  Name = 
REMARK  6 active torsions:
REMARK  status: ('A' for Active; 'I' for Inactive)
REMARK    1  A    between atoms: O_2  and  C_3
REMARK    2  A    between atoms: C_3  and  C_4
REMARK    3  A    between atoms: N_6  and  C_7
REMARK    4  A    between atoms: C_7  and  C_8
REMARK    5  A    between atoms: C_15  and  C_16
REMARK    6  A    between atoms: C_16  and  N_17
REMARK                            x       y       z     vdW  Elec       q    Type
REMARK                         _______ _______ _______ _____ _____    ______ ____
ROOT
ATOM      8  C   UNL     1      -0.197  -0.002  23.795  0.00  0.00    +0.079 C 
ATOM      9  C   UNL     1      -0.464  -0.233  24.488  0.00  0.00    +0.018 C 
ATOM     10  C   UNL     1      -1.150   0.023  24.838  0.00  0.00    +0.006 C 
ATOM     11  C   UNL     1      -1.279  -0.364  25.636  0.00  0.00    +0.017 C 
ATOM     12  C   UNL     1      -0.963  -0.246  25.077  0.00  0.00    +0.072 C 
ATOM     13  N   UNL     1      -0.893   0.253  24.158  0.00  0.00    -0.272 NA
ATOM     14  C   UNL     1      -1.537   0.844  23.897  0.00  0.00    +0.074 C 
ATOM     15  C   UNL     1      -1.764   0.592  24.580  0.00  0.00    +0.036 C 
ENDROOT
BRANCH   8   7
ATOM      7  C   UNL     1       0.351  -0.007  23.179  0.00  0.00    +0.131 C 
BRANCH   7   6
ATOM      4  C   UNL     1       1.708   0.006  22.732  0.00  0.00    +0.272 C 
ATOM      5  O   UNL     1       1.454  -0.116  21.957  0.00  0.00    -0.271 OA
ATOM      6  N   UNL     1       1.157   0.061  23.344  0.00  0.00    -0.202 NA
BRANCH   4   3
ATOM      3  C   UNL     1       2.514   0.074  22.896  0.00  0.00    +0.229 C 
BRANCH   3   2
ATOM      1  C   UNL     1       3.789   0.642  22.588  0.00  0.00    +0.175 C 
ATOM      2  O   UNL     1       3.007   0.483  22.376  0.00  0.00    -0.342 OA
ENDBRANCH   3   2
ENDBRANCH   4   3
ENDBRANCH   7   6
ENDBRANCH   8   7
BRANCH  15  16
ATOM     16  C   UNL     1      -2.446   0.810  24.990  0.00  0.00    +0.092 C 
BRANCH  16  17
ATOM     17  N   UNL     1      -2.891   1.458  24.738  0.00  0.00    -0.307 N 
ATOM     18  C   UNL     1      -2.592   2.147  24.396  0.00  0.00    +0.095 C 
ATOM     19  C   UNL     1      -3.227   2.646  24.231  0.00  0.00    +0.049 C 
ATOM     20  C   UNL     1      -3.919   2.264  24.471  0.00  0.00    -0.007 A 
ATOM     21  C   UNL     1      -4.712   2.492  24.444  0.00  0.00    -0.003 A 
ATOM     22  C   UNL     1      -5.296   1.985  24.730  0.00  0.00    -0.000 A 
ATOM     23  C   UNL     1      -5.088   1.250  25.044  0.00  0.00    +0.001 A 
ATOM     24  C   UNL     1      -4.295   1.024  25.071  0.00  0.00    +0.014 A 
ATOM     25  C   UNL     1      -3.711   1.531  24.784  0.00  0.00    +0.044 A 
ENDBRANCH  16  17
ENDBRANCH  15  16
TORSDOF 6
ENDMDL
MODEL 6
REMARK VINA RESULT:      -9.0      2.491      4.209
REMARK  Name = 
REMARK  6 active torsions:
REMARK  status: ('A' for Active; 'I' for Inactive)
REMARK    1  A    between atoms: O_2  and  C_3
REMARK    2  A    between atoms: C_3  and  C_4
REMARK    3  A    between atoms: N_6  and  C_7
REMARK    4  A    between atoms: C_7  and  C_8
REMARK    5  A    between atoms: C_15  and  C_16
REMARK    6  A    between atoms: C_16  and  N_17
REMARK                            x       y       z     vdW  Elec       q    Type
REMARK                         _______ _______ _______ _____ _____    ______ ____
ROOT
ATOM      8  C   UNL     1      -1.419   0.155  24.417  0.00  0.00    +0.079 C 
ATOM      9  C   UNL     1      -2.040  -0.308  24.483  0.00  0.00    +0.018 C 
ATOM     10  C   UNL     1      -2.811  -0.061  24.522  0.00  0.00    +0.006 C 
ATOM     11  C   UNL     1      -3.379  -0.751  24.596  0.00  0.00    +0.017 C 
ATOM     12  C   UNL     1      -2.794  -0.465  24.542  0.00  0.00    +0.072 C 
ATOM     13  N   UNL     1      -2.207   0.399  24.458  0.00  0.00    -0.272 NA
ATOM     14  C   UNL     1      -2.592   1.226  24.443  0.00  0.00    +0.074 C 
ATOM     15  C   UNL     1      -3.174   0.738  24.507  0.00  0.00    +0.036 C 
ENDROOT
BRANCH   8   7
ATOM      7  C   UNL     1      -0.609   0.295  24.355  0.00  0.00    +0.131 C 
BRANCH   7   6
ATOM      4  C   UNL     1       0.562   0.222  23.540  0.00  0.00    +0.272 C 
ATOM      5  O   UNL     1       0.852   0.908  23.895  0.00  0.00    -0.271 OA
ATOM      6  N   UNL     1      -0.168  -0.085  23.770  0.00  0.00    -0.202 NA
BRANCH   4   3
ATOM      3  C   UNL     1       1.004  -0.157  22.955  0.00  0.00    +0.229 C 
BRANCH   3   2
ATOM      1  C   UNL     1       2.134  -0.183  22.081  0.00  0.00    +0.175 C 
ATOM      2  O   UNL     1       1.719   0.167  22.703  0.00  0.00    -0.342 OA
ENDBRANCH   3   2
ENDBRANCH   4   3
ENDBRANCH   7   6
ENDBRANCH   8   7
BRANCH  15  16
ATOM     16  C   UNL     1      -3.976   0.922  24.552  0.00  0.00    +0.092 C 
BRANCH  16  17
ATOM     17  N   UNL     1      -4.219   1.710  24.577  0.00  0.00    -0.307 N 
ATOM     18  C   UNL     1      -3.880   2.335  24.158  0.00  0.00    +0.095 C 
ATOM     19  C   UNL     1      -4.293   3.023  24.348  0.00  0.00    +0.049 C 
ATOM     20  C   UNL     1      -4.888   2.823  24.884  0.00  0.00    -0.007 A 
ATOM     21  C   UNL     1      -5.465   3.276  25.262  0.00  0.00    -0.003 A 
ATOM     22  C   UNL     1      -5.996   2.917  25.781  0.00  0.00    -0.000 A 
ATOM     23  C   UNL     1      -5.950   2.105  25.923  0.00  0.00    +0.001 A 
ATOM     24  C   UNL     1      -5.372   1.653  25.546  0.00  0.00    +0.014 A 
ATOM     25  C   UNL     1      -4.841   2.012  25.026  0.00  0.00    +0.044 A 
ENDBRANCH  16  17
ENDBRANCH  15  16
TORSDOF 6
ENDMDL
MODEL 7
REMARK VINA RESULT:      -9.0      2.719      4.277
REMARK  Name = 
REMARK  6 active torsions:
REMARK  status: ('A' for Active; 'I' for Inactive)
REMARK    1  A    between atoms: O_2  and  C_3
REMARK    2  A    between atoms: C_3  and  C_4
REMARK    3  A    between atoms: N_6  and  C_7
REMARK    4  A    between atoms: C_7  and  C_8
REMARK    5  A    between atoms: C_15  and  C_16
REMARK    6  A    between atoms: C_16  and  N_17
REMARK                            x       y       z     vdW  Elec       q    Type
REMARK                         _______ _______ _______ _____ _____    ______ ____
ROOT
ATOM      8  C   UNL     1      -0.739   1.239  24.199  0.00  0.00    +0.079 C 
ATOM      9  C   UNL     1      -0.852   1.990  24.367  0.00  0.00    +0.018 C 
ATOM     10  C   UNL     1      -1.565   2.332  24.544  0.00  0.00    +0.006 C 
ATOM     11  C   UNL     1      -1.482   3.209  24.708  0.00  0.00    +0.017 C 
ATOM     12  C   UNL     1      -1.271   2.610  24.555  0.00  0.00    +0.072 C 
ATOM     13  N   UNL     1      -1.462   1.594  24.380  0.00  0.00    -0.272 NA
ATOM     14  C   UNL     1      -2.309   1.261  24.440  0.00  0.00    +0.074 C 
ATOM     15  C   UNL     1      -2.376   2.003  24.600  0.00  0.00    +0.036 C 
ENDROOT
BRANCH   8   7
ATOM      7  C   UNL     1      -0.268   0.592  23.998  0.00  0.00    +0.131 C 
BRANCH   7   6
ATOM      4  C   UNL     1       0.769   0.021  23.200  0.00  0.00    +0.272 C 
ATOM      5  O   UNL     1       0.593  -0.726  23.505  0.00  0.00    -0.271 OA
ATOM      6  N   UNL     1       0.339   0.680  23.446  0.00  0.00    -0.202 NA
BRANCH   4   3
ATOM      3  C   UNL     1       1.377   0.107  22.648  0.00  0.00    +0.229 C 
BRANCH   3   2
ATOM      1  C   UNL     1       2.779   0.126  22.375  0.00  0.00    +0.175 C 
ATOM      2  O   UNL     1       2.145  -0.123  22.841  0.00  0.00    -0.342 OA
ENDBRANCH   3   2
ENDBRANCH   4   3
ENDBRANCH   7   6
ENDBRANCH   8   7
BRANCH  15  16
ATOM     16  C   UNL     1      -3.068   2.413  24.787  0.00  0.00    +0.092 C 
BRANCH  16  17
ATOM     17  N   UNL     1      -3.783   2.007  24.854  0.00  0.00    -0.307 N 
ATOM     18  C   UNL     1      -3.911   1.215  24.659  0.00  0.00    +0.095 C 
ATOM     19  C   UNL     1      -4.702   1.039  24.812  0.00  0.00    +0.049 C 
ATOM     20  C   UNL     1      -5.063   1.723  25.102  0.00  0.00    -0.007 A 
ATOM     21  C   UNL     1      -5.836   1.877  25.345  0.00  0.00    -0.003 A 
ATOM     22  C   UNL     1      -6.041   2.629  25.615  0.00  0.00    -0.000 A 
ATOM     23  C   UNL     1      -5.472   3.228  25.641  0.00  0.00    +0.001 A 
ATOM     24  C   UNL     1      -4.700   3.072  25.397  0.00  0.00    +0.014 A 
ATOM     25  C   UNL     1      -4.495   2.320  25.128  0.00  0.00    +0.044 A 
ENDBRANCH  16  17
ENDBRANCH  15  16
TORSDOF 6
ENDMDL
MODEL 8
REMARK VINA RESULT:      -9.0      2.369      5.744
REMARK  Name = 
REMARK  6 active torsions:
REMARK  status: ('A' for Active; 'I' for Inactive)
REMARK    1  A    between atoms: O_2  and  C_3
REMARK    2  A    between atoms: C_3  and  C_4
REMARK    3  A    between atoms: N_6  and  C_7
REMARK    4  A    between atoms: C_7  and  C_8
REMARK    5  A    between atoms: C_15  and  C_16
REMARK    6  A    between atoms: C_16  and  N_17
REMARK                            x       y       z     vdW  Elec       q    Type
REMARK                         _______ _______ _______ _____ _____    ______ ____
ROOT
ATOM      8  C   UNL     1      -1.691  -0.171  25.202  0.00  0.00    +0.079 C 
ATOM      9  C   UNL     1      -1.052   0.107  24.855  0.00  0.00    +0.018 C 
ATOM     10  C   UNL     1      -0.851   0.891  24.796  0.00  0.00    +0.006 C 
ATOM     11  C   UNL     1      -0.077   1.003  24.359  0.00  0.00    +0.017 C 
ATOM     12  C   UNL     1      -0.570   0.661  24.617  0.00  0.00    +0.072 C 
ATOM     13  N   UNL     1      -1.479   0.624  25.138  0.00  0.00    -0.272 NA
ATOM     14  C   UNL     1      -1.884   1.390  25.426  0.00  0.00    +0.074 C 
ATOM     15  C   UNL     1      -1.247   1.622  25.077  0.00  0.00    +0.036 C 
ENDROOT
BRANCH   8   7
ATOM      7  C   UNL     1      -2.189  -0.781  25.444  0.00  0.00    +0.131 C 
BRANCH   7   6
ATOM      4  C   UNL     1      -3.098  -1.825  25.091  0.00  0.00    +0.272 C 
ATOM      5  O   UNL     1      -3.443  -1.779  25.840  0.00  0.00    -0.271 OA
ATOM      6  N   UNL     1      -2.472  -1.327  24.893  0.00  0.00    -0.202 NA
BRANCH   4   3
ATOM      3  C   UNL     1      -3.382  -2.371  24.541  0.00  0.00    +0.229 C 
BRANCH   3   2
ATOM      1  C   UNL     1      -4.377  -2.749  23.588  0.00  0.00    +0.175 C 
ATOM      2  O   UNL     1      -4.140  -2.285  24.228  0.00  0.00    -0.342 OA
ENDBRANCH   3   2
ENDBRANCH   4   3
ENDBRANCH   7   6
ENDBRANCH   8   7
BRANCH  15  16
ATOM     16  C   UNL     1      -0.984   2.398  24.982  0.00  0.00    +0.092 C 
BRANCH  16  17
ATOM     17  N   UNL     1      -1.477   3.028  25.183  0.00  0.00    -0.307 N 
ATOM     18  C   UNL     1      -2.229   2.967  25.520  0.00  0.00    +0.095 C 
ATOM     19  C   UNL     1      -2.522   3.730  25.628  0.00  0.00    +0.049 C 
ATOM     20  C   UNL     1      -1.951   4.263  25.358  0.00  0.00    -0.007 A 
ATOM     21  C   UNL     1      -1.938   5.087  25.327  0.00  0.00    -0.003 A 
ATOM     22  C   UNL     1      -1.278   5.477  25.021  0.00  0.00    -0.000 A 
ATOM     23  C   UNL     1      -0.632   5.043  24.746  0.00  0.00    +0.001 A 
ATOM     24  C   UNL     1      -0.647   4.219  24.778  0.00  0.00    +0.014 A 
ATOM     25  C   UNL     1      -1.307   3.829  25.083  0.00  0.00    +0.044 A 
ENDBRANCH  16  17
ENDBRANCH  15  16
TORSDOF 6
ENDMDL
