MODEL 1
REMARK VINA RESULT:     -10.5      0.000      0.000
REMARK  Name = 
REMARK  12 active torsions:
REMARK  status: ('A' for Active; 'I' for Inactive)
REMARK    1  A    between atoms: C_2  and  C_4
REMARK    2  A    between atoms: C_4  and  C_5
REMARK    3  A    between atoms: C_4  and  N_12
REMARK    4  A    between atoms: C_5  and  C_6
REMARK    5  A    between atoms: C_13  and  C_15
REMARK    6  A    between atoms: C_17  and  N_29
REMARK    7  A    between atoms: C_21  and  C_23
REMARK    8  A    between atoms: C_23  and  O_24
REMARK    9  A    between atoms: O_24  and  C_25
REMARK   10  A    between atoms: C_25  and  C_26
REMARK   11  A    between atoms: N_29  and  S_30
REMARK   12  A    between atoms: S_30  and  C_33
REMARK                            x       y       z     vdW  Elec       q    Type
REMARK                         _______ _______ _______ _____ _____    ______ ____
ROOT
ATOM     15  C   UNL     1      -0.806   0.508  24.541  0.00  0.00    +0.155 C 
ATOM     16  C   UNL     1      -1.382   0.085  24.954  0.00  0.00    +0.049 C 
ATOM     17  C   UNL     1      -1.349  -0.739  24.979  0.00  0.00    +0.102 C 
ATOM     18  C   UNL     1      -0.740  -1.140  24.592  0.00  0.00    +0.041 C 
ATOM     19  C   UNL     1      -0.164  -0.716  24.180  0.00  0.00    +0.095 C 
ATOM     20  N   UNL     1      -0.198   0.108  24.155  0.00  0.00    -0.271 N 
ATOM     21  C   UNL     1       0.377   0.531  23.742  0.00  0.00    +0.256 C 
ATOM     22  O   UNL     1       0.344   1.356  23.717  0.00  0.00    -0.272 OA
ENDROOT
BRANCH  15  13
ATOM     12  N   UNL     1      -1.377   1.739  24.992  0.00  0.00    -0.196 NA
ATOM     13  C   UNL     1      -0.840   1.333  24.515  0.00  0.00    +0.260 C 
ATOM     14  O   UNL     1      -0.336   1.750  24.014  0.00  0.00    -0.272 OA
BRANCH  12   4
ATOM      4  C   UNL     1      -1.410   2.563  24.967  0.00  0.00    +0.179 C 
BRANCH   4   2
ATOM      1  N   UNL     1      -0.574   3.692  25.224  0.00  0.00    -0.086 NA
ATOM      2  C   UNL     1      -0.955   3.011  25.490  0.00  0.00    +0.281 C 
ATOM      3  O   UNL     1      -0.882   2.777  26.277  0.00  0.00    -0.270 OA
ENDBRANCH   4   2
BRANCH   4   5
ATOM      5  C   UNL     1      -1.899   2.939  24.418  0.00  0.00    +0.057 C 
BRANCH   5   6
ATOM      6  C   UNL     1      -2.713   2.966  24.541  0.00  0.00    -0.020 A 
ATOM      7  C   UNL     1      -3.225   2.614  23.998  0.00  0.00    -0.004 A 
ATOM      8  C   UNL     1      -4.041   2.641  24.122  0.00  0.00    -0.000 A 
ATOM      9  C   UNL     1      -4.344   3.020  24.789  0.00  0.00    -0.000 A 
ATOM     10  C   UNL     1      -3.833   3.372  25.331  0.00  0.00    -0.000 A 
ATOM     11  C   UNL     1      -3.018   3.346  25.208  0.00  0.00    -0.004 A 
ENDBRANCH   5   6
ENDBRANCH   4   5
ENDBRANCH  12   4
ENDBRANCH  15  13
BRANCH  21  23
ATOM     23  C   UNL     1       0.987   0.131  23.355  0.00  0.00    +0.228 C 
BRANCH  23  24
ATOM     24  O   UNL     1       1.654   0.543  23.101  0.00  0.00    -0.333 OA
BRANCH  24  25
ATOM     25  C   UNL     1       2.300   0.132  22.791  0.00  0.00    +0.257 C 
BRANCH  25  26
ATOM     26  C   UNL     1       2.981   0.540  22.569  0.00  0.00    +0.394 C 
ATOM     27  O   UNL     1       3.349   1.050  23.102  0.00  0.00    -0.243 OA
ATOM     28  O   UNL     1       3.294   0.438  21.812  0.00  0.00    -0.243 OA
ENDBRANCH  25  26
ENDBRANCH  24  25
ENDBRANCH  23  24
ENDBRANCH  21  23
BRANCH  17  29
ATOM     29  N   UNL     1      -1.925  -1.163  25.392  0.00  0.00    -0.079 NA
BRANCH  29  30
ATOM     30  S   UNL     1      -2.587  -1.452  24.996  0.00  0.00    +0.082 S 
ATOM     31  O   UNL     1      -3.039  -0.829  25.296  0.00  0.00    -0.151 OA
ATOM     32  O   UNL     1      -2.135  -2.074  24.696  0.00  0.00    -0.151 OA
BRANCH  30  33
ATOM     33  C   UNL     1      -3.250  -1.742  24.598  0.00  0.00    +0.153 A 
ATOM     34  C   UNL     1      -3.835  -1.287  24.236  0.00  0.00    +0.027 A 
ATOM     35  C   UNL     1      -4.391  -1.801  23.908  0.00  0.00    +0.009 A 
ATOM     36  C   UNL     1      -4.149  -2.574  24.068  0.00  0.00    +0.037 A 
ATOM     37  S   UNL     1      -3.444  -2.537  24.495  0.00  0.00    -0.067 S 
ENDBRANCH  30  33
ENDBRANCH  29  30
ENDBRANCH  17  29
TORSDOF 12
ENDMDL
MODEL 2
REMARK VINA RESULT:      -9.4      1.929      3.857
REMARK  Name = 
REMARK  12 active torsions:
REMARK  status: ('A' for Active; 'I' for Inactive)
REMARK    1  A    between atoms: C_2  and  C_4
REMARK    2  A    between atoms: C_4  and  C_5
REMARK    3  A    between atoms: C_4  and  N_12
REMARK    4  A    between atoms: C_5  and  C_6
REMARK    5  A    between atoms: C_13  and  C_15
REMARK    6  A    between atoms: C_17  and  N_29
REMARK    7  A    between atoms: C_21  and  C_23
REMARK    8  A    between atoms: C_23  and  O_24
REMARK    9  A    between atoms: O_24  and  C_25
REMARK   10  A    between atoms: C_25  and  C_26
REMARK   11  A    between atoms: N_29  and  S_30
REMARK   12  A    between atoms: S_30  and  C_33
REMARK                            x       y       z     vdW  Elec       q    Type
REMARK                         _______ _______ _______ _____ _____    ______ ____
ROOT
ATOM     15  C   UNL     1      -1.212   1.072  24.815  0.00  0.00    +0.155 C 
ATOM     16  C   UNL     1      -1.352   1.710  25.320  0.00  0.00    +0.049 C 
ATOM     17  C   UNL     1      -0.723   2.174  25.582  0.00  0.00    +0.102 C 
ATOM     18  C   UNL     1       0.048   2.000  25.340  0.00  0.00    +0.041 C 
ATOM     19  C   UNL     1       0.186   1.362  24.836  0.00  0.00    +0.095 C 
ATOM     20  N   UNL     1      -0.444   0.898  24.574  0.00  0.00    -0.271 N 
ATOM     21  C   UNL     1      -0.304   0.261  24.070  0.00  0.00    +0.256 C 
ATOM     22  O   UNL     1      -0.935  -0.204  23.807  0.00  0.00    -0.272 OA
ENDROOT
BRANCH  15  13
ATOM     12  N   UNL     1      -2.536   0.565  24.998  0.00  0.00    -0.196 NA
ATOM     13  C   UNL     1      -1.843   0.608  24.553  0.00  0.00    +0.260 C 
ATOM     14  O   UNL     1      -1.779   0.188  23.846  0.00  0.00    -0.272 OA
BRANCH  12   4
ATOM      4  C   UNL     1      -3.166   0.101  24.735  0.00  0.00    +0.179 C 
BRANCH   4   2
ATOM      1  N   UNL     1      -3.439  -1.275  24.461  0.00  0.00    -0.086 NA
ATOM      2  C   UNL     1      -3.242  -0.679  24.996  0.00  0.00    +0.281 C 
ATOM      3  O   UNL     1      -3.120  -0.861  25.791  0.00  0.00    -0.270 OA
ENDBRANCH   4   2
BRANCH   4   5
ATOM      5  C   UNL     1      -3.721   0.416  24.212  0.00  0.00    +0.057 C 
BRANCH   5   6
ATOM      6  C   UNL     1      -4.268   0.973  24.477  0.00  0.00    -0.020 A 
ATOM      7  C   UNL     1      -4.800   0.776  25.077  0.00  0.00    -0.004 A 
ATOM      8  C   UNL     1      -5.347   1.333  25.342  0.00  0.00    -0.000 A 
ATOM      9  C   UNL     1      -5.363   2.087  25.007  0.00  0.00    -0.000 A 
ATOM     10  C   UNL     1      -4.832   2.284  24.408  0.00  0.00    -0.000 A 
ATOM     11  C   UNL     1      -4.284   1.727  24.143  0.00  0.00    -0.004 A 
ENDBRANCH   5   6
ENDBRANCH   4   5
ENDBRANCH  12   4
ENDBRANCH  15  13
BRANCH  21  23
ATOM     23  C   UNL     1       0.465   0.086  23.828  0.00  0.00    +0.228 C 
BRANCH  23  24
ATOM     24  O   UNL     1       0.619  -0.090  23.037  0.00  0.00    -0.333 OA
BRANCH  24  25
ATOM     25  C   UNL     1       1.335  -0.441  22.824  0.00  0.00    +0.257 C 
BRANCH  25  26
ATOM     26  C   UNL     1       1.696  -0.243  22.110  0.00  0.00    +0.394 C 
ATOM     27  O   UNL     1       1.336  -0.443  21.395  0.00  0.00    -0.243 OA
ATOM     28  O   UNL     1       2.419   0.157  22.110  0.00  0.00    -0.243 OA
ENDBRANCH  25  26
ENDBRANCH  24  25
ENDBRANCH  23  24
ENDBRANCH  21  23
BRANCH  17  29
ATOM     29  N   UNL     1      -0.862   2.812  26.087  0.00  0.00    -0.079 NA
BRANCH  29  30
ATOM     30  S   UNL     1      -1.118   3.533  25.779  0.00  0.00    +0.082 S 
ATOM     31  O   UNL     1      -0.368   3.662  25.458  0.00  0.00    -0.151 OA
ATOM     32  O   UNL     1      -1.867   3.403  26.100  0.00  0.00    -0.151 OA
BRANCH  30  33
ATOM     33  C   UNL     1      -1.375   4.255  25.471  0.00  0.00    +0.153 A 
ATOM     34  C   UNL     1      -0.909   4.801  25.066  0.00  0.00    +0.027 A 
ATOM     35  C   UNL     1      -1.389   5.440  24.859  0.00  0.00    +0.009 A 
ATOM     36  C   UNL     1      -2.151   5.287  25.136  0.00  0.00    +0.037 A 
ATOM     37  S   UNL     1      -2.142   4.554  25.514  0.00  0.00    -0.067 S 
ENDBRANCH  30  33
ENDBRANCH  29  30
ENDBRANCH  17  29
TORSDOF 12
ENDMDL
MODEL 3
REMARK VINA RESULT:      -9.2      1.501      3.743
REMARK  Name = 
REMARK  12 active torsions:
REMARK  status: ('A' for Active; 'I' for Inactive)
REMARK    1  A    between atoms: C_2  and  C_4
REMARK    2  A    between atoms: C_4  and  C_5
REMARK    3  A    between atoms: C_4  and  N_12
REMARK    4  A    between atoms: C_5  and  C_6
REMARK    5  A    between atoms: C_13  and  C_15
REMARK    6  A    between atoms: C_17  and  N_29
REMARK    7  A    between atoms: C_21  and  C_23
REMARK    8  A    between atoms: C_23  and  O_24
REMARK    9  A    between atoms: O_24  and  C_25
REMARK   10  A    between atoms: C_25  and  C_26
REMARK   11  A    between atoms: N_29  and  S_30
REMARK   12  A    between atoms: S_30  and  C_33
REMARK                            x       y       z     vdW  Elec       q    Type
REMARK                         _______ _______ _______ _____ _____    ______ ____
ROOT
ATOM     15  C   UNL     1      -0.611   0.564  24.517  0.00  0.00    +0.155 C 
ATOM     16  C   UNL     1      -1.065   1.116  24.930  0.00  0.00    +0.049 C 
ATOM     17  C   UNL     1      -0.920   1.922  24.836  0.00  0.00    +0.102 C 
ATOM     18  C   UNL     1      -0.320   2.177  24.329  0.00  0.00    +0.041 C 
ATOM     19  C   UNL     1       0.133   1.625  23.917  0.00  0.00    +0.095 C 
ATOM     20  N   UNL     1      -0.012   0.818  24.011  0.00  0.00    -0.271 N 
ATOM     21  C   UNL     1       0.441   0.267  23.599  0.00  0.00    +0.256 C 
ATOM     22  O   UNL     1       0.295  -0.540  23.693  0.00  0.00    -0.272 OA
ENDROOT
BRANCH  15  13
ATOM     12  N   UNL     1      -1.516  -0.506  24.802  0.00  0.00    -0.196 NA
ATOM     13  C   UNL     1      -0.757  -0.243  24.611  0.00  0.00    +0.260 C 
ATOM     14  O   UNL     1      -0.144  -0.787  24.515  0.00  0.00    -0.272 OA
BRANCH  12   4
ATOM      4  C   UNL     1      -1.661  -1.312  24.896  0.00  0.00    +0.179 C 
BRANCH   4   2
ATOM      1  N   UNL     1      -1.731  -1.348  26.323  0.00  0.00    -0.086 NA
ATOM      2  C   UNL     1      -1.483  -1.683  25.611  0.00  0.00    +0.281 C 
ATOM      3  O   UNL     1      -1.056  -2.389  25.614  0.00  0.00    -0.270 OA
ENDBRANCH   4   2
BRANCH   4   5
ATOM      5  C   UNL     1      -1.986  -1.748  24.274  0.00  0.00    +0.057 C 
BRANCH   5   6
ATOM      6  C   UNL     1      -2.804  -1.803  24.192  0.00  0.00    -0.020 A 
ATOM      7  C   UNL     1      -3.180  -2.533  24.273  0.00  0.00    -0.004 A 
ATOM      8  C   UNL     1      -3.999  -2.587  24.191  0.00  0.00    -0.000 A 
ATOM      9  C   UNL     1      -4.442  -1.911  24.027  0.00  0.00    -0.000 A 
ATOM     10  C   UNL     1      -4.067  -1.181  23.945  0.00  0.00    -0.000 A 
ATOM     11  C   UNL     1      -3.248  -1.127  24.028  0.00  0.00    -0.004 A 
ENDBRANCH   5   6
ENDBRANCH   4   5
ENDBRANCH  12   4
ENDBRANCH  15  13
BRANCH  21  23
ATOM     23  C   UNL     1       1.041   0.521  23.092  0.00  0.00    +0.228 C 
BRANCH  23  24
ATOM     24  O   UNL     1       1.736   0.083  23.022  0.00  0.00    -0.333 OA
BRANCH  24  25
ATOM     25  C   UNL     1       2.289   0.275  22.440  0.00  0.00    +0.257 C 
BRANCH  25  26
ATOM     26  C   UNL     1       3.095   0.210  22.599  0.00  0.00    +0.394 C 
ATOM     27  O   UNL     1       3.582   0.874  22.542  0.00  0.00    -0.243 OA
ATOM     28  O   UNL     1       3.415  -0.519  22.816  0.00  0.00    -0.243 OA
ENDBRANCH  25  26
ENDBRANCH  24  25
ENDBRANCH  23  24
ENDBRANCH  21  23
BRANCH  17  29
ATOM     29  N   UNL     1      -1.374   2.475  25.248  0.00  0.00    -0.079 NA
BRANCH  29  30
ATOM     30  S   UNL     1      -2.090   2.737  24.935  0.00  0.00    +0.082 S 
ATOM     31  O   UNL     1      -1.682   3.257  24.440  0.00  0.00    -0.151 OA
ATOM     32  O   UNL     1      -2.496   2.217  25.430  0.00  0.00    -0.151 OA
BRANCH  30  33
ATOM     33  C   UNL     1      -2.807   2.999  24.621  0.00  0.00    +0.153 A 
ATOM     34  C   UNL     1      -3.320   2.558  24.151  0.00  0.00    +0.027 A 
ATOM     35  C   UNL     1      -3.966   3.035  23.962  0.00  0.00    +0.009 A 
ATOM     36  C   UNL     1      -3.852   3.772  24.315  0.00  0.00    +0.037 A 
ATOM     37  S   UNL     1      -3.134   3.750  24.723  0.00  0.00    -0.067 S 
ENDBRANCH  30  33
ENDBRANCH  29  30
ENDBRANCH  17  29
TORSDOF 12
ENDMDL
