MODEL 1
REMARK VINA RESULT:     -13.7      0.000      0.000
REMARK  Name = 
REMARK  4 active torsions:
REMARK  status: ('A' for Active; 'I' for Inactive)
REMARK    1  A    between atoms: C_4  and  C_5
REMARK    2  A    between atoms: C_5  and  N_6
REMARK    3  A    between atoms: C_11  and  C_12
REMARK    4  A    between atoms: C_14  and  C_17
REMARK                            x       y       z     vdW  Elec       q    Type
REMARK                         _______ _______ _______ _____ _____    ______ ____
ROOT
ATOM      6  N   UNL     1      -3.663   2.221  24.907  0.00  0.00    -0.260 NA
ATOM      7  C   UNL     1      -4.044   2.854  25.275  0.00  0.00    +0.106 C 
ATOM      8  C   UNL     1      -4.835   2.646  25.385  0.00  0.00    +0.170 C 
ATOM      9  O   UNL     1      -5.416   3.116  25.733  0.00  0.00    -0.222 OA
ATOM     10  C   UNL     1      -4.942   1.884  25.085  0.00  0.00    +0.060 C 
ATOM     11  C   UNL     1      -4.218   1.623  24.790  0.00  0.00    +0.140 C 
ENDROOT
BRANCH  11  12
ATOM     12  C   UNL     1      -4.073   0.890  24.439  0.00  0.00    +0.251 A 
ATOM     13  N   UNL     1      -4.045   0.163  24.829  0.00  0.00    -0.190 NA
ATOM     14  C   UNL     1      -3.885  -0.421  24.269  0.00  0.00    +0.203 A 
ATOM     15  N   UNL     1      -3.815  -0.056  23.532  0.00  0.00    -0.056 NA
ATOM     16  O   UNL     1      -3.932   0.754  23.638  0.00  0.00    -0.336 OA
BRANCH  14  17
ATOM     17  C   UNL     1      -3.809  -1.228  24.418  0.00  0.00    +0.039 A 
ATOM     18  C   UNL     1      -4.160  -1.776  23.910  0.00  0.00    +0.003 A 
ATOM     19  C   UNL     1      -4.084  -2.585  24.059  0.00  0.00    +0.000 A 
ATOM     20  C   UNL     1      -3.657  -2.844  24.716  0.00  0.00    +0.000 A 
ATOM     21  C   UNL     1      -3.307  -2.296  25.223  0.00  0.00    +0.000 A 
ATOM     22  C   UNL     1      -3.383  -1.489  25.074  0.00  0.00    +0.003 A 
ENDBRANCH  14  17
ENDBRANCH  11  12
BRANCH   6   5
ATOM      5  C   UNL     1      -2.866   2.193  24.694  0.00  0.00    +0.101 C 
BRANCH   5   4
ATOM      1  C   UNL     1      -1.722   4.794  25.292  0.00  0.00    +0.130 C 
ATOM      2  N   UNL     1      -1.823   3.979  25.227  0.00  0.00    -0.324 N 
ATOM      3  C   UNL     1      -2.481   3.596  24.906  0.00  0.00    +0.073 A 
ATOM      4  C   UNL     1      -2.350   2.783  24.952  0.00  0.00    +0.012 A 
ATOM     23  C   UNL     1      -1.612   2.663  25.301  0.00  0.00    +0.015 A 
ATOM     24  C   UNL     1      -1.287   3.402  25.471  0.00  0.00    +0.060 A 
ATOM     25  C   UNL     1      -0.544   3.454  25.826  0.00  0.00    +0.017 A 
ATOM     26  C   UNL     1      -0.127   2.767  26.012  0.00  0.00    +0.001 A 
ATOM     27  C   UNL     1      -0.452   2.028  25.842  0.00  0.00    +0.000 A 
ATOM     28  C   UNL     1      -1.195   1.976  25.487  0.00  0.00    +0.001 A 
ENDBRANCH   5   4
ENDBRANCH   6   5
TORSDOF 4
ENDMDL
MODEL 2
REMARK VINA RESULT:     -13.6      2.013      5.447
REMARK  Name = 
REMARK  4 active torsions:
REMARK  status: ('A' for Active; 'I' for Inactive)
REMARK    1  A    between atoms: C_4  and  C_5
REMARK    2  A    between atoms: C_5  and  N_6
REMARK    3  A    between atoms: C_11  and  C_12
REMARK    4  A    between atoms: C_14  and  C_17
REMARK                            x       y       z     vdW  Elec       q    Type
REMARK                         _______ _______ _______ _____ _____    ______ ____
ROOT
ATOM      6  N   UNL     1      -0.833   0.284  24.410  0.00  0.00    -0.260 NA
ATOM      7  C   UNL     1      -0.463  -0.234  23.884  0.00  0.00    +0.106 C 
ATOM      8  C   UNL     1       0.235   0.121  23.625  0.00  0.00    +0.170 C 
ATOM      9  O   UNL     1       0.777  -0.204  23.095  0.00  0.00    -0.222 OA
ATOM     10  C   UNL     1       0.298   0.858  23.990  0.00  0.00    +0.060 C 
ATOM     11  C   UNL     1      -0.362   0.958  24.474  0.00  0.00    +0.140 C 
ENDROOT
BRANCH  11  12
ATOM     12  C   UNL     1      -0.525   1.618  24.943  0.00  0.00    +0.251 A 
ATOM     13  N   UNL     1      -0.869   2.323  24.685  0.00  0.00    -0.190 NA
ATOM     14  C   UNL     1      -0.929   2.830  25.333  0.00  0.00    +0.203 A 
ATOM     15  N   UNL     1      -0.622   2.439  25.992  0.00  0.00    -0.056 NA
ATOM     16  O   UNL     1      -0.372   1.690  25.750  0.00  0.00    -0.336 OA
BRANCH  14  17
ATOM     17  C   UNL     1      -1.241   3.593  25.325  0.00  0.00    +0.039 A 
ATOM     18  C   UNL     1      -1.998   3.732  25.621  0.00  0.00    +0.003 A 
ATOM     19  C   UNL     1      -2.310   4.496  25.613  0.00  0.00    +0.000 A 
ATOM     20  C   UNL     1      -1.865   5.120  25.308  0.00  0.00    +0.000 A 
ATOM     21  C   UNL     1      -1.108   4.981  25.012  0.00  0.00    +0.000 A 
ATOM     22  C   UNL     1      -0.796   4.218  25.020  0.00  0.00    +0.003 A 
ENDBRANCH  14  17
ENDBRANCH  11  12
BRANCH   6   5
ATOM      5  C   UNL     1      -1.547   0.150  24.800  0.00  0.00    +0.101 C 
BRANCH   5   4
ATOM      1  C   UNL     1      -2.106  -2.691  24.581  0.00  0.00    +0.130 C 
ATOM      2  N   UNL     1      -2.201  -1.873  24.598  0.00  0.00    -0.324 N 
ATOM      3  C   UNL     1      -1.604  -1.317  24.729  0.00  0.00    +0.073 A 
ATOM      4  C   UNL     1      -1.944  -0.567  24.698  0.00  0.00    +0.012 A 
ATOM     23  C   UNL     1      -2.750  -0.657  24.549  0.00  0.00    +0.015 A 
ATOM     24  C   UNL     1      -2.908  -1.464  24.487  0.00  0.00    +0.060 A 
ATOM     25  C   UNL     1      -3.678  -1.723  24.337  0.00  0.00    +0.017 A 
ATOM     26  C   UNL     1      -4.287  -1.175  24.249  0.00  0.00    +0.001 A 
ATOM     27  C   UNL     1      -4.129  -0.368  24.311  0.00  0.00    +0.000 A 
ATOM     28  C   UNL     1      -3.360  -0.108  24.461  0.00  0.00    +0.001 A 
ENDBRANCH   5   4
ENDBRANCH   6   5
TORSDOF 4
ENDMDL
MODEL 3
REMARK VINA RESULT:     -13.2      1.067      4.650
REMARK  Name = 
REMARK  4 active torsions:
REMARK  status: ('A' for Active; 'I' for Inactive)
REMARK    1  A    between atoms: C_4  and  C_5
REMARK    2  A    between atoms: C_5  and  N_6
REMARK    3  A    between atoms: C_11  and  C_12
REMARK    4  A    between atoms: C_14  and  C_17
REMARK                            x       y       z     vdW  Elec       q    Type
REMARK                         _______ _______ _______ _____ _____    ______ ____
ROOT
ATOM      6  N   UNL     1      -4.582   1.144  24.924  0.00  0.00    -0.260 NA
ATOM      7  C   UNL     1      -5.274   0.920  25.314  0.00  0.00    +0.106 C 
ATOM      8  C   UNL     1      -5.638   1.602  25.601  0.00  0.00    +0.170 C 
ATOM      9  O   UNL     1      -6.345   1.633  26.025  0.00  0.00    -0.222 OA
ATOM     10  C   UNL     1      -5.171   2.248  25.389  0.00  0.00    +0.060 C 
ATOM     11  C   UNL     1      -4.519   1.965  24.972  0.00  0.00    +0.140 C 
ENDROOT
BRANCH  11  12
ATOM     12  C   UNL     1      -3.909   2.423  24.656  0.00  0.00    +0.251 A 
ATOM     13  N   UNL     1      -3.309   2.793  25.084  0.00  0.00    -0.190 NA
ATOM     14  C   UNL     1      -2.821   3.189  24.550  0.00  0.00    +0.203 A 
ATOM     15  N   UNL     1      -3.119   3.064  23.791  0.00  0.00    -0.056 NA
ATOM     16  O   UNL     1      -3.791   2.590  23.857  0.00  0.00    -0.336 OA
BRANCH  14  17
ATOM     17  C   UNL     1      -2.152   3.633  24.741  0.00  0.00    +0.039 A 
ATOM     18  C   UNL     1      -1.402   3.295  24.679  0.00  0.00    +0.003 A 
ATOM     19  C   UNL     1      -0.733   3.738  24.870  0.00  0.00    +0.000 A 
ATOM     20  C   UNL     1      -0.814   4.520  25.122  0.00  0.00    +0.000 A 
ATOM     21  C   UNL     1      -1.564   4.857  25.184  0.00  0.00    +0.000 A 
ATOM     22  C   UNL     1      -2.233   4.414  24.993  0.00  0.00    +0.003 A 
ENDBRANCH  14  17
ENDBRANCH  11  12
BRANCH   6   5
ATOM      5  C   UNL     1      -4.048   0.636  24.554  0.00  0.00    +0.101 C 
BRANCH   5   4
ATOM      1  C   UNL     1      -3.250  -1.394  26.471  0.00  0.00    +0.130 C 
ATOM      2  N   UNL     1      -3.501  -1.026  25.777  0.00  0.00    -0.324 N 
ATOM      3  C   UNL     1      -3.617  -0.216  25.672  0.00  0.00    +0.073 A 
ATOM      4  C   UNL     1      -3.868  -0.093  24.896  0.00  0.00    +0.012 A 
ATOM     23  C   UNL     1      -3.907  -0.827  24.522  0.00  0.00    +0.015 A 
ATOM     24  C   UNL     1      -3.681  -1.403  25.067  0.00  0.00    +0.060 A 
ATOM     25  C   UNL     1      -3.667  -2.198  24.844  0.00  0.00    +0.017 A 
ATOM     26  C   UNL     1      -3.880  -2.416  24.078  0.00  0.00    +0.001 A 
ATOM     27  C   UNL     1      -4.107  -1.839  23.533  0.00  0.00    +0.000 A 
ATOM     28  C   UNL     1      -4.121  -1.045  23.755  0.00  0.00    +0.001 A 
ENDBRANCH   5   4
ENDBRANCH   6   5
TORSDOF 4
ENDMDL
MODEL 4
REMARK VINA RESULT:     -13.2      1.577      2.812
REMARK  Name = 
REMARK  4 active torsions:
REMARK  status: ('A' for Active; 'I' for Inactive)
REMARK    1  A    between atoms: C_4  and  C_5
REMARK    2  A    between atoms: C_5  and  N_6
REMARK    3  A    between atoms: C_11  and  C_12
REMARK    4  A    between atoms: C_14  and  C_17
REMARK                            x       y       z     vdW  Elec       q    Type
REMARK                         _______ _______ _______ _____ _____    ______ ____
ROOT
ATOM      6  N   UNL     1      -1.299   1.475  24.924  0.00  0.00    -0.260 NA
ATOM      7  C   UNL     1      -0.652   1.914  24.658  0.00  0.00    +0.106 C 
ATOM      8  C   UNL     1      -0.071   1.386  24.409  0.00  0.00    +0.170 C 
ATOM      9  O   UNL     1       0.668   1.587  24.102  0.00  0.00    -0.222 OA
ATOM     10  C   UNL     1      -0.357   0.620  24.521  0.00  0.00    +0.060 C 
ATOM     11  C   UNL     1      -1.115   0.676  24.838  0.00  0.00    +0.140 C 
ENDROOT
BRANCH  11  12
ATOM     12  C   UNL     1      -1.606   0.042  25.037  0.00  0.00    +0.251 A 
ATOM     13  N   UNL     1      -2.100  -0.368  24.520  0.00  0.00    -0.190 NA
ATOM     14  C   UNL     1      -2.489  -0.956  24.949  0.00  0.00    +0.203 A 
ATOM     15  N   UNL     1      -2.235  -0.908  25.733  0.00  0.00    -0.056 NA
ATOM     16  O   UNL     1      -1.690  -0.291  25.787  0.00  0.00    -0.336 OA
BRANCH  14  17
ATOM     17  C   UNL     1      -3.035  -1.495  24.649  0.00  0.00    +0.039 A 
ATOM     18  C   UNL     1      -2.911  -2.305  24.747  0.00  0.00    +0.003 A 
ATOM     19  C   UNL     1      -3.458  -2.846  24.447  0.00  0.00    +0.000 A 
ATOM     20  C   UNL     1      -4.128  -2.576  24.049  0.00  0.00    +0.000 A 
ATOM     21  C   UNL     1      -4.252  -1.766  23.951  0.00  0.00    +0.000 A 
ATOM     22  C   UNL     1      -3.706  -1.226  24.251  0.00  0.00    +0.003 A 
ENDBRANCH  14  17
ENDBRANCH  11  12
BRANCH   6   5
ATOM      5  C   UNL     1      -2.004   1.783  25.222  0.00  0.00    +0.101 C 
BRANCH   5   4
ATOM      1  C   UNL     1      -1.710   4.671  25.305  0.00  0.00    +0.130 C 
ATOM      2  N   UNL     1      -2.027   3.918  25.194  0.00  0.00    -0.324 N 
ATOM      3  C   UNL     1      -1.643   3.203  25.343  0.00  0.00    +0.073 A 
ATOM      4  C   UNL     1      -2.162   2.590  25.156  0.00  0.00    +0.012 A 
ATOM     23  C   UNL     1      -2.867   2.926  24.891  0.00  0.00    +0.015 A 
ATOM     24  C   UNL     1      -2.783   3.747  24.914  0.00  0.00    +0.060 A 
ATOM     25  C   UNL     1      -3.407   4.231  24.677  0.00  0.00    +0.017 A 
ATOM     26  C   UNL     1      -4.115   3.897  24.417  0.00  0.00    +0.001 A 
ATOM     27  C   UNL     1      -4.198   3.076  24.394  0.00  0.00    +0.000 A 
ATOM     28  C   UNL     1      -3.575   2.590  24.630  0.00  0.00    +0.001 A 
ENDBRANCH   5   4
ENDBRANCH   6   5
TORSDOF 4
ENDMDL
MODEL 5
REMARK VINA RESULT:     -12.7      1.711      4.801
REMARK  Name = 
REMARK  4 active torsions:
REMARK  status: ('A' for Active; 'I' for Inactive)
REMARK    1  A    between atoms: C_4  and  C_5
REMARK    2  A    between atoms: C_5  and  N_6
REMARK    3  A    between atoms: C_11  and  C_12
REMARK    4  A    between atoms: C_14  and  C_17
REMARK                            x       y       z     vdW  Elec       q    Type
REMARK                         _______ _______ _______ _____ _____    ______ ____
ROOT
ATOM      6  N   UNL     1      -1.930   0.544  24.330  0.00  0.00    -0.260 NA
ATOM      7  C   UNL     1      -1.135   0.326  24.305  0.00  0.00    +0.106 C 
ATOM      8  C   UNL     1      -0.700   0.975  24.042  0.00  0.00    +0.170 C 
ATOM      9  O   UNL     1       0.118   1.000  23.935  0.00  0.00    -0.222 OA
ATOM     10  C   UNL     1      -1.226   1.595  23.904  0.00  0.00    +0.060 C 
ATOM     11  C   UNL     1      -1.986   1.329  24.082  0.00  0.00    +0.140 C 
ENDROOT
BRANCH  11  12
ATOM     12  C   UNL     1      -2.681   1.770  24.023  0.00  0.00    +0.251 A 
ATOM     13  N   UNL     1      -3.129   2.056  24.654  0.00  0.00    -0.190 NA
ATOM     14  C   UNL     1      -3.775   2.465  24.345  0.00  0.00    +0.203 A 
ATOM     15  N   UNL     1      -3.727   2.431  23.521  0.00  0.00    -0.056 NA
ATOM     16  O   UNL     1      -3.051   2.002  23.323  0.00  0.00    -0.336 OA
BRANCH  14  17
ATOM     17  C   UNL     1      -4.365   2.840  24.780  0.00  0.00    +0.039 A 
ATOM     18  C   UNL     1      -4.253   3.613  25.047  0.00  0.00    +0.003 A 
ATOM     19  C   UNL     1      -4.844   3.990  25.483  0.00  0.00    +0.000 A 
ATOM     20  C   UNL     1      -5.546   3.593  25.653  0.00  0.00    +0.000 A 
ATOM     21  C   UNL     1      -5.659   2.820  25.387  0.00  0.00    +0.000 A 
ATOM     22  C   UNL     1      -5.069   2.444  24.951  0.00  0.00    +0.003 A 
ENDBRANCH  14  17
ENDBRANCH  11  12
BRANCH   6   5
ATOM      5  C   UNL     1      -2.558   0.062  24.563  0.00  0.00    +0.101 C 
BRANCH   5   4
ATOM      1  C   UNL     1      -1.378  -2.560  24.965  0.00  0.00    +0.130 C 
ATOM      2  N   UNL     1      -1.916  -1.962  24.784  0.00  0.00    -0.324 N 
ATOM      3  C   UNL     1      -1.771  -1.150  24.829  0.00  0.00    +0.073 A 
ATOM      4  C   UNL     1      -2.458  -0.756  24.599  0.00  0.00    +0.012 A 
ATOM     23  C   UNL     1      -3.027  -1.323  24.413  0.00  0.00    +0.015 A 
ATOM     24  C   UNL     1      -2.692  -2.068  24.527  0.00  0.00    +0.060 A 
ATOM     25  C   UNL     1      -3.138  -2.747  24.382  0.00  0.00    +0.017 A 
ATOM     26  C   UNL     1      -3.918  -2.681  24.124  0.00  0.00    +0.001 A 
ATOM     27  C   UNL     1      -4.253  -1.936  24.009  0.00  0.00    +0.000 A 
ATOM     28  C   UNL     1      -3.808  -1.257  24.154  0.00  0.00    +0.001 A 
ENDBRANCH   5   4
ENDBRANCH   6   5
TORSDOF 4
ENDMDL
