MODEL 1
REMARK VINA RESULT:     -11.5      0.000      0.000
REMARK  Name = 
REMARK  7 active torsions:
REMARK  status: ('A' for Active; 'I' for Inactive)
REMARK    1  A    between atoms: C_2  and  C_3
REMARK    2  A    between atoms: C_3  and  N_4
REMARK    3  A    between atoms: C_5  and  O_7
REMARK    4  A    between atoms: O_7  and  C_8
REMARK    5  A    between atoms: C_8  and  C_9
REMARK    6  A    between atoms: C_16  and  C_17
REMARK    7  A    between atoms: C_19  and  C_23
REMARK                            x       y       z     vdW  Elec       q    Type
REMARK                         _______ _______ _______ _____ _____    ______ ____
ROOT
ATOM      9  C   UNL     1       0.960   0.620  23.444  0.00  0.00    +0.102 C 
ATOM     10  C   UNL     1       0.528   1.149  23.817  0.00  0.00    +0.020 C 
ATOM     11  C   UNL     1      -0.196   1.014  24.153  0.00  0.00    +0.010 C 
ATOM     12  C   UNL     1      -0.530   1.753  24.535  0.00  0.00    +0.018 C 
ATOM     13  C   UNL     1      -0.088   1.400  24.207  0.00  0.00    +0.072 C 
ATOM     14  N   UNL     1       0.221   0.490  23.790  0.00  0.00    -0.270 NA
ATOM     15  C   UNL     1      -0.302  -0.254  23.851  0.00  0.00    +0.078 C 
ATOM     16  C   UNL     1      -0.695   0.294  24.208  0.00  0.00    +0.056 C 
ENDROOT
BRANCH  16  17
ATOM     17  C   UNL     1      -1.433   0.224  24.571  0.00  0.00    +0.058 A 
ATOM     18  C   UNL     1      -2.106   0.664  24.389  0.00  0.00    +0.035 A 
ATOM     19  C   UNL     1      -2.716   0.413  24.884  0.00  0.00    +0.102 A 
ATOM     20  N   UNL     1      -2.419  -0.182  25.372  0.00  0.00    -0.170 NA
ATOM     21  N   UNL     1      -1.627  -0.298  25.178  0.00  0.00    -0.253 N 
ATOM     22  C   UNL     1      -1.116  -0.843  25.530  0.00  0.00    +0.153 C 
BRANCH  19  23
ATOM     23  C   UNL     1      -3.487   0.707  24.890  0.00  0.00    +0.019 A 
ATOM     24  C   UNL     1      -3.626   1.497  25.084  0.00  0.00    +0.002 A 
ATOM     25  C   UNL     1      -4.398   1.790  25.090  0.00  0.00    +0.000 A 
ATOM     26  C   UNL     1      -5.029   1.293  24.902  0.00  0.00    +0.000 A 
ATOM     27  C   UNL     1      -5.801   1.586  24.908  0.00  0.00    +0.000 A 
ATOM     28  C   UNL     1      -5.941   2.376  25.102  0.00  0.00    +0.000 A 
ATOM     29  C   UNL     1      -5.309   2.872  25.289  0.00  0.00    +0.000 A 
ATOM     30  C   UNL     1      -4.538   2.579  25.283  0.00  0.00    +0.000 A 
ATOM     31  C   UNL     1      -4.890   0.503  24.708  0.00  0.00    +0.000 A 
ATOM     32  C   UNL     1      -4.118   0.209  24.702  0.00  0.00    +0.002 A 
ENDBRANCH  19  23
ENDBRANCH  16  17
BRANCH   9   8
ATOM      8  C   UNL     1       1.630   0.377  23.029  0.00  0.00    +0.226 C 
BRANCH   8   7
ATOM      7  O   UNL     1       2.308   0.848  23.028  0.00  0.00    -0.432 OA
BRANCH   7   5
ATOM      4  N   UNL     1       3.714   0.654  23.186  0.00  0.00    -0.169 NA
ATOM      5  C   UNL     1       3.022   0.541  22.753  0.00  0.00    +0.421 C 
ATOM      6  O   UNL     1       3.044   0.120  22.042  0.00  0.00    -0.225 OA
BRANCH   4   3
ATOM      3  C   UNL     1       4.429   0.347  22.910  0.00  0.00    +0.119 C 
BRANCH   3   2
ATOM      1  C   UNL     1       5.539  -0.122  23.679  0.00  0.00    +0.002 C 
ATOM      2  C   UNL     1       5.128   0.499  23.320  0.00  0.00    +0.024 C 
ENDBRANCH   3   2
ENDBRANCH   4   3
ENDBRANCH   7   5
ENDBRANCH   8   7
ENDBRANCH   9   8
TORSDOF 7
ENDMDL
MODEL 2
REMARK VINA RESULT:      -8.7      1.489      2.350
REMARK  Name = 
REMARK  7 active torsions:
REMARK  status: ('A' for Active; 'I' for Inactive)
REMARK    1  A    between atoms: C_2  and  C_3
REMARK    2  A    between atoms: C_3  and  N_4
REMARK    3  A    between atoms: C_5  and  O_7
REMARK    4  A    between atoms: O_7  and  C_8
REMARK    5  A    between atoms: C_8  and  C_9
REMARK    6  A    between atoms: C_16  and  C_17
REMARK    7  A    between atoms: C_19  and  C_23
REMARK                            x       y       z     vdW  Elec       q    Type
REMARK                         _______ _______ _______ _____ _____    ______ ____
ROOT
ATOM      9  C   UNL     1       1.883   0.724  23.133  0.00  0.00    +0.102 C 
ATOM     10  C   UNL     1       1.370   0.144  23.045  0.00  0.00    +0.020 C 
ATOM     11  C   UNL     1       0.636   0.111  23.387  0.00  0.00    +0.010 C 
ATOM     12  C   UNL     1       0.199  -0.639  23.162  0.00  0.00    +0.018 C 
ATOM     13  C   UNL     1       0.700  -0.220  23.162  0.00  0.00    +0.072 C 
ATOM     14  N   UNL     1       1.134   0.681  23.476  0.00  0.00    -0.270 NA
ATOM     15  C   UNL     1       0.683   1.248  24.031  0.00  0.00    +0.078 C 
ATOM     16  C   UNL     1       0.209   0.660  23.920  0.00  0.00    +0.056 C 
ENDROOT
BRANCH  16  17
ATOM     17  C   UNL     1      -0.548   0.563  24.236  0.00  0.00    +0.058 A 
ATOM     18  C   UNL     1      -1.133   0.061  23.945  0.00  0.00    +0.035 A 
ATOM     19  C   UNL     1      -1.798   0.139  24.427  0.00  0.00    +0.102 A 
ATOM     20  N   UNL     1      -1.623   0.690  25.015  0.00  0.00    -0.170 NA
ATOM     21  N   UNL     1      -0.850   0.952  24.896  0.00  0.00    -0.253 N 
ATOM     22  C   UNL     1      -0.450   1.506  25.359  0.00  0.00    +0.153 C 
BRANCH  19  23
ATOM     23  C   UNL     1      -2.513  -0.263  24.336  0.00  0.00    +0.019 A 
ATOM     24  C   UNL     1      -2.535  -1.085  24.406  0.00  0.00    +0.002 A 
ATOM     25  C   UNL     1      -3.250  -1.488  24.315  0.00  0.00    +0.000 A 
ATOM     26  C   UNL     1      -3.942  -1.068  24.155  0.00  0.00    +0.000 A 
ATOM     27  C   UNL     1      -4.657  -1.470  24.064  0.00  0.00    +0.000 A 
ATOM     28  C   UNL     1      -4.679  -2.292  24.134  0.00  0.00    +0.000 A 
ATOM     29  C   UNL     1      -3.987  -2.711  24.295  0.00  0.00    +0.000 A 
ATOM     30  C   UNL     1      -3.272  -2.309  24.385  0.00  0.00    +0.000 A 
ATOM     31  C   UNL     1      -3.920  -0.246  24.085  0.00  0.00    +0.000 A 
ATOM     32  C   UNL     1      -3.205   0.157  24.176  0.00  0.00    +0.002 A 
ENDBRANCH  19  23
ENDBRANCH  16  17
BRANCH   9   8
ATOM      8  C   UNL     1       2.607   1.091  22.992  0.00  0.00    +0.226 C 
BRANCH   8   7
ATOM      7  O   UNL     1       3.209   0.683  22.602  0.00  0.00    -0.432 OA
BRANCH   7   5
ATOM      4  N   UNL     1       4.449   0.224  23.145  0.00  0.00    -0.169 NA
ATOM      5  C   UNL     1       3.998   0.822  22.801  0.00  0.00    +0.421 C 
ATOM      6  O   UNL     1       4.335   1.562  22.656  0.00  0.00    -0.225 OA
BRANCH   4   3
ATOM      3  C   UNL     1       5.237   0.363  23.344  0.00  0.00    +0.119 C 
BRANCH   3   2
ATOM      1  C   UNL     1       5.753  -0.520  24.343  0.00  0.00    +0.002 C 
ATOM      2  C   UNL     1       5.726  -0.266  23.557  0.00  0.00    +0.024 C 
ENDBRANCH   3   2
ENDBRANCH   4   3
ENDBRANCH   7   5
ENDBRANCH   8   7
ENDBRANCH   9   8
TORSDOF 7
ENDMDL
MODEL 3
REMARK VINA RESULT:      -8.3      1.722      7.148
REMARK  Name = 
REMARK  7 active torsions:
REMARK  status: ('A' for Active; 'I' for Inactive)
REMARK    1  A    between atoms: C_2  and  C_3
REMARK    2  A    between atoms: C_3  and  N_4
REMARK    3  A    between atoms: C_5  and  O_7
REMARK    4  A    between atoms: O_7  and  C_8
REMARK    5  A    between atoms: C_8  and  C_9
REMARK    6  A    between atoms: C_16  and  C_17
REMARK    7  A    between atoms: C_19  and  C_23
REMARK                            x       y       z     vdW  Elec       q    Type
REMARK                         _______ _______ _______ _____ _____    ______ ____
ROOT
ATOM      9  C   UNL     1      -1.346   0.621  24.368  0.00  0.00    +0.102 C 
ATOM     10  C   UNL     1      -0.740   1.106  24.313  0.00  0.00    +0.020 C 
ATOM     11  C   UNL     1      -0.042   0.945  23.935  0.00  0.00    +0.010 C 
ATOM     12  C   UNL     1       0.530   1.634  23.985  0.00  0.00    +0.018 C 
ATOM     13  C   UNL     1      -0.031   1.318  24.094  0.00  0.00    +0.072 C 
ATOM     14  N   UNL     1      -0.632   0.466  23.986  0.00  0.00    -0.270 NA
ATOM     15  C   UNL     1      -0.328  -0.266  23.532  0.00  0.00    +0.078 C 
ATOM     16  C   UNL     1       0.244   0.239  23.501  0.00  0.00    +0.056 C 
ENDROOT
BRANCH  16  17
ATOM     17  C   UNL     1       0.977   0.140  23.135  0.00  0.00    +0.058 A 
ATOM     18  C   UNL     1       1.712   0.312  23.467  0.00  0.00    +0.035 A 
ATOM     19  C   UNL     1       2.292   0.129  22.910  0.00  0.00    +0.102 A 
ATOM     20  N   UNL     1       1.916  -0.155  22.234  0.00  0.00    -0.170 NA
ATOM     21  N   UNL     1       1.103  -0.149  22.373  0.00  0.00    -0.253 N 
ATOM     22  C   UNL     1       0.518  -0.389  21.843  0.00  0.00    +0.153 C 
BRANCH  19  23
ATOM     23  C   UNL     1       3.106   0.217  23.012  0.00  0.00    +0.019 A 
ATOM     24  C   UNL     1       3.539  -0.371  23.397  0.00  0.00    +0.002 A 
ATOM     25  C   UNL     1       4.354  -0.284  23.499  0.00  0.00    +0.000 A 
ATOM     26  C   UNL     1       4.734   0.391  23.215  0.00  0.00    +0.000 A 
ATOM     27  C   UNL     1       5.548   0.478  23.317  0.00  0.00    +0.000 A 
ATOM     28  C   UNL     1       5.982  -0.110  23.702  0.00  0.00    +0.000 A 
ATOM     29  C   UNL     1       5.600  -0.784  23.985  0.00  0.00    +0.000 A 
ATOM     30  C   UNL     1       4.786  -0.871  23.884  0.00  0.00    +0.000 A 
ATOM     31  C   UNL     1       4.302   0.979  22.830  0.00  0.00    +0.000 A 
ATOM     32  C   UNL     1       3.487   0.892  22.728  0.00  0.00    +0.002 A 
ENDBRANCH  19  23
ENDBRANCH  16  17
BRANCH   9   8
ATOM      8  C   UNL     1      -2.107   0.420  24.615  0.00  0.00    +0.226 C 
BRANCH   8   7
ATOM      7  O   UNL     1      -2.648   1.012  24.809  0.00  0.00    -0.432 OA
BRANCH   7   5
ATOM      4  N   UNL     1      -4.011   1.420  24.943  0.00  0.00    -0.169 NA
ATOM      5  C   UNL     1      -3.443   0.823  24.921  0.00  0.00    +0.421 C 
ATOM      6  O   UNL     1      -3.671   0.034  25.012  0.00  0.00    -0.225 OA
BRANCH   4   3
ATOM      3  C   UNL     1      -4.806   1.231  25.056  0.00  0.00    +0.119 C 
BRANCH   3   2
ATOM      1  C   UNL     1      -6.089   1.861  25.044  0.00  0.00    +0.002 C 
ATOM      2  C   UNL     1      -5.326   1.796  25.354  0.00  0.00    +0.024 C 
ENDBRANCH   3   2
ENDBRANCH   4   3
ENDBRANCH   7   5
ENDBRANCH   8   7
ENDBRANCH   9   8
TORSDOF 7
ENDMDL
