MODEL 1
REMARK VINA RESULT:     -11.6      0.000      0.000
REMARK  Name = 
REMARK  6 active torsions:
REMARK  status: ('A' for Active; 'I' for Inactive)
REMARK    1  A    between atoms: O_2  and  C_3
REMARK    2  A    between atoms: C_8  and  C_9
REMARK    3  A    between atoms: C_9  and  N_10
REMARK    4  A    between atoms: N_10  and  C_11
REMARK    5  A    between atoms: C_17  and  N_20
REMARK    6  A    between atoms: C_23  and  C_26
REMARK                            x       y       z     vdW  Elec       q    Type
REMARK                         _______ _______ _______ _____ _____    ______ ____
ROOT
ATOM     11  C   UNL     1      -3.308   1.452  24.737  0.00  0.00    +0.135 C 
ATOM     12  C   UNL     1      -4.165   1.172  24.961  0.00  0.00    +0.166 C 
ATOM     13  C   UNL     1      -4.294   0.409  24.889  0.00  0.00    +0.176 C 
ATOM     14  O   UNL     1      -4.779  -0.126  24.960  0.00  0.00    -0.327 OA
ATOM     15  C   UNL     1      -4.466   0.699  24.985  0.00  0.00    +0.253 C 
ATOM     16  O   UNL     1      -4.788   1.430  25.191  0.00  0.00    -0.328 OA
ATOM     17  C   UNL     1      -3.566   0.976  24.747  0.00  0.00    +0.147 C 
ATOM     18  C   UNL     1      -2.986   0.717  24.530  0.00  0.00    +0.190 C 
ATOM     19  O   UNL     1      -2.436   0.157  24.278  0.00  0.00    -0.220 OA
ENDROOT
BRANCH  17  20
ATOM     20  N   UNL     1      -3.642   0.160  24.651  0.00  0.00    -0.268 NA
ATOM     21  C   UNL     1      -3.482  -0.347  25.282  0.00  0.00    +0.073 C 
ATOM     22  C   UNL     1      -3.558  -1.162  25.186  0.00  0.00    +0.027 C 
ATOM     23  C   UNL     1      -3.794  -1.471  24.459  0.00  0.00    +0.083 C 
ATOM     24  C   UNL     1      -3.954  -0.965  23.827  0.00  0.00    +0.027 C 
ATOM     25  C   UNL     1      -3.878  -0.149  23.924  0.00  0.00    +0.073 C 
BRANCH  23  26
ATOM     26  C   UNL     1      -3.870  -2.287  24.361  0.00  0.00    +0.260 C 
ATOM     27  N   UNL     1      -3.516  -2.801  24.901  0.00  0.00    -0.088 NA
ATOM     28  O   UNL     1      -4.300  -2.590  23.726  0.00  0.00    -0.272 OA
ENDBRANCH  23  26
ENDBRANCH  17  20
BRANCH  11  10
ATOM     10  N   UNL     1      -2.968   2.205  24.743  0.00  0.00    -0.209 NA
BRANCH  10   9
ATOM      9  C   UNL     1      -2.292   2.349  25.194  0.00  0.00    +0.118 C 
BRANCH   9   8
ATOM      3  C   UNL     1      -1.170   3.195  25.448  0.00  0.00    +0.136 A 
ATOM      4  C   UNL     1      -0.825   3.945  25.447  0.00  0.00    +0.037 A 
ATOM      5  C   UNL     1      -1.259   4.597  25.189  0.00  0.00    +0.003 A 
ATOM      6  C   UNL     1      -2.038   4.500  24.933  0.00  0.00    -0.000 A 
ATOM      7  C   UNL     1      -2.382   3.751  24.935  0.00  0.00    +0.000 A 
ATOM      8  C   UNL     1      -1.948   3.098  25.192  0.00  0.00    +0.029 A 
BRANCH   3   2
ATOM      1  C   UNL     1      -0.012   2.652  26.085  0.00  0.00    +0.252 C 
ATOM      2  O   UNL     1      -0.736   2.542  25.706  0.00  0.00    -0.472 OA
ENDBRANCH   3   2
ENDBRANCH   9   8
ENDBRANCH  10   9
ENDBRANCH  11  10
TORSDOF 6
ENDMDL
MODEL 2
REMARK VINA RESULT:     -11.3      1.390      4.641
REMARK  Name = 
REMARK  6 active torsions:
REMARK  status: ('A' for Active; 'I' for Inactive)
REMARK    1  A    between atoms: O_2  and  C_3
REMARK    2  A    between atoms: C_8  and  C_9
REMARK    3  A    between atoms: C_9  and  N_10
REMARK    4  A    between atoms: N_10  and  C_11
REMARK    5  A    between atoms: C_17  and  N_20
REMARK    6  A    between atoms: C_23  and  C_26
REMARK                            x       y       z     vdW  Elec       q    Type
REMARK                         _______ _______ _______ _____ _____    ______ ____
ROOT
ATOM     11  C   UNL     1      -3.391   1.360  24.570  0.00  0.00    +0.135 C 
ATOM     12  C   UNL     1      -3.773   2.107  24.170  0.00  0.00    +0.166 C 
ATOM     13  C   UNL     1      -3.394   2.776  24.288  0.00  0.00    +0.176 C 
ATOM     14  O   UNL     1      -3.382   3.489  24.154  0.00  0.00    -0.327 OA
ATOM     15  C   UNL     1      -3.680   2.658  24.122  0.00  0.00    +0.253 C 
ATOM     16  O   UNL     1      -4.329   2.294  23.767  0.00  0.00    -0.328 OA
ATOM     17  C   UNL     1      -3.269   1.887  24.546  0.00  0.00    +0.147 C 
ATOM     18  C   UNL     1      -2.740   1.728  24.927  0.00  0.00    +0.190 C 
ATOM     19  O   UNL     1      -2.047   1.819  25.365  0.00  0.00    -0.220 OA
ENDROOT
BRANCH  17  20
ATOM     20  N   UNL     1      -2.825   2.564  24.705  0.00  0.00    -0.268 NA
ATOM     21  C   UNL     1      -3.001   3.028  25.364  0.00  0.00    +0.073 C 
ATOM     22  C   UNL     1      -2.556   3.705  25.523  0.00  0.00    +0.027 C 
ATOM     23  C   UNL     1      -1.935   3.916  25.023  0.00  0.00    +0.083 C 
ATOM     24  C   UNL     1      -1.759   3.452  24.364  0.00  0.00    +0.027 C 
ATOM     25  C   UNL     1      -2.203   2.776  24.205  0.00  0.00    +0.073 C 
BRANCH  23  26
ATOM     26  C   UNL     1      -1.490   4.593  25.181  0.00  0.00    +0.260 C 
ATOM     27  N   UNL     1      -0.690   4.617  24.978  0.00  0.00    -0.088 NA
ATOM     28  O   UNL     1      -1.842   5.245  25.542  0.00  0.00    -0.272 OA
ENDBRANCH  23  26
ENDBRANCH  17  20
BRANCH  11  10
ATOM     10  N   UNL     1      -3.629   0.569  24.571  0.00  0.00    -0.209 NA
BRANCH  10   9
ATOM      9  C   UNL     1      -3.075  -0.028  24.438  0.00  0.00    +0.118 C 
BRANCH   9   8
ATOM      3  C   UNL     1      -2.793  -1.427  24.507  0.00  0.00    +0.136 A 
ATOM      4  C   UNL     1      -3.040  -2.210  24.432  0.00  0.00    +0.037 A 
ATOM      5  C   UNL     1      -3.818  -2.377  24.214  0.00  0.00    +0.003 A 
ATOM      6  C   UNL     1      -4.348  -1.761  24.070  0.00  0.00    -0.000 A 
ATOM      7  C   UNL     1      -4.100  -0.979  24.144  0.00  0.00    +0.000 A 
ATOM      8  C   UNL     1      -3.323  -0.811  24.363  0.00  0.00    +0.029 A 
BRANCH   3   2
ATOM      1  C   UNL     1      -1.464  -1.870  24.791  0.00  0.00    +0.252 C 
ATOM      2  O   UNL     1      -2.015  -1.259  24.725  0.00  0.00    -0.472 OA
ENDBRANCH   3   2
ENDBRANCH   9   8
ENDBRANCH  10   9
ENDBRANCH  11  10
TORSDOF 6
ENDMDL
MODEL 3
REMARK VINA RESULT:     -10.9      1.336      1.967
REMARK  Name = 
REMARK  6 active torsions:
REMARK  status: ('A' for Active; 'I' for Inactive)
REMARK    1  A    between atoms: O_2  and  C_3
REMARK    2  A    between atoms: C_8  and  C_9
REMARK    3  A    between atoms: C_9  and  N_10
REMARK    4  A    between atoms: N_10  and  C_11
REMARK    5  A    between atoms: C_17  and  N_20
REMARK    6  A    between atoms: C_23  and  C_26
REMARK                            x       y       z     vdW  Elec       q    Type
REMARK                         _______ _______ _______ _____ _____    ______ ____
ROOT
ATOM     11  C   UNL     1      -1.689   0.976  25.032  0.00  0.00    +0.135 C 
ATOM     12  C   UNL     1      -1.368   0.281  25.558  0.00  0.00    +0.166 C 
ATOM     13  C   UNL     1      -1.751  -0.393  25.487  0.00  0.00    +0.176 C 
ATOM     14  O   UNL     1      -1.794  -1.083  25.708  0.00  0.00    -0.327 OA
ATOM     15  C   UNL     1      -1.479  -0.259  25.665  0.00  0.00    +0.253 C 
ATOM     16  O   UNL     1      -0.859   0.139  26.035  0.00  0.00    -0.328 OA
ATOM     17  C   UNL     1      -1.826   0.458  25.109  0.00  0.00    +0.147 C 
ATOM     18  C   UNL     1      -2.312   0.574  24.661  0.00  0.00    +0.190 C 
ATOM     19  O   UNL     1      -2.960   0.437  24.170  0.00  0.00    -0.220 OA
ENDROOT
BRANCH  17  20
ATOM     20  N   UNL     1      -2.271  -0.228  24.992  0.00  0.00    -0.268 NA
ATOM     21  C   UNL     1      -2.029  -0.786  24.435  0.00  0.00    +0.073 C 
ATOM     22  C   UNL     1      -2.473  -1.471  24.317  0.00  0.00    +0.027 C 
ATOM     23  C   UNL     1      -3.159  -1.598  24.758  0.00  0.00    +0.083 C 
ATOM     24  C   UNL     1      -3.401  -1.040  25.315  0.00  0.00    +0.027 C 
ATOM     25  C   UNL     1      -2.957  -0.355  25.432  0.00  0.00    +0.073 C 
BRANCH  23  26
ATOM     26  C   UNL     1      -3.604  -2.283  24.642  0.00  0.00    +0.260 C 
ATOM     27  N   UNL     1      -4.123  -2.334  24.002  0.00  0.00    -0.088 NA
ATOM     28  O   UNL     1      -3.532  -2.917  25.164  0.00  0.00    -0.272 OA
ENDBRANCH  23  26
ENDBRANCH  17  20
BRANCH  11  10
ATOM     10  N   UNL     1      -1.432   1.757  24.956  0.00  0.00    -0.209 NA
BRANCH  10   9
ATOM      9  C   UNL     1      -1.921   2.377  25.197  0.00  0.00    +0.118 C 
BRANCH   9   8
ATOM      3  C   UNL     1      -2.104   3.766  25.475  0.00  0.00    +0.136 A 
ATOM      4  C   UNL     1      -1.834   4.545  25.434  0.00  0.00    +0.037 A 
ATOM      5  C   UNL     1      -1.112   4.711  25.072  0.00  0.00    +0.003 A 
ATOM      6  C   UNL     1      -0.659   4.100  24.753  0.00  0.00    -0.000 A 
ATOM      7  C   UNL     1      -0.929   3.322  24.794  0.00  0.00    +0.000 A 
ATOM      8  C   UNL     1      -1.651   3.155  25.155  0.00  0.00    +0.029 A 
BRANCH   3   2
ATOM      1  C   UNL     1      -3.268   4.207  26.176  0.00  0.00    +0.252 C 
ATOM      2  O   UNL     1      -2.827   3.599  25.836  0.00  0.00    -0.472 OA
ENDBRANCH   3   2
ENDBRANCH   9   8
ENDBRANCH  10   9
ENDBRANCH  11  10
TORSDOF 6
ENDMDL
MODEL 4
REMARK VINA RESULT:     -10.4      1.532      5.129
REMARK  Name = 
REMARK  6 active torsions:
REMARK  status: ('A' for Active; 'I' for Inactive)
REMARK    1  A    between atoms: O_2  and  C_3
REMARK    2  A    between atoms: C_8  and  C_9
REMARK    3  A    between atoms: C_9  and  N_10
REMARK    4  A    between atoms: N_10  and  C_11
REMARK    5  A    between atoms: C_17  and  N_20
REMARK    6  A    between atoms: C_23  and  C_26
REMARK                            x       y       z     vdW  Elec       q    Type
REMARK                         _______ _______ _______ _____ _____    ______ ____
ROOT
ATOM     11  C   UNL     1      -1.168   1.139  25.080  0.00  0.00    +0.135 C 
ATOM     12  C   UNL     1      -0.678   1.534  25.764  0.00  0.00    +0.166 C 
ATOM     13  C   UNL     1      -0.677   2.312  25.765  0.00  0.00    +0.176 C 
ATOM     14  O   UNL     1      -0.437   2.910  26.099  0.00  0.00    -0.327 OA
ATOM     15  C   UNL     1      -0.544   2.046  25.951  0.00  0.00    +0.253 C 
ATOM     16  O   UNL     1      -0.277   1.362  26.327  0.00  0.00    -0.328 OA
ATOM     17  C   UNL     1      -1.059   1.648  25.231  0.00  0.00    +0.147 C 
ATOM     18  C   UNL     1      -1.435   1.828  24.705  0.00  0.00    +0.190 C 
ATOM     19  O   UNL     1      -1.824   2.311  24.160  0.00  0.00    -0.220 OA
ENDROOT
BRANCH  17  20
ATOM     20  N   UNL     1      -1.095   2.471  25.180  0.00  0.00    -0.268 NA
ATOM     21  C   UNL     1      -0.540   2.881  24.727  0.00  0.00    +0.073 C 
ATOM     22  C   UNL     1      -0.575   3.703  24.676  0.00  0.00    +0.027 C 
ATOM     23  C   UNL     1      -1.166   4.116  25.076  0.00  0.00    +0.083 C 
ATOM     24  C   UNL     1      -1.722   3.707  25.528  0.00  0.00    +0.027 C 
ATOM     25  C   UNL     1      -1.686   2.884  25.580  0.00  0.00    +0.073 C 
BRANCH  23  26
ATOM     26  C   UNL     1      -1.203   4.939  25.025  0.00  0.00    +0.260 C 
ATOM     27  N   UNL     1      -1.871   5.339  25.298  0.00  0.00    -0.088 NA
ATOM     28  O   UNL     1      -0.572   5.362  24.703  0.00  0.00    -0.272 OA
ENDBRANCH  23  26
ENDBRANCH  17  20
BRANCH  11  10
ATOM     10  N   UNL     1      -1.297   0.344  24.901  0.00  0.00    -0.209 NA
BRANCH  10   9
ATOM      9  C   UNL     1      -2.065   0.042  24.893  0.00  0.00    +0.118 C 
BRANCH   9   8
ATOM      3  C   UNL     1      -2.958  -1.051  24.677  0.00  0.00    +0.136 A 
ATOM      4  C   UNL     1      -3.085  -1.857  24.553  0.00  0.00    +0.037 A 
ATOM      5  C   UNL     1      -2.443  -2.374  24.521  0.00  0.00    +0.003 A 
ATOM      6  C   UNL     1      -1.675  -2.086  24.614  0.00  0.00    -0.000 A 
ATOM      7  C   UNL     1      -1.549  -1.281  24.738  0.00  0.00    +0.000 A 
ATOM      8  C   UNL     1      -2.191  -0.763  24.769  0.00  0.00    +0.029 A 
BRANCH   3   2
ATOM      1  C   UNL     1      -4.334  -0.768  24.413  0.00  0.00    +0.252 C 
ATOM      2  O   UNL     1      -3.600  -0.534  24.709  0.00  0.00    -0.472 OA
ENDBRANCH   3   2
ENDBRANCH   9   8
ENDBRANCH  10   9
ENDBRANCH  11  10
TORSDOF 6
ENDMDL
