MODEL 1
REMARK VINA RESULT:     -11.5      0.000      0.000
REMARK  Name = 
REMARK  5 active torsions:
REMARK  status: ('A' for Active; 'I' for Inactive)
REMARK    1  A    between atoms: N_4  and  C_5
REMARK    2  A    between atoms: C_8  and  C_9
REMARK    3  A    between atoms: C_9  and  N_10
REMARK    4  A    between atoms: C_14  and  C_15
REMARK    5  A    between atoms: C_17  and  C_20
REMARK                            x       y       z     vdW  Elec       q    Type
REMARK                         _______ _______ _______ _____ _____    ______ ____
ROOT
ATOM     10  N   UNL     1      -4.576   1.485  24.917  0.00  0.00    -0.263 NA
ATOM     11  C   UNL     1      -5.245   1.177  25.289  0.00  0.00    +0.073 C 
ATOM     12  C   UNL     1      -5.674   1.808  25.603  0.00  0.00    +0.019 C 
ATOM     13  C   UNL     1      -5.270   2.505  25.425  0.00  0.00    +0.027 C 
ATOM     14  C   UNL     1      -4.591   2.305  25.001  0.00  0.00    +0.138 C 
ENDROOT
BRANCH  14  15
ATOM     15  C   UNL     1      -4.027   2.833  24.712  0.00  0.00    +0.251 A 
ATOM     16  N   UNL     1      -3.356   3.095  25.115  0.00  0.00    -0.189 NA
ATOM     17  C   UNL     1      -2.949   3.615  24.621  0.00  0.00    +0.208 A 
ATOM     18  N   UNL     1      -3.368   3.675  23.913  0.00  0.00    -0.056 NA
ATOM     19  O   UNL     1      -4.033   3.192  23.969  0.00  0.00    -0.336 OA
BRANCH  17  20
ATOM     20  C   UNL     1      -2.246   4.007  24.803  0.00  0.00    +0.093 A 
ATOM     21  C   UNL     1      -1.522   3.669  24.601  0.00  0.00    +0.176 A 
ATOM     22  N   UNL     1      -1.499   2.939  24.215  0.00  0.00    -0.107 NA
ATOM     23  N   UNL     1      -0.818   4.061  24.783  0.00  0.00    -0.206 NA
ATOM     24  C   UNL     1      -0.841   4.790  25.168  0.00  0.00    +0.200 A 
ATOM     25  N   UNL     1      -1.565   5.128  25.371  0.00  0.00    -0.222 NA
ATOM     26  C   UNL     1      -2.268   4.736  25.188  0.00  0.00    +0.107 A 
ENDBRANCH  17  20
ENDBRANCH  14  15
BRANCH  10   9
ATOM      9  C   UNL     1      -3.993   1.049  24.529  0.00  0.00    +0.099 C 
BRANCH   9   8
ATOM      5  C   UNL     1      -3.913  -1.412  24.787  0.00  0.00    +0.073 A 
ATOM      6  C   UNL     1      -3.577  -0.926  25.363  0.00  0.00    +0.016 A 
ATOM      7  C   UNL     1      -3.603  -0.106  25.277  0.00  0.00    -0.002 A 
ATOM      8  C   UNL     1      -3.966   0.228  24.615  0.00  0.00    -0.006 A 
ATOM     27  C   UNL     1      -4.302  -0.258  24.039  0.00  0.00    -0.002 A 
ATOM     28  C   UNL     1      -4.275  -1.079  24.126  0.00  0.00    +0.016 A 
BRANCH   5   4
ATOM      1  C   UNL     1      -3.207  -3.475  24.680  0.00  0.00    +0.097 C 
ATOM      2  C   UNL     1      -3.233  -2.655  24.594  0.00  0.00    +0.246 C 
ATOM      3  O   UNL     1      -2.610  -2.257  24.229  0.00  0.00    -0.273 OA
ATOM      4  N   UNL     1      -3.885  -2.232  24.873  0.00  0.00    -0.179 NA
ENDBRANCH   5   4
ENDBRANCH   9   8
ENDBRANCH  10   9
TORSDOF 5
ENDMDL
MODEL 2
REMARK VINA RESULT:     -10.4      2.005      2.908
REMARK  Name = 
REMARK  5 active torsions:
REMARK  status: ('A' for Active; 'I' for Inactive)
REMARK    1  A    between atoms: N_4  and  C_5
REMARK    2  A    between atoms: C_8  and  C_9
REMARK    3  A    between atoms: C_9  and  N_10
REMARK    4  A    between atoms: C_14  and  C_15
REMARK    5  A    between atoms: C_17  and  C_20
REMARK                            x       y       z     vdW  Elec       q    Type
REMARK                         _______ _______ _______ _____ _____    ______ ____
ROOT
ATOM     10  N   UNL     1      -0.745   0.516  24.748  0.00  0.00    -0.263 NA
ATOM     11  C   UNL     1      -0.480  -0.074  24.237  0.00  0.00    +0.073 C 
ATOM     12  C   UNL     1       0.142   0.235  23.791  0.00  0.00    +0.019 C 
ATOM     13  C   UNL     1       0.260   1.017  24.028  0.00  0.00    +0.027 C 
ATOM     14  C   UNL     1      -0.288   1.190  24.619  0.00  0.00    +0.138 C 
ENDROOT
BRANCH  14  15
ATOM     15  C   UNL     1      -0.366   1.911  25.013  0.00  0.00    +0.251 A 
ATOM     16  N   UNL     1      -0.739   2.586  24.719  0.00  0.00    -0.189 NA
ATOM     17  C   UNL     1      -0.688   3.175  25.294  0.00  0.00    +0.208 A 
ATOM     18  N   UNL     1      -0.284   2.865  25.942  0.00  0.00    -0.056 NA
ATOM     19  O   UNL     1      -0.085   2.084  25.768  0.00  0.00    -0.336 OA
BRANCH  17  20
ATOM     20  C   UNL     1      -0.989   3.941  25.231  0.00  0.00    +0.093 A 
ATOM     21  C   UNL     1      -1.729   4.120  25.547  0.00  0.00    +0.176 A 
ATOM     22  N   UNL     1      -2.169   3.534  25.925  0.00  0.00    -0.107 NA
ATOM     23  N   UNL     1      -2.030   4.886  25.484  0.00  0.00    -0.206 NA
ATOM     24  C   UNL     1      -1.590   5.472  25.105  0.00  0.00    +0.200 A 
ATOM     25  N   UNL     1      -0.850   5.293  24.789  0.00  0.00    -0.222 NA
ATOM     26  C   UNL     1      -0.549   4.527  24.852  0.00  0.00    +0.107 A 
ENDBRANCH  17  20
ENDBRANCH  14  15
BRANCH  10   9
ATOM      9  C   UNL     1      -1.360   0.445  25.293  0.00  0.00    +0.099 C 
BRANCH   9   8
ATOM      5  C   UNL     1      -3.038  -1.358  25.037  0.00  0.00    +0.073 A 
ATOM      6  C   UNL     1      -2.394  -1.462  25.542  0.00  0.00    +0.016 A 
ATOM      7  C   UNL     1      -1.835  -0.862  25.628  0.00  0.00    -0.002 A 
ATOM      8  C   UNL     1      -1.920  -0.157  25.207  0.00  0.00    -0.006 A 
ATOM     27  C   UNL     1      -2.564  -0.052  24.702  0.00  0.00    -0.002 A 
ATOM     28  C   UNL     1      -3.122  -0.653  24.617  0.00  0.00    +0.016 A 
BRANCH   5   4
ATOM      1  C   UNL     1      -4.013  -3.185  24.347  0.00  0.00    +0.097 C 
ATOM      2  C   UNL     1      -3.454  -2.584  24.432  0.00  0.00    +0.246 C 
ATOM      3  O   UNL     1      -2.753  -2.608  23.998  0.00  0.00    -0.273 OA
ATOM      4  N   UNL     1      -3.596  -1.958  24.951  0.00  0.00    -0.179 NA
ENDBRANCH   5   4
ENDBRANCH   9   8
ENDBRANCH  10   9
TORSDOF 5
ENDMDL
MODEL 3
REMARK VINA RESULT:     -10.4      1.328      5.248
REMARK  Name = 
REMARK  5 active torsions:
REMARK  status: ('A' for Active; 'I' for Inactive)
REMARK    1  A    between atoms: N_4  and  C_5
REMARK    2  A    between atoms: C_8  and  C_9
REMARK    3  A    between atoms: C_9  and  N_10
REMARK    4  A    between atoms: C_14  and  C_15
REMARK    5  A    between atoms: C_17  and  C_20
REMARK                            x       y       z     vdW  Elec       q    Type
REMARK                         _______ _______ _______ _____ _____    ______ ____
ROOT
ATOM     10  N   UNL     1      -4.241   1.757  24.926  0.00  0.00    -0.263 NA
ATOM     11  C   UNL     1      -4.761   2.376  24.763  0.00  0.00    +0.073 C 
ATOM     12  C   UNL     1      -5.523   2.062  24.720  0.00  0.00    +0.019 C 
ATOM     13  C   UNL     1      -5.472   1.250  24.856  0.00  0.00    +0.027 C 
ATOM     14  C   UNL     1      -4.679   1.062  24.984  0.00  0.00    +0.138 C 
ENDROOT
BRANCH  14  15
ATOM     15  C   UNL     1      -4.378   0.311  25.142  0.00  0.00    +0.251 A 
ATOM     16  N   UNL     1      -4.168  -0.256  24.579  0.00  0.00    -0.189 NA
ATOM     17  C   UNL     1      -3.894  -0.923  24.979  0.00  0.00    +0.208 A 
ATOM     18  N   UNL     1      -3.934  -0.769  25.788  0.00  0.00    -0.056 NA
ATOM     19  O   UNL     1      -4.233  -0.008  25.888  0.00  0.00    -0.336 OA
BRANCH  17  20
ATOM     20  C   UNL     1      -3.626  -1.621  24.630  0.00  0.00    +0.093 A 
ATOM     21  C   UNL     1      -2.833  -1.837  24.696  0.00  0.00    +0.176 A 
ATOM     22  N   UNL     1      -2.307  -1.355  25.111  0.00  0.00    -0.107 NA
ATOM     23  N   UNL     1      -2.565  -2.536  24.348  0.00  0.00    -0.206 NA
ATOM     24  C   UNL     1      -3.091  -3.018  23.933  0.00  0.00    +0.200 A 
ATOM     25  N   UNL     1      -3.885  -2.802  23.867  0.00  0.00    -0.222 NA
ATOM     26  C   UNL     1      -4.152  -2.103  24.216  0.00  0.00    +0.107 A 
ENDBRANCH  17  20
ENDBRANCH  14  15
BRANCH  10   9
ATOM      9  C   UNL     1      -3.423   1.824  25.016  0.00  0.00    +0.099 C 
BRANCH   9   8
ATOM      5  C   UNL     1      -2.350   4.055  24.975  0.00  0.00    +0.073 A 
ATOM      6  C   UNL     1      -2.449   3.632  24.274  0.00  0.00    +0.016 A 
ATOM      7  C   UNL     1      -2.806   2.888  24.287  0.00  0.00    -0.002 A 
ATOM      8  C   UNL     1      -3.065   2.568  25.003  0.00  0.00    -0.006 A 
ATOM     27  C   UNL     1      -2.967   2.991  25.704  0.00  0.00    -0.002 A 
ATOM     28  C   UNL     1      -2.609   3.734  25.690  0.00  0.00    +0.016 A 
BRANCH   5   4
ATOM      1  C   UNL     1      -0.812   5.603  24.957  0.00  0.00    +0.097 C 
ATOM      2  C   UNL     1      -1.169   4.860  24.971  0.00  0.00    +0.246 C 
ATOM      3  O   UNL     1      -0.705   4.179  24.995  0.00  0.00    -0.273 OA
ATOM      4  N   UNL     1      -1.993   4.797  24.962  0.00  0.00    -0.179 NA
ENDBRANCH   5   4
ENDBRANCH   9   8
ENDBRANCH  10   9
TORSDOF 5
ENDMDL
MODEL 4
REMARK VINA RESULT:     -10.2      2.031      5.887
REMARK  Name = 
REMARK  5 active torsions:
REMARK  status: ('A' for Active; 'I' for Inactive)
REMARK    1  A    between atoms: N_4  and  C_5
REMARK    2  A    between atoms: C_8  and  C_9
REMARK    3  A    between atoms: C_9  and  N_10
REMARK    4  A    between atoms: C_14  and  C_15
REMARK    5  A    between atoms: C_17  and  C_20
REMARK                            x       y       z     vdW  Elec       q    Type
REMARK                         _______ _______ _______ _____ _____    ______ ____
ROOT
ATOM     10  N   UNL     1      -0.683   0.971  24.807  0.00  0.00    -0.263 NA
ATOM     11  C   UNL     1      -0.060   1.366  24.437  0.00  0.00    +0.073 C 
ATOM     12  C   UNL     1       0.305   0.836  23.920  0.00  0.00    +0.019 C 
ATOM     13  C   UNL     1      -0.093   0.115  23.971  0.00  0.00    +0.027 C 
ATOM     14  C   UNL     1      -0.703   0.199  24.520  0.00  0.00    +0.138 C 
ENDROOT
BRANCH  14  15
ATOM     15  C   UNL     1      -1.240  -0.387  24.742  0.00  0.00    +0.251 A 
ATOM     16  N   UNL     1      -1.889  -0.642  24.301  0.00  0.00    -0.189 NA
ATOM     17  C   UNL     1      -2.272  -1.233  24.730  0.00  0.00    +0.208 A 
ATOM     18  N   UNL     1      -1.860  -1.343  25.436  0.00  0.00    -0.056 NA
ATOM     19  O   UNL     1      -1.223  -0.821  25.443  0.00  0.00    -0.336 OA
BRANCH  17  20
ATOM     20  C   UNL     1      -2.949  -1.642  24.495  0.00  0.00    +0.093 A 
ATOM     21  C   UNL     1      -2.918  -2.459  24.383  0.00  0.00    +0.176 A 
ATOM     22  N   UNL     1      -2.212  -2.867  24.506  0.00  0.00    -0.107 NA
ATOM     23  N   UNL     1      -3.595  -2.868  24.148  0.00  0.00    -0.206 NA
ATOM     24  C   UNL     1      -4.302  -2.461  24.024  0.00  0.00    +0.200 A 
ATOM     25  N   UNL     1      -4.332  -1.644  24.136  0.00  0.00    -0.222 NA
ATOM     26  C   UNL     1      -3.655  -1.235  24.372  0.00  0.00    +0.107 A 
ENDBRANCH  17  20
ENDBRANCH  14  15
BRANCH  10   9
ATOM      9  C   UNL     1      -1.195   1.294  25.367  0.00  0.00    +0.099 C 
BRANCH   9   8
ATOM      5  C   UNL     1      -1.599   3.736  25.415  0.00  0.00    +0.073 A 
ATOM      6  C   UNL     1      -2.058   3.251  24.931  0.00  0.00    +0.016 A 
ATOM      7  C   UNL     1      -1.924   2.437  24.914  0.00  0.00    -0.002 A 
ATOM      8  C   UNL     1      -1.330   2.108  25.383  0.00  0.00    -0.006 A 
ATOM     27  C   UNL     1      -0.871   2.593  25.868  0.00  0.00    -0.002 A 
ATOM     28  C   UNL     1      -1.006   3.407  25.883  0.00  0.00    +0.016 A 
BRANCH   5   4
ATOM      1  C   UNL     1      -1.383   5.870  25.013  0.00  0.00    +0.097 C 
ATOM      2  C   UNL     1      -1.248   5.056  24.997  0.00  0.00    +0.246 C 
ATOM      3  O   UNL     1      -0.628   4.750  24.548  0.00  0.00    -0.273 OA
ATOM      4  N   UNL     1      -1.734   4.549  25.431  0.00  0.00    -0.179 NA
ENDBRANCH   5   4
ENDBRANCH   9   8
ENDBRANCH  10   9
TORSDOF 5
ENDMDL
MODEL 5
REMARK VINA RESULT:      -9.3      2.585      4.421
REMARK  Name = 
REMARK  5 active torsions:
REMARK  status: ('A' for Active; 'I' for Inactive)
REMARK    1  A    between atoms: N_4  and  C_5
REMARK    2  A    between atoms: C_8  and  C_9
REMARK    3  A    between atoms: C_9  and  N_10
REMARK    4  A    between atoms: C_14  and  C_15
REMARK    5  A    between atoms: C_17  and  C_20
REMARK                            x       y       z     vdW  Elec       q    Type
REMARK                         _______ _______ _______ _____ _____    ______ ____
ROOT
ATOM     10  N   UNL     1      -1.732   3.830  25.396  0.00  0.00    -0.263 NA
ATOM     11  C   UNL     1      -1.981   4.610  25.296  0.00  0.00    +0.073 C 
ATOM     12  C   UNL     1      -1.364   5.029  24.942  0.00  0.00    +0.019 C 
ATOM     13  C   UNL     1      -0.736   4.508  24.825  0.00  0.00    +0.027 C 
ATOM     14  C   UNL     1      -0.964   3.766  25.105  0.00  0.00    +0.138 C 
ENDROOT
BRANCH  14  15
ATOM     15  C   UNL     1      -0.504   3.082  25.097  0.00  0.00    +0.251 A 
ATOM     16  N   UNL     1      -0.452   2.540  24.476  0.00  0.00    -0.189 NA
ATOM     17  C   UNL     1       0.068   1.942  24.703  0.00  0.00    +0.208 A 
ATOM     18  N   UNL     1       0.338   2.114  25.463  0.00  0.00    -0.056 NA
ATOM     19  O   UNL     1      -0.015   2.817  25.706  0.00  0.00    -0.336 OA
BRANCH  17  20
ATOM     20  C   UNL     1       0.282   1.287  24.248  0.00  0.00    +0.093 A 
ATOM     21  C   UNL     1      -0.075   0.556  24.387  0.00  0.00    +0.176 A 
ATOM     22  N   UNL     1      -0.644   0.480  24.979  0.00  0.00    -0.107 NA
ATOM     23  N   UNL     1       0.139  -0.099  23.932  0.00  0.00    -0.206 NA
ATOM     24  C   UNL     1       0.708  -0.023  23.340  0.00  0.00    +0.200 A 
ATOM     25  N   UNL     1       1.065   0.708  23.202  0.00  0.00    -0.222 NA
ATOM     26  C   UNL     1       0.851   1.363  23.656  0.00  0.00    +0.107 A 
ENDBRANCH  17  20
ENDBRANCH  14  15
BRANCH  10   9
ATOM      9  C   UNL     1      -2.177   3.220  25.730  0.00  0.00    +0.099 C 
BRANCH   9   8
ATOM      5  C   UNL     1      -4.594   3.032  25.229  0.00  0.00    +0.073 A 
ATOM      6  C   UNL     1      -4.042   2.665  24.739  0.00  0.00    +0.016 A 
ATOM      7  C   UNL     1      -3.236   2.728  24.905  0.00  0.00    -0.002 A 
ATOM      8  C   UNL     1      -2.983   3.157  25.563  0.00  0.00    -0.006 A 
ATOM     27  C   UNL     1      -3.535   3.524  26.054  0.00  0.00    -0.002 A 
ATOM     28  C   UNL     1      -4.341   3.461  25.886  0.00  0.00    +0.016 A 
BRANCH   5   4
ATOM      1  C   UNL     1      -6.608   2.206  25.065  0.00  0.00    +0.097 C 
ATOM      2  C   UNL     1      -5.802   2.269  25.232  0.00  0.00    +0.246 C 
ATOM      3  O   UNL     1      -5.400   1.632  25.568  0.00  0.00    -0.273 OA
ATOM      4  N   UNL     1      -5.399   2.969  25.063  0.00  0.00    -0.179 NA
ENDBRANCH   5   4
ENDBRANCH   9   8
ENDBRANCH  10   9
TORSDOF 5
ENDMDL
MODEL 6
REMARK VINA RESULT:      -9.3      1.916      3.379
REMARK  Name = 
REMARK  5 active torsions:
REMARK  status: ('A' for Active; 'I' for Inactive)
REMARK    1  A    between atoms: N_4  and  C_5
REMARK    2  A    between atoms: C_8  and  C_9
REMARK    3  A    between atoms: C_9  and  N_10
REMARK    4  A    between atoms: C_14  and  C_15
REMARK    5  A    between atoms: C_17  and  C_20
REMARK                            x       y       z     vdW  Elec       q    Type
REMARK                         _______ _______ _______ _____ _____    ______ ____
ROOT
ATOM     10  N   UNL     1      -1.328   2.461  24.803  0.00  0.00    -0.263 NA
ATOM     11  C   UNL     1      -0.572   2.586  25.108  0.00  0.00    +0.073 C 
ATOM     12  C   UNL     1      -0.574   3.312  25.502  0.00  0.00    +0.019 C 
ATOM     13  C   UNL     1      -1.331   3.633  25.439  0.00  0.00    +0.027 C 
ATOM     14  C   UNL     1      -1.797   3.107  25.006  0.00  0.00    +0.138 C 
ENDROOT
BRANCH  14  15
ATOM     15  C   UNL     1      -2.592   3.209  24.813  0.00  0.00    +0.251 A 
ATOM     16  N   UNL     1      -3.237   3.015  25.290  0.00  0.00    -0.189 NA
ATOM     17  C   UNL     1      -3.925   3.209  24.880  0.00  0.00    +0.208 A 
ATOM     18  N   UNL     1      -3.707   3.523  24.149  0.00  0.00    -0.056 NA
ATOM     19  O   UNL     1      -2.884   3.523  24.108  0.00  0.00    -0.336 OA
BRANCH  17  20
ATOM     20  C   UNL     1      -4.697   3.107  25.153  0.00  0.00    +0.093 A 
ATOM     21  C   UNL     1      -5.130   2.442  24.926  0.00  0.00    +0.176 A 
ATOM     22  N   UNL     1      -4.791   1.879  24.427  0.00  0.00    -0.107 NA
ATOM     23  N   UNL     1      -5.902   2.340  25.199  0.00  0.00    -0.206 NA
ATOM     24  C   UNL     1      -6.241   2.903  25.698  0.00  0.00    +0.200 A 
ATOM     25  N   UNL     1      -5.808   3.568  25.925  0.00  0.00    -0.222 NA
ATOM     26  C   UNL     1      -5.036   3.670  25.652  0.00  0.00    +0.107 A 
ENDBRANCH  17  20
ENDBRANCH  14  15
BRANCH  10   9
ATOM      9  C   UNL     1      -1.571   1.802  24.369  0.00  0.00    +0.099 C 
BRANCH   9   8
ATOM      5  C   UNL     1      -0.663  -0.438  24.903  0.00  0.00    +0.073 A 
ATOM      6  C   UNL     1      -0.412  -0.042  24.224  0.00  0.00    +0.016 A 
ATOM      7  C   UNL     1      -0.714   0.704  24.046  0.00  0.00    -0.002 A 
ATOM      8  C   UNL     1      -1.268   1.055  24.547  0.00  0.00    -0.006 A 
ATOM     27  C   UNL     1      -1.520   0.659  25.226  0.00  0.00    -0.002 A 
ATOM     28  C   UNL     1      -1.216  -0.088  25.403  0.00  0.00    +0.016 A 
BRANCH   5   4
ATOM      1  C   UNL     1      -0.496  -2.607  25.079  0.00  0.00    +0.097 C 
ATOM      2  C   UNL     1      -0.799  -1.861  24.902  0.00  0.00    +0.246 C 
ATOM      3  O   UNL     1      -1.539  -1.790  24.546  0.00  0.00    -0.273 OA
ATOM      4  N   UNL     1      -0.360  -1.184  25.080  0.00  0.00    -0.179 NA
ENDBRANCH   5   4
ENDBRANCH   9   8
ENDBRANCH  10   9
TORSDOF 5
ENDMDL
