MODEL 1
REMARK VINA RESULT:     -10.6      0.000      0.000
REMARK  Name = 
REMARK  5 active torsions:
REMARK  status: ('A' for Active; 'I' for Inactive)
REMARK    1  A    between atoms: N_3  and  C_4
REMARK    2  A    between atoms: C_8  and  N_12
REMARK    3  A    between atoms: C_16  and  O_17
REMARK    4  A    between atoms: O_17  and  C_18
REMARK    5  A    between atoms: N_27  and  C_28
REMARK                            x       y       z     vdW  Elec       q    Type
REMARK                         _______ _______ _______ _____ _____    ______ ____
ROOT
ATOM      4  C   UNL     1      -0.923   0.428  24.472  0.00  0.00    +0.156 C 
ATOM      5  C   UNL     1      -1.192   0.793  23.783  0.00  0.00    +0.166 C 
ATOM      6  O   UNL     1      -1.179   1.609  23.906  0.00  0.00    -0.350 OA
ATOM      7  C   UNL     1      -0.903   1.749  24.670  0.00  0.00    +0.169 C 
ATOM      8  C   UNL     1      -0.723   2.339  25.219  0.00  0.00    +0.170 C 
ATOM      9  C   UNL     1      -0.455   1.973  25.908  0.00  0.00    +0.169 C 
ATOM     10  O   UNL     1      -0.468   1.158  25.785  0.00  0.00    -0.350 OA
ATOM     11  C   UNL     1      -0.744   1.018  25.021  0.00  0.00    +0.167 C 
ENDROOT
BRANCH   8  12
ATOM     12  N   UNL     1      -0.800   3.151  25.098  0.00  0.00    -0.180 N 
ATOM     13  N   UNL     1      -0.333   3.614  24.600  0.00  0.00    -0.040 NA
ATOM     14  N   UNL     1      -0.602   4.393  24.649  0.00  0.00    -0.020 NA
ATOM     15  N   UNL     1      -1.235   4.411  25.178  0.00  0.00    -0.071 NA
ATOM     16  C   UNL     1      -1.358   3.644  25.455  0.00  0.00    +0.343 A 
BRANCH  16  17
ATOM     17  O   UNL     1      -1.936   3.410  25.994  0.00  0.00    -0.421 OA
BRANCH  17  18
ATOM     18  C   UNL     1      -2.711   3.681  25.911  0.00  0.00    +0.152 A 
ATOM     19  C   UNL     1      -2.913   4.438  26.172  0.00  0.00    +0.041 A 
ATOM     20  C   UNL     1      -3.688   4.709  26.089  0.00  0.00    +0.043 A 
ATOM     21  C   UNL     1      -4.261   4.224  25.746  0.00  0.00    +0.177 A 
ATOM     22  O   UNL     1      -5.062   4.340  25.592  0.00  0.00    -0.435 OA
ATOM     23  C   UNL     1      -5.356   3.656  25.237  0.00  0.00    +0.429 C 
ATOM     24  O   UNL     1      -4.735   3.117  25.171  0.00  0.00    -0.435 OA
ATOM     25  C   UNL     1      -4.058   3.468  25.485  0.00  0.00    +0.179 A 
ATOM     26  C   UNL     1      -3.283   3.196  25.568  0.00  0.00    +0.078 A 
ENDBRANCH  17  18
ENDBRANCH  16  17
ENDBRANCH   8  12
BRANCH   4   3
ATOM      1  O   UNL     1      -2.260  -0.538  24.444  0.00  0.00    -0.249 OA
ATOM      2  C   UNL     1      -1.516  -0.867  24.579  0.00  0.00    +0.344 C 
ATOM      3  N   UNL     1      -0.847  -0.385  24.593  0.00  0.00    -0.184 NA
ATOM     27  N   UNL     1      -1.439  -1.681  24.699  0.00  0.00    -0.161 NA
BRANCH  27  28
ATOM     28  C   UNL     1      -2.108  -2.163  24.685  0.00  0.00    +0.075 A 
ATOM     29  C   UNL     1      -2.219  -2.694  24.063  0.00  0.00    +0.017 A 
ATOM     30  C   UNL     1      -2.888  -3.177  24.048  0.00  0.00    +0.001 A 
ATOM     31  C   UNL     1      -3.445  -3.129  24.655  0.00  0.00    +0.000 A 
ATOM     32  C   UNL     1      -3.334  -2.599  25.277  0.00  0.00    +0.001 A 
ATOM     33  C   UNL     1      -2.665  -2.116  25.292  0.00  0.00    +0.017 A 
ENDBRANCH  27  28
ENDBRANCH   4   3
TORSDOF 5
ENDMDL
MODEL 2
REMARK VINA RESULT:     -10.6      0.988      1.426
REMARK  Name = 
REMARK  5 active torsions:
REMARK  status: ('A' for Active; 'I' for Inactive)
REMARK    1  A    between atoms: N_3  and  C_4
REMARK    2  A    between atoms: C_8  and  N_12
REMARK    3  A    between atoms: C_16  and  O_17
REMARK    4  A    between atoms: O_17  and  C_18
REMARK    5  A    between atoms: N_27  and  C_28
REMARK                            x       y       z     vdW  Elec       q    Type
REMARK                         _______ _______ _______ _____ _____    ______ ____
ROOT
ATOM      4  C   UNL     1      -0.993  -0.484  25.080  0.00  0.00    +0.156 C 
ATOM      5  C   UNL     1      -1.132  -0.327  25.878  0.00  0.00    +0.166 C 
ATOM      6  O   UNL     1      -0.883   0.445  26.033  0.00  0.00    -0.350 OA
ATOM      7  C   UNL     1      -0.589   0.765  25.331  0.00  0.00    +0.169 C 
ATOM      8  C   UNL     1      -0.254   1.438  24.992  0.00  0.00    +0.170 C 
ATOM      9  C   UNL     1      -0.114   1.281  24.195  0.00  0.00    +0.169 C 
ATOM     10  O   UNL     1      -0.363   0.510  24.040  0.00  0.00    -0.350 OA
ATOM     11  C   UNL     1      -0.657   0.190  24.742  0.00  0.00    +0.167 C 
ENDROOT
BRANCH   8  12
ATOM     12  N   UNL     1      -0.088   2.145  25.384  0.00  0.00    -0.180 N 
ATOM     13  N   UNL     1       0.518   2.266  25.931  0.00  0.00    -0.040 NA
ATOM     14  N   UNL     1       0.481   3.052  26.182  0.00  0.00    -0.020 NA
ATOM     15  N   UNL     1      -0.147   3.415  25.790  0.00  0.00    -0.071 NA
ATOM     16  C   UNL     1      -0.499   2.856  25.297  0.00  0.00    +0.343 A 
BRANCH  16  17
ATOM     17  O   UNL     1      -1.148   2.982  24.804  0.00  0.00    -0.421 OA
BRANCH  17  18
ATOM     18  C   UNL     1      -1.799   3.409  25.080  0.00  0.00    +0.152 A 
ATOM     19  C   UNL     1      -1.716   4.205  25.281  0.00  0.00    +0.041 A 
ATOM     20  C   UNL     1      -2.366   4.630  25.557  0.00  0.00    +0.043 A 
ATOM     21  C   UNL     1      -3.099   4.260  25.633  0.00  0.00    +0.177 A 
ATOM     22  O   UNL     1      -3.833   4.535  25.888  0.00  0.00    -0.435 OA
ATOM     23  C   UNL     1      -4.370   3.911  25.846  0.00  0.00    +0.429 C 
ATOM     24  O   UNL     1      -3.967   3.248  25.564  0.00  0.00    -0.435 OA
ATOM     25  C   UNL     1      -3.182   3.464  25.433  0.00  0.00    +0.179 A 
ATOM     26  C   UNL     1      -2.531   3.038  25.156  0.00  0.00    +0.078 A 
ENDBRANCH  17  18
ENDBRANCH  16  17
ENDBRANCH   8  12
BRANCH   4   3
ATOM      1  O   UNL     1      -2.547  -1.027  24.985  0.00  0.00    -0.249 OA
ATOM      2  C   UNL     1      -1.937  -1.462  24.641  0.00  0.00    +0.344 C 
ATOM      3  N   UNL     1      -1.159  -1.191  24.688  0.00  0.00    -0.184 NA
ATOM     27  N   UNL     1      -2.103  -2.170  24.249  0.00  0.00    -0.161 NA
BRANCH  27  28
ATOM     28  C   UNL     1      -2.881  -2.441  24.202  0.00  0.00    +0.075 A 
ATOM     29  C   UNL     1      -3.107  -3.116  24.618  0.00  0.00    +0.017 A 
ATOM     30  C   UNL     1      -3.885  -3.388  24.572  0.00  0.00    +0.001 A 
ATOM     31  C   UNL     1      -4.436  -2.984  24.109  0.00  0.00    +0.000 A 
ATOM     32  C   UNL     1      -4.210  -2.308  23.693  0.00  0.00    +0.001 A 
ATOM     33  C   UNL     1      -3.432  -2.037  23.740  0.00  0.00    +0.017 A 
ENDBRANCH  27  28
ENDBRANCH   4   3
TORSDOF 5
ENDMDL
MODEL 3
REMARK VINA RESULT:     -10.2      1.260      5.175
REMARK  Name = 
REMARK  5 active torsions:
REMARK  status: ('A' for Active; 'I' for Inactive)
REMARK    1  A    between atoms: N_3  and  C_4
REMARK    2  A    between atoms: C_8  and  N_12
REMARK    3  A    between atoms: C_16  and  O_17
REMARK    4  A    between atoms: O_17  and  C_18
REMARK    5  A    between atoms: N_27  and  C_28
REMARK                            x       y       z     vdW  Elec       q    Type
REMARK                         _______ _______ _______ _____ _____    ______ ____
ROOT
ATOM      4  C   UNL     1      -2.037   2.520  24.443  0.00  0.00    +0.156 C 
ATOM      5  C   UNL     1      -2.169   2.259  23.672  0.00  0.00    +0.166 C 
ATOM      6  O   UNL     1      -1.678   1.609  23.535  0.00  0.00    -0.350 OA
ATOM      7  C   UNL     1      -1.243   1.468  24.222  0.00  0.00    +0.169 C 
ATOM      8  C   UNL     1      -0.672   0.981  24.563  0.00  0.00    +0.170 C 
ATOM      9  C   UNL     1      -0.540   1.241  25.334  0.00  0.00    +0.169 C 
ATOM     10  O   UNL     1      -1.030   1.891  25.470  0.00  0.00    -0.350 OA
ATOM     11  C   UNL     1      -1.465   2.032  24.783  0.00  0.00    +0.167 C 
ENDROOT
BRANCH   8  12
ATOM     12  N   UNL     1      -0.298   0.343  24.196  0.00  0.00    -0.180 N 
ATOM     13  N   UNL     1       0.256   0.391  23.586  0.00  0.00    -0.040 NA
ATOM     14  N   UNL     1       0.483  -0.377  23.388  0.00  0.00    -0.020 NA
ATOM     15  N   UNL     1       0.069  -0.899  23.875  0.00  0.00    -0.071 NA
ATOM     16  C   UNL     1      -0.413  -0.455  24.374  0.00  0.00    +0.343 A 
BRANCH  16  17
ATOM     17  O   UNL     1      -0.922  -0.754  24.950  0.00  0.00    -0.421 OA
BRANCH  17  18
ATOM     18  C   UNL     1      -1.409  -1.397  24.776  0.00  0.00    +0.152 A 
ATOM     19  C   UNL     1      -1.082  -2.149  24.685  0.00  0.00    +0.041 A 
ATOM     20  C   UNL     1      -1.569  -2.791  24.511  0.00  0.00    +0.043 A 
ATOM     21  C   UNL     1      -2.383  -2.683  24.429  0.00  0.00    +0.177 A 
ATOM     22  O   UNL     1      -2.996  -3.207  24.260  0.00  0.00    -0.435 OA
ATOM     23  C   UNL     1      -3.701  -2.780  24.247  0.00  0.00    +0.429 C 
ATOM     24  O   UNL     1      -3.524  -1.991  24.408  0.00  0.00    -0.435 OA
ATOM     25  C   UNL     1      -2.710  -1.931  24.520  0.00  0.00    +0.179 A 
ATOM     26  C   UNL     1      -2.222  -1.287  24.694  0.00  0.00    +0.078 A 
ENDBRANCH  17  18
ENDBRANCH  16  17
ENDBRANCH   8  12
BRANCH   4   3
ATOM      1  O   UNL     1      -3.661   2.470  24.728  0.00  0.00    -0.249 OA
ATOM      2  C   UNL     1      -3.223   3.132  24.953  0.00  0.00    +0.344 C 
ATOM      3  N   UNL     1      -2.410   3.158  24.810  0.00  0.00    -0.184 NA
ATOM     27  N   UNL     1      -3.597   3.770  25.320  0.00  0.00    -0.161 NA
BRANCH  27  28
ATOM     28  C   UNL     1      -4.409   3.744  25.463  0.00  0.00    +0.075 A 
ATOM     29  C   UNL     1      -4.903   4.317  25.133  0.00  0.00    +0.017 A 
ATOM     30  C   UNL     1      -5.715   4.291  25.275  0.00  0.00    +0.001 A 
ATOM     31  C   UNL     1      -6.033   3.694  25.746  0.00  0.00    +0.000 A 
ATOM     32  C   UNL     1      -5.540   3.121  26.076  0.00  0.00    +0.001 A 
ATOM     33  C   UNL     1      -4.727   3.146  25.934  0.00  0.00    +0.017 A 
ENDBRANCH  27  28
ENDBRANCH   4   3
TORSDOF 5
ENDMDL
MODEL 4
REMARK VINA RESULT:      -9.9      2.797      3.929
REMARK  Name = 
REMARK  5 active torsions:
REMARK  status: ('A' for Active; 'I' for Inactive)
REMARK    1  A    between atoms: N_3  and  C_4
REMARK    2  A    between atoms: C_8  and  N_12
REMARK    3  A    between atoms: C_16  and  O_17
REMARK    4  A    between atoms: O_17  and  C_18
REMARK    5  A    between atoms: N_27  and  C_28
REMARK                            x       y       z     vdW  Elec       q    Type
REMARK                         _______ _______ _______ _____ _____    ______ ____
ROOT
ATOM      4  C   UNL     1       0.641   1.157  23.701  0.00  0.00    +0.156 C 
ATOM      5  C   UNL     1       0.700   1.971  23.583  0.00  0.00    +0.166 C 
ATOM      6  O   UNL     1       0.132   2.339  24.058  0.00  0.00    -0.350 OA
ATOM      7  C   UNL     1      -0.276   1.752  24.469  0.00  0.00    +0.169 C 
ATOM      8  C   UNL     1      -0.879   1.615  25.015  0.00  0.00    +0.170 C 
ATOM      9  C   UNL     1      -0.937   0.801  25.133  0.00  0.00    +0.169 C 
ATOM     10  O   UNL     1      -0.370   0.434  24.659  0.00  0.00    -0.350 OA
ATOM     11  C   UNL     1       0.038   1.021  24.248  0.00  0.00    +0.167 C 
ENDROOT
BRANCH   8  12
ATOM     12  N   UNL     1      -1.342   2.193  25.380  0.00  0.00    -0.180 N 
ATOM     13  N   UNL     1      -1.089   2.721  25.960  0.00  0.00    -0.040 NA
ATOM     14  N   UNL     1      -1.731   3.198  26.167  0.00  0.00    -0.020 NA
ATOM     15  N   UNL     1      -2.379   2.964  25.714  0.00  0.00    -0.071 NA
ATOM     16  C   UNL     1      -2.139   2.342  25.228  0.00  0.00    +0.343 A 
BRANCH  16  17
ATOM     17  O   UNL     1      -2.612   1.941  24.684  0.00  0.00    -0.421 OA
BRANCH  17  18
ATOM     18  C   UNL     1      -3.425   2.084  24.660  0.00  0.00    +0.152 A 
ATOM     19  C   UNL     1      -3.721   2.704  24.204  0.00  0.00    +0.041 A 
ATOM     20  C   UNL     1      -4.533   2.846  24.180  0.00  0.00    +0.043 A 
ATOM     21  C   UNL     1      -5.049   2.369  24.613  0.00  0.00    +0.177 A 
ATOM     22  O   UNL     1      -5.869   2.377  24.697  0.00  0.00    -0.435 OA
ATOM     23  C   UNL     1      -6.080   1.762  25.205  0.00  0.00    +0.429 C 
ATOM     24  O   UNL     1      -5.389   1.375  25.435  0.00  0.00    -0.435 OA
ATOM     25  C   UNL     1      -4.753   1.750  25.069  0.00  0.00    +0.179 A 
ATOM     26  C   UNL     1      -3.940   1.606  25.093  0.00  0.00    +0.078 A 
ENDBRANCH  17  18
ENDBRANCH  16  17
ENDBRANCH   8  12
BRANCH   4   3
ATOM      1  O   UNL     1       2.282   1.325  23.654  0.00  0.00    -0.249 OA
ATOM      2  C   UNL     1       1.924   0.664  23.313  0.00  0.00    +0.344 C 
ATOM      3  N   UNL     1       1.104   0.580  23.336  0.00  0.00    -0.184 NA
ATOM     27  N   UNL     1       2.388   0.086  22.948  0.00  0.00    -0.161 NA
BRANCH  27  28
ATOM     28  C   UNL     1       3.208   0.171  22.925  0.00  0.00    +0.075 A 
ATOM     29  C   UNL     1       3.685  -0.314  23.393  0.00  0.00    +0.017 A 
ATOM     30  C   UNL     1       4.505  -0.230  23.371  0.00  0.00    +0.001 A 
ATOM     31  C   UNL     1       4.849   0.338  22.881  0.00  0.00    +0.000 A 
ATOM     32  C   UNL     1       4.372   0.822  22.413  0.00  0.00    +0.001 A 
ATOM     33  C   UNL     1       3.551   0.738  22.435  0.00  0.00    +0.017 A 
ENDBRANCH  27  28
ENDBRANCH   4   3
TORSDOF 5
ENDMDL
MODEL 5
REMARK VINA RESULT:      -9.8      3.533      6.120
REMARK  Name = 
REMARK  5 active torsions:
REMARK  status: ('A' for Active; 'I' for Inactive)
REMARK    1  A    between atoms: N_3  and  C_4
REMARK    2  A    between atoms: C_8  and  N_12
REMARK    3  A    between atoms: C_16  and  O_17
REMARK    4  A    between atoms: O_17  and  C_18
REMARK    5  A    between atoms: N_27  and  C_28
REMARK                            x       y       z     vdW  Elec       q    Type
REMARK                         _______ _______ _______ _____ _____    ______ ____
ROOT
ATOM      4  C   UNL     1      -0.998   0.974  24.071  0.00  0.00    +0.156 C 
ATOM      5  C   UNL     1      -0.936   1.480  23.422  0.00  0.00    +0.166 C 
ATOM      6  O   UNL     1      -0.345   1.187  22.925  0.00  0.00    -0.350 OA
ATOM      7  C   UNL     1      -0.043   0.499  23.266  0.00  0.00    +0.169 C 
ATOM      8  C   UNL     1       0.509  -0.107  23.171  0.00  0.00    +0.170 C 
ATOM      9  C   UNL     1       0.447  -0.613  23.819  0.00  0.00    +0.169 C 
ATOM     10  O   UNL     1      -0.143  -0.320  24.315  0.00  0.00    -0.350 OA
ATOM     11  C   UNL     1      -0.446   0.368  23.974  0.00  0.00    +0.167 C 
ENDROOT
BRANCH   8  12
ATOM     12  N   UNL     1       1.031  -0.191  22.537  0.00  0.00    -0.180 N 
ATOM     13  N   UNL     1       0.840  -0.471  21.785  0.00  0.00    -0.040 NA
ATOM     14  N   UNL     1       1.527  -0.463  21.328  0.00  0.00    -0.020 NA
ATOM     15  N   UNL     1       2.142  -0.178  21.798  0.00  0.00    -0.071 NA
ATOM     16  C   UNL     1       1.836  -0.010  22.545  0.00  0.00    +0.343 A 
BRANCH  16  17
ATOM     17  O   UNL     1       2.259   0.288  23.188  0.00  0.00    -0.421 OA
BRANCH  17  18
ATOM     18  C   UNL     1       3.081   0.351  23.146  0.00  0.00    +0.152 A 
ATOM     19  C   UNL     1       3.427   1.008  22.786  0.00  0.00    +0.041 A 
ATOM     20  C   UNL     1       4.248   1.070  22.745  0.00  0.00    +0.043 A 
ATOM     21  C   UNL     1       4.724   0.476  23.063  0.00  0.00    +0.177 A 
ATOM     22  O   UNL     1       5.543   0.387  23.104  0.00  0.00    -0.435 OA
ATOM     23  C   UNL     1       5.703  -0.325  23.489  0.00  0.00    +0.429 C 
ATOM     24  O   UNL     1       4.983  -0.676  23.686  0.00  0.00    -0.435 OA
ATOM     25  C   UNL     1       4.378  -0.181  23.423  0.00  0.00    +0.179 A 
ATOM     26  C   UNL     1       3.556  -0.244  23.464  0.00  0.00    +0.078 A 
ENDBRANCH  17  18
ENDBRANCH  16  17
ENDBRANCH   8  12
BRANCH   4   3
ATOM      1  O   UNL     1      -2.576   1.363  23.791  0.00  0.00    -0.249 OA
ATOM      2  C   UNL     1      -2.309   1.253  24.563  0.00  0.00    +0.344 C 
ATOM      3  N   UNL     1      -1.520   1.058  24.704  0.00  0.00    -0.184 NA
ATOM     27  N   UNL     1      -2.831   1.337  25.198  0.00  0.00    -0.161 NA
BRANCH  27  28
ATOM     28  C   UNL     1      -3.621   1.532  25.057  0.00  0.00    +0.075 A 
ATOM     29  C   UNL     1      -4.183   0.934  24.970  0.00  0.00    +0.017 A 
ATOM     30  C   UNL     1      -4.972   1.128  24.829  0.00  0.00    +0.001 A 
ATOM     31  C   UNL     1      -5.200   1.919  24.776  0.00  0.00    +0.000 A 
ATOM     32  C   UNL     1      -4.638   2.517  24.863  0.00  0.00    +0.001 A 
ATOM     33  C   UNL     1      -3.848   2.323  25.003  0.00  0.00    +0.017 A 
ENDBRANCH  27  28
ENDBRANCH   4   3
TORSDOF 5
ENDMDL
MODEL 6
REMARK VINA RESULT:      -9.8      1.575      5.514
REMARK  Name = 
REMARK  5 active torsions:
REMARK  status: ('A' for Active; 'I' for Inactive)
REMARK    1  A    between atoms: N_3  and  C_4
REMARK    2  A    between atoms: C_8  and  N_12
REMARK    3  A    between atoms: C_16  and  O_17
REMARK    4  A    between atoms: O_17  and  C_18
REMARK    5  A    between atoms: N_27  and  C_28
REMARK                            x       y       z     vdW  Elec       q    Type
REMARK                         _______ _______ _______ _____ _____    ______ ____
ROOT
ATOM      4  C   UNL     1      -0.300   1.716  25.105  0.00  0.00    +0.156 C 
ATOM      5  C   UNL     1      -0.162   1.569  24.305  0.00  0.00    +0.166 C 
ATOM      6  O   UNL     1      -0.297   0.767  24.166  0.00  0.00    -0.350 OA
ATOM      7  C   UNL     1      -0.518   0.418  24.880  0.00  0.00    +0.169 C 
ATOM      8  C   UNL     1      -0.738  -0.293  25.236  0.00  0.00    +0.170 C 
ATOM      9  C   UNL     1      -0.876  -0.146  26.036  0.00  0.00    +0.169 C 
ATOM     10  O   UNL     1      -0.742   0.656  26.174  0.00  0.00    -0.350 OA
ATOM     11  C   UNL     1      -0.520   1.005  25.460  0.00  0.00    +0.167 C 
ENDROOT
BRANCH   8  12
ATOM     12  N   UNL     1      -0.808  -1.023  24.858  0.00  0.00    -0.180 N 
ATOM     13  N   UNL     1      -0.195  -1.445  24.502  0.00  0.00    -0.040 NA
ATOM     14  N   UNL     1      -0.512  -2.142  24.193  0.00  0.00    -0.020 NA
ATOM     15  N   UNL     1      -1.320  -2.151  24.359  0.00  0.00    -0.071 NA
ATOM     16  C   UNL     1      -1.503  -1.459  24.770  0.00  0.00    +0.343 A 
BRANCH  16  17
ATOM     17  O   UNL     1      -2.249  -1.241  25.045  0.00  0.00    -0.421 OA
BRANCH  17  18
ATOM     18  C   UNL     1      -2.926  -1.488  24.640  0.00  0.00    +0.152 A 
ATOM     19  C   UNL     1      -3.403  -0.934  24.259  0.00  0.00    +0.041 A 
ATOM     20  C   UNL     1      -4.079  -1.181  23.856  0.00  0.00    +0.043 A 
ATOM     21  C   UNL     1      -4.277  -1.982  23.832  0.00  0.00    +0.177 A 
ATOM     22  O   UNL     1      -4.903  -2.386  23.481  0.00  0.00    -0.435 OA
ATOM     23  C   UNL     1      -4.813  -3.189  23.644  0.00  0.00    +0.429 C 
ATOM     24  O   UNL     1      -4.131  -3.281  24.098  0.00  0.00    -0.435 OA
ATOM     25  C   UNL     1      -3.799  -2.536  24.214  0.00  0.00    +0.179 A 
ATOM     26  C   UNL     1      -3.123  -2.289  24.618  0.00  0.00    +0.078 A 
ENDBRANCH  17  18
ENDBRANCH  16  17
ENDBRANCH   8  12
BRANCH   4   3
ATOM      1  O   UNL     1      -1.225   2.990  24.612  0.00  0.00    -0.249 OA
ATOM      2  C   UNL     1      -0.694   3.083  25.236  0.00  0.00    +0.344 C 
ATOM      3  N   UNL     1      -0.231   2.446  25.483  0.00  0.00    -0.184 NA
ATOM     27  N   UNL     1      -0.624   3.814  25.615  0.00  0.00    -0.161 NA
BRANCH  27  28
ATOM     28  C   UNL     1      -1.087   4.450  25.368  0.00  0.00    +0.075 A 
ATOM     29  C   UNL     1      -1.878   4.496  25.597  0.00  0.00    +0.017 A 
ATOM     30  C   UNL     1      -2.342   5.133  25.351  0.00  0.00    +0.001 A 
ATOM     31  C   UNL     1      -2.014   5.723  24.876  0.00  0.00    +0.000 A 
ATOM     32  C   UNL     1      -1.223   5.677  24.647  0.00  0.00    +0.001 A 
ATOM     33  C   UNL     1      -0.759   5.040  24.893  0.00  0.00    +0.017 A 
ENDBRANCH  27  28
ENDBRANCH   4   3
TORSDOF 5
ENDMDL
MODEL 7
REMARK VINA RESULT:      -9.6      2.587      5.672
REMARK  Name = 
REMARK  5 active torsions:
REMARK  status: ('A' for Active; 'I' for Inactive)
REMARK    1  A    between atoms: N_3  and  C_4
REMARK    2  A    between atoms: C_8  and  N_12
REMARK    3  A    between atoms: C_16  and  O_17
REMARK    4  A    between atoms: O_17  and  C_18
REMARK    5  A    between atoms: N_27  and  C_28
REMARK                            x       y       z     vdW  Elec       q    Type
REMARK                         _______ _______ _______ _____ _____    ______ ____
ROOT
ATOM      4  C   UNL     1      -2.784   1.238  24.058  0.00  0.00    +0.156 C 
ATOM      5  C   UNL     1      -2.960   0.489  23.760  0.00  0.00    +0.166 C 
ATOM      6  O   UNL     1      -2.281   0.024  23.820  0.00  0.00    -0.350 OA
ATOM      7  C   UNL     1      -1.684   0.485  24.154  0.00  0.00    +0.169 C 
ATOM      8  C   UNL     1      -0.896   0.484  24.398  0.00  0.00    +0.170 C 
ATOM      9  C   UNL     1      -0.719   1.233  24.696  0.00  0.00    +0.169 C 
ATOM     10  O   UNL     1      -1.399   1.697  24.637  0.00  0.00    -0.350 OA
ATOM     11  C   UNL     1      -1.995   1.236  24.302  0.00  0.00    +0.167 C 
ENDROOT
BRANCH   8  12
ATOM     12  N   UNL     1      -0.376  -0.155  24.352  0.00  0.00    -0.180 N 
ATOM     13  N   UNL     1      -0.418  -0.848  24.797  0.00  0.00    -0.040 NA
ATOM     14  N   UNL     1       0.210  -1.334  24.572  0.00  0.00    -0.020 NA
ATOM     15  N   UNL     1       0.640  -0.941  23.987  0.00  0.00    -0.071 NA
ATOM     16  C   UNL     1       0.278  -0.213  23.851  0.00  0.00    +0.343 A 
BRANCH  16  17
ATOM     17  O   UNL     1       0.525   0.358  23.310  0.00  0.00    -0.421 OA
BRANCH  17  18
ATOM     18  C   UNL     1       1.281   0.315  22.982  0.00  0.00    +0.152 A 
ATOM     19  C   UNL     1       1.419  -0.166  22.325  0.00  0.00    +0.041 A 
ATOM     20  C   UNL     1       2.174  -0.209  21.997  0.00  0.00    +0.043 A 
ATOM     21  C   UNL     1       2.792   0.227  22.325  0.00  0.00    +0.177 A 
ATOM     22  O   UNL     1       3.589   0.295  22.123  0.00  0.00    -0.435 OA
ATOM     23  C   UNL     1       3.944   0.817  22.653  0.00  0.00    +0.429 C 
ATOM     24  O   UNL     1       3.366   1.072  23.184  0.00  0.00    -0.435 OA
ATOM     25  C   UNL     1       2.655   0.708  22.981  0.00  0.00    +0.179 A 
ATOM     26  C   UNL     1       1.899   0.751  23.310  0.00  0.00    +0.078 A 
ENDBRANCH  17  18
ENDBRANCH  16  17
ENDBRANCH   8  12
BRANCH   4   3
ATOM      1  O   UNL     1      -4.145   1.126  24.982  0.00  0.00    -0.249 OA
ATOM      2  C   UNL     1      -3.985   1.820  24.567  0.00  0.00    +0.344 C 
ATOM      3  N   UNL     1      -3.304   1.877  24.104  0.00  0.00    -0.184 NA
ATOM     27  N   UNL     1      -4.505   2.460  24.613  0.00  0.00    -0.161 NA
BRANCH  27  28
ATOM     28  C   UNL     1      -5.186   2.403  25.076  0.00  0.00    +0.075 A 
ATOM     29  C   UNL     1      -5.219   2.785  25.806  0.00  0.00    +0.017 A 
ATOM     30  C   UNL     1      -5.900   2.728  26.270  0.00  0.00    +0.001 A 
ATOM     31  C   UNL     1      -6.546   2.291  26.002  0.00  0.00    +0.000 A 
ATOM     32  C   UNL     1      -6.513   1.910  25.272  0.00  0.00    +0.001 A 
ATOM     33  C   UNL     1      -5.832   1.966  24.808  0.00  0.00    +0.017 A 
ENDBRANCH  27  28
ENDBRANCH   4   3
TORSDOF 5
ENDMDL
MODEL 8
REMARK VINA RESULT:      -9.5      1.825      3.096
REMARK  Name = 
REMARK  5 active torsions:
REMARK  status: ('A' for Active; 'I' for Inactive)
REMARK    1  A    between atoms: N_3  and  C_4
REMARK    2  A    between atoms: C_8  and  N_12
REMARK    3  A    between atoms: C_16  and  O_17
REMARK    4  A    between atoms: O_17  and  C_18
REMARK    5  A    between atoms: N_27  and  C_28
REMARK                            x       y       z     vdW  Elec       q    Type
REMARK                         _______ _______ _______ _____ _____    ______ ____
ROOT
ATOM      4  C   UNL     1      -4.332   0.863  24.249  0.00  0.00    +0.156 C 
ATOM      5  C   UNL     1      -3.810   1.051  23.639  0.00  0.00    +0.166 C 
ATOM      6  O   UNL     1      -3.626   1.853  23.699  0.00  0.00    -0.350 OA
ATOM      7  C   UNL     1      -4.034   2.161  24.347  0.00  0.00    +0.169 C 
ATOM      8  C   UNL     1      -4.173   2.846  24.785  0.00  0.00    +0.170 C 
ATOM      9  C   UNL     1      -4.695   2.658  25.396  0.00  0.00    +0.169 C 
ATOM     10  O   UNL     1      -4.878   1.856  25.335  0.00  0.00    -0.350 OA
ATOM     11  C   UNL     1      -4.470   1.549  24.687  0.00  0.00    +0.167 C 
ENDROOT
BRANCH   8  12
ATOM     12  N   UNL     1      -3.847   3.590  24.638  0.00  0.00    -0.180 N 
ATOM     13  N   UNL     1      -4.081   4.114  24.046  0.00  0.00    -0.040 NA
ATOM     14  N   UNL     1      -3.607   4.788  24.099  0.00  0.00    -0.020 NA
ATOM     15  N   UNL     1      -3.080   4.679  24.724  0.00  0.00    -0.071 NA
ATOM     16  C   UNL     1      -3.227   3.939  25.057  0.00  0.00    +0.343 A 
BRANCH  16  17
ATOM     17  O   UNL     1      -2.827   3.606  25.696  0.00  0.00    -0.421 OA
BRANCH  17  18
ATOM     18  C   UNL     1      -2.003   3.549  25.682  0.00  0.00    +0.152 A 
ATOM     19  C   UNL     1      -1.553   4.156  25.351  0.00  0.00    +0.041 A 
ATOM     20  C   UNL     1      -0.731   4.099  25.337  0.00  0.00    +0.043 A 
ATOM     21  C   UNL     1      -0.357   3.435  25.655  0.00  0.00    +0.177 A 
ATOM     22  O   UNL     1       0.437   3.227  25.720  0.00  0.00    -0.435 OA
ATOM     23  C   UNL     1       0.479   2.492  26.091  0.00  0.00    +0.429 C 
ATOM     24  O   UNL     1      -0.290   2.246  26.256  0.00  0.00    -0.435 OA
ATOM     25  C   UNL     1      -0.807   2.829  25.987  0.00  0.00    +0.179 A 
ATOM     26  C   UNL     1      -1.631   2.885  26.000  0.00  0.00    +0.078 A 
ENDBRANCH  17  18
ENDBRANCH  16  17
ENDBRANCH   8  12
BRANCH   4   3
ATOM      1  O   UNL     1      -3.367  -0.475  24.248  0.00  0.00    -0.249 OA
ATOM      2  C   UNL     1      -4.175  -0.549  24.396  0.00  0.00    +0.344 C 
ATOM      3  N   UNL     1      -4.658   0.119  24.397  0.00  0.00    -0.184 NA
ATOM     27  N   UNL     1      -4.502  -1.293  24.544  0.00  0.00    -0.161 NA
BRANCH  27  28
ATOM     28  C   UNL     1      -4.019  -1.962  24.543  0.00  0.00    +0.075 A 
ATOM     29  C   UNL     1      -4.028  -2.475  23.897  0.00  0.00    +0.017 A 
ATOM     30  C   UNL     1      -3.545  -3.145  23.895  0.00  0.00    +0.001 A 
ATOM     31  C   UNL     1      -3.054  -3.300  24.539  0.00  0.00    +0.000 A 
ATOM     32  C   UNL     1      -3.044  -2.787  25.185  0.00  0.00    +0.001 A 
ATOM     33  C   UNL     1      -3.527  -2.118  25.187  0.00  0.00    +0.017 A 
ENDBRANCH  27  28
ENDBRANCH   4   3
TORSDOF 5
ENDMDL
MODEL 9
REMARK VINA RESULT:      -7.3     17.713     19.050
REMARK  Name = 
REMARK  5 active torsions:
REMARK  status: ('A' for Active; 'I' for Inactive)
REMARK    1  A    between atoms: N_3  and  C_4
REMARK    2  A    between atoms: C_8  and  N_12
REMARK    3  A    between atoms: C_16  and  O_17
REMARK    4  A    between atoms: O_17  and  C_18
REMARK    5  A    between atoms: N_27  and  C_28
REMARK                            x       y       z     vdW  Elec       q    Type
REMARK                         _______ _______ _______ _____ _____    ______ ____
ROOT
ATOM      4  C   UNL     1      -7.966  -9.940  10.777  0.00  0.00    +0.156 C 
ATOM      5  C   UNL     1      -7.727 -10.728  10.737  0.00  0.00    +0.166 C 
ATOM      6  O   UNL     1      -7.027 -10.760  10.300  0.00  0.00    -0.350 OA
ATOM      7  C   UNL     1      -6.833  -9.991  10.071  0.00  0.00    +0.169 C 
ATOM      8  C   UNL     1      -6.282  -9.535   9.660  0.00  0.00    +0.170 C 
ATOM      9  C   UNL     1      -6.521  -8.747   9.701  0.00  0.00    +0.169 C 
ATOM     10  O   UNL     1      -7.221  -8.716  10.137  0.00  0.00    -0.350 OA
ATOM     11  C   UNL     1      -7.414  -9.484  10.366  0.00  0.00    +0.167 C 
ENDROOT
BRANCH   8  12
ATOM     12  N   UNL     1      -5.609  -9.819   9.276  0.00  0.00    -0.180 N 
ATOM     13  N   UNL     1      -5.593 -10.209   8.550  0.00  0.00    -0.040 NA
ATOM     14  N   UNL     1      -4.807 -10.394   8.376  0.00  0.00    -0.020 NA
ATOM     15  N   UNL     1      -4.338 -10.117   8.996  0.00  0.00    -0.071 NA
ATOM     16  C   UNL     1      -4.833  -9.762   9.552  0.00  0.00    +0.343 A 
BRANCH  16  17
ATOM     17  O   UNL     1      -4.595  -9.412  10.260  0.00  0.00    -0.421 OA
BRANCH  17  18
ATOM     18  C   UNL     1      -3.831  -9.539  10.546  0.00  0.00    +0.152 A 
ATOM     19  C   UNL     1      -3.203  -9.085  10.263  0.00  0.00    +0.041 A 
ATOM     20  C   UNL     1      -2.441  -9.212  10.549  0.00  0.00    +0.043 A 
ATOM     21  C   UNL     1      -2.305  -9.793  11.119  0.00  0.00    +0.177 A 
ATOM     22  O   UNL     1      -1.618 -10.041  11.502  0.00  0.00    -0.435 OA
ATOM     23  C   UNL     1      -1.821 -10.649  12.022  0.00  0.00    +0.429 C 
ATOM     24  O   UNL     1      -2.634 -10.775  11.960  0.00  0.00    -0.435 OA
ATOM     25  C   UNL     1      -2.933 -10.247  11.403  0.00  0.00    +0.179 A 
ATOM     26  C   UNL     1      -3.697 -10.120  11.116  0.00  0.00    +0.078 A 
ENDBRANCH  17  18
ENDBRANCH  16  17
ENDBRANCH   8  12
BRANCH   4   3
ATOM      1  O   UNL     1      -8.302 -10.426  12.317  0.00  0.00    -0.249 OA
ATOM      2  C   UNL     1      -8.806  -9.900  11.931  0.00  0.00    +0.344 C 
ATOM      3  N   UNL     1      -8.639  -9.656  11.161  0.00  0.00    -0.184 NA
ATOM     27  N   UNL     1      -9.480  -9.615  12.315  0.00  0.00    -0.161 NA
BRANCH  27  28
ATOM     28  C   UNL     1      -9.647  -9.859  13.086  0.00  0.00    +0.075 A 
ATOM     29  C   UNL     1     -10.144 -10.506  13.214  0.00  0.00    +0.017 A 
ATOM     30  C   UNL     1     -10.312 -10.750  13.984  0.00  0.00    +0.001 A 
ATOM     31  C   UNL     1      -9.984 -10.348  14.625  0.00  0.00    +0.000 A 
ATOM     32  C   UNL     1      -9.487  -9.702  14.497  0.00  0.00    +0.001 A 
ATOM     33  C   UNL     1      -9.319  -9.457  13.727  0.00  0.00    +0.017 A 
ENDBRANCH  27  28
ENDBRANCH   4   3
TORSDOF 5
ENDMDL
MODEL 10
REMARK VINA RESULT:      -7.2     14.795     17.256
REMARK  Name = 
REMARK  5 active torsions:
REMARK  status: ('A' for Active; 'I' for Inactive)
REMARK    1  A    between atoms: N_3  and  C_4
REMARK    2  A    between atoms: C_8  and  N_12
REMARK    3  A    between atoms: C_16  and  O_17
REMARK    4  A    between atoms: O_17  and  C_18
REMARK    5  A    between atoms: N_27  and  C_28
REMARK                            x       y       z     vdW  Elec       q    Type
REMARK                         _______ _______ _______ _____ _____    ______ ____
ROOT
ATOM      4  C   UNL     1      -6.737  -9.805  12.298  0.00  0.00    +0.156 C 
ATOM      5  C   UNL     1      -6.584  -9.063  12.624  0.00  0.00    +0.166 C 
ATOM      6  O   UNL     1      -7.144  -8.924  13.215  0.00  0.00    -0.350 OA
ATOM      7  C   UNL     1      -7.643  -9.580  13.253  0.00  0.00    +0.169 C 
ATOM      8  C   UNL     1      -8.297  -9.900  13.641  0.00  0.00    +0.170 C 
ATOM      9  C   UNL     1      -8.450 -10.642  13.315  0.00  0.00    +0.169 C 
ATOM     10  O   UNL     1      -7.890 -10.781  12.725  0.00  0.00    -0.350 OA
ATOM     11  C   UNL     1      -7.391 -10.125  12.686  0.00  0.00    +0.167 C 
ENDROOT
BRANCH   8  12
ATOM     12  N   UNL     1      -8.723  -9.541  14.249  0.00  0.00    -0.180 N 
ATOM     13  N   UNL     1      -9.264  -8.924  14.163  0.00  0.00    -0.040 NA
ATOM     14  N   UNL     1      -9.559  -8.737  14.912  0.00  0.00    -0.020 NA
ATOM     15  N   UNL     1      -9.199  -9.238  15.459  0.00  0.00    -0.071 NA
ATOM     16  C   UNL     1      -8.683  -9.735  15.050  0.00  0.00    +0.343 A 
BRANCH  16  17
ATOM     17  O   UNL     1      -8.210 -10.323  15.383  0.00  0.00    -0.421 OA
BRANCH  17  18
ATOM     18  C   UNL     1      -8.132 -10.374  16.203  0.00  0.00    +0.152 A 
ATOM     19  C   UNL     1      -8.726 -10.729  16.652  0.00  0.00    +0.041 A 
ATOM     20  C   UNL     1      -8.648 -10.781  17.471  0.00  0.00    +0.043 A 
ATOM     21  C   UNL     1      -7.977 -10.478  17.843  0.00  0.00    +0.177 A 
ATOM     22  O   UNL     1      -7.748 -10.449  18.634  0.00  0.00    -0.435 OA
ATOM     23  C   UNL     1      -7.014 -10.076  18.675  0.00  0.00    +0.429 C 
ATOM     24  O   UNL     1      -6.788  -9.875  17.908  0.00  0.00    -0.435 OA
ATOM     25  C   UNL     1      -7.383 -10.122  17.393  0.00  0.00    +0.179 A 
ATOM     26  C   UNL     1      -7.460 -10.071  16.573  0.00  0.00    +0.078 A 
ENDBRANCH  17  18
ENDBRANCH  16  17
ENDBRANCH   8  12
BRANCH   4   3
ATOM      1  O   UNL     1      -5.498  -8.995  11.570  0.00  0.00    -0.249 OA
ATOM      2  C   UNL     1      -5.691  -9.759  11.326  0.00  0.00    +0.344 C 
ATOM      3  N   UNL     1      -6.311 -10.165  11.690  0.00  0.00    -0.184 NA
ATOM     27  N   UNL     1      -5.264 -10.120  10.718  0.00  0.00    -0.161 NA
BRANCH  27  28
ATOM     28  C   UNL     1      -4.645  -9.714  10.354  0.00  0.00    +0.075 A 
ATOM     29  C   UNL     1      -3.891  -9.729  10.690  0.00  0.00    +0.017 A 
ATOM     30  C   UNL     1      -3.270  -9.323  10.327  0.00  0.00    +0.001 A 
ATOM     31  C   UNL     1      -3.404  -8.904   9.629  0.00  0.00    +0.000 A 
ATOM     32  C   UNL     1      -4.157  -8.889   9.294  0.00  0.00    +0.001 A 
ATOM     33  C   UNL     1      -4.778  -9.295   9.657  0.00  0.00    +0.017 A 
ENDBRANCH  27  28
ENDBRANCH   4   3
TORSDOF 5
ENDMDL
