MODEL 1
REMARK VINA RESULT:     -11.4      0.000      0.000
REMARK  Name = 
REMARK  8 active torsions:
REMARK  status: ('A' for Active; 'I' for Inactive)
REMARK    1  A    between atoms: C_2  and  C_4
REMARK    2  A    between atoms: C_4  and  C_5
REMARK    3  A    between atoms: C_4  and  N_13
REMARK    4  A    between atoms: C_5  and  C_6
REMARK    5  A    between atoms: C_14  and  C_16
REMARK    6  A    between atoms: C_18  and  N_19
REMARK    7  A    between atoms: N_19  and  S_20
REMARK    8  A    between atoms: S_20  and  C_23
REMARK                            x       y       z     vdW  Elec       q    Type
REMARK                         _______ _______ _______ _____ _____    ______ ____
ROOT
ATOM     16  C   UNL     1      -2.860   2.812  24.716  0.00  0.00    +0.033 C 
ATOM     17  C   UNL     1      -2.142   2.485  24.470  0.00  0.00    -0.004 C 
ATOM     18  C   UNL     1      -1.433   2.864  24.653  0.00  0.00    +0.152 C 
ATOM     28  C   UNL     1      -1.440   3.569  25.081  0.00  0.00    +0.204 C 
ATOM     29  O   UNL     1      -0.730   3.948  25.263  0.00  0.00    -0.218 OA
ATOM     30  C   UNL     1      -2.157   3.896  25.326  0.00  0.00    +0.188 C 
ATOM     31  O   UNL     1      -2.164   4.601  25.755  0.00  0.00    -0.220 OA
ATOM     32  C   UNL     1      -2.867   3.516  25.144  0.00  0.00    +0.066 C 
ENDROOT
BRANCH  16  14
ATOM     13  N   UNL     1      -3.835   1.808  25.003  0.00  0.00    -0.194 NA
ATOM     14  C   UNL     1      -3.569   2.433  24.533  0.00  0.00    +0.261 C 
ATOM     15  O   UNL     1      -4.012   2.677  23.882  0.00  0.00    -0.269 OA
BRANCH  13   4
ATOM      4  C   UNL     1      -4.544   1.428  24.820  0.00  0.00    +0.179 C 
BRANCH   4   2
ATOM      1  N   UNL     1      -5.912   1.815  24.679  0.00  0.00    -0.086 NA
ATOM      2  C   UNL     1      -5.251   1.690  25.155  0.00  0.00    +0.281 C 
ATOM      3  O   UNL     1      -5.296   1.826  25.967  0.00  0.00    -0.270 OA
ENDBRANCH   4   2
BRANCH   4   5
ATOM      5  C   UNL     1      -4.546   0.787  24.301  0.00  0.00    +0.057 C 
BRANCH   5   6
ATOM      6  C   UNL     1      -4.287   0.047  24.559  0.00  0.00    -0.020 A 
ATOM      7  C   UNL     1      -4.146  -0.555  24.012  0.00  0.00    -0.001 A 
ATOM      8  C   UNL     1      -3.888  -1.294  24.271  0.00  0.00    +0.042 A 
ATOM      9  C   UNL     1      -3.769  -1.432  25.075  0.00  0.00    +0.196 A 
ATOM     10  O   UNL     1      -3.510  -2.171  25.333  0.00  0.00    -0.287 OA
ATOM     11  C   UNL     1      -3.909  -0.831  25.621  0.00  0.00    +0.042 A 
ATOM     12  C   UNL     1      -4.168  -0.091  25.364  0.00  0.00    -0.001 A 
ENDBRANCH   5   6
ENDBRANCH   4   5
ENDBRANCH  13   4
ENDBRANCH  16  14
BRANCH  18  19
ATOM     19  N   UNL     1      -0.716   2.538  24.407  0.00  0.00    -0.072 NA
BRANCH  19  20
ATOM     20  S   UNL     1      -0.607   1.720  24.429  0.00  0.00    +0.083 S 
ATOM     21  O   UNL     1      -0.431   1.764  25.233  0.00  0.00    -0.151 OA
ATOM     22  O   UNL     1      -0.783   1.676  23.623  0.00  0.00    -0.151 OA
BRANCH  20  23
ATOM     23  C   UNL     1      -0.498   0.903  24.449  0.00  0.00    +0.153 A 
ATOM     24  C   UNL     1      -0.520   0.427  25.123  0.00  0.00    +0.027 A 
ATOM     25  C   UNL     1      -0.383  -0.352  24.888  0.00  0.00    +0.009 A 
ATOM     26  C   UNL     1      -0.277  -0.358  24.071  0.00  0.00    +0.037 A 
ATOM     27  S   UNL     1      -0.348   0.418  23.799  0.00  0.00    -0.067 S 
ENDBRANCH  20  23
ENDBRANCH  19  20
ENDBRANCH  18  19
TORSDOF 8
ENDMDL
MODEL 2
REMARK VINA RESULT:     -11.1      1.207      3.505
REMARK  Name = 
REMARK  8 active torsions:
REMARK  status: ('A' for Active; 'I' for Inactive)
REMARK    1  A    between atoms: C_2  and  C_4
REMARK    2  A    between atoms: C_4  and  C_5
REMARK    3  A    between atoms: C_4  and  N_13
REMARK    4  A    between atoms: C_5  and  C_6
REMARK    5  A    between atoms: C_14  and  C_16
REMARK    6  A    between atoms: C_18  and  N_19
REMARK    7  A    between atoms: N_19  and  S_20
REMARK    8  A    between atoms: S_20  and  C_23
REMARK                            x       y       z     vdW  Elec       q    Type
REMARK                         _______ _______ _______ _____ _____    ______ ____
ROOT
ATOM     16  C   UNL     1      -3.612   0.008  24.794  0.00  0.00    +0.033 C 
ATOM     17  C   UNL     1      -2.816   0.094  24.591  0.00  0.00    -0.004 C 
ATOM     18  C   UNL     1      -2.281  -0.511  24.757  0.00  0.00    +0.152 C 
ATOM     28  C   UNL     1      -2.539  -1.201  25.125  0.00  0.00    +0.204 C 
ATOM     29  O   UNL     1      -2.003  -1.807  25.291  0.00  0.00    -0.218 OA
ATOM     30  C   UNL     1      -3.334  -1.288  25.328  0.00  0.00    +0.188 C 
ATOM     31  O   UNL     1      -3.593  -1.979  25.696  0.00  0.00    -0.220 OA
ATOM     32  C   UNL     1      -3.870  -0.683  25.162  0.00  0.00    +0.066 C 
ENDROOT
BRANCH  16  14
ATOM     13  N   UNL     1      -4.211   1.258  25.139  0.00  0.00    -0.194 NA
ATOM     14  C   UNL     1      -4.147   0.613  24.628  0.00  0.00    +0.261 C 
ATOM     15  O   UNL     1      -4.618   0.574  23.952  0.00  0.00    -0.269 OA
BRANCH  13   4
ATOM      4  C   UNL     1      -4.746   1.863  24.973  0.00  0.00    +0.179 C 
BRANCH   4   2
ATOM      1  N   UNL     1      -6.157   1.959  24.770  0.00  0.00    -0.086 NA
ATOM      2  C   UNL     1      -5.515   1.828  25.270  0.00  0.00    +0.281 C 
ATOM      3  O   UNL     1      -5.641   1.662  26.068  0.00  0.00    -0.270 OA
ENDBRANCH   4   2
BRANCH   4   5
ATOM      5  C   UNL     1      -4.512   2.504  24.509  0.00  0.00    +0.057 C 
BRANCH   5   6
ATOM      6  C   UNL     1      -3.998   3.071  24.819  0.00  0.00    -0.020 A 
ATOM      7  C   UNL     1      -3.478   3.473  24.320  0.00  0.00    -0.001 A 
ATOM      8  C   UNL     1      -2.965   4.040  24.630  0.00  0.00    +0.042 A 
ATOM      9  C   UNL     1      -2.972   4.205  25.438  0.00  0.00    +0.196 A 
ATOM     10  O   UNL     1      -2.459   4.772  25.747  0.00  0.00    -0.287 OA
ATOM     11  C   UNL     1      -3.491   3.804  25.936  0.00  0.00    +0.042 A 
ATOM     12  C   UNL     1      -4.005   3.236  25.627  0.00  0.00    -0.001 A 
ENDBRANCH   5   6
ENDBRANCH   4   5
ENDBRANCH  13   4
ENDBRANCH  16  14
BRANCH  18  19
ATOM     19  N   UNL     1      -1.485  -0.425  24.554  0.00  0.00    -0.072 NA
BRANCH  19  20
ATOM     20  S   UNL     1      -1.084   0.270  24.747  0.00  0.00    +0.083 S 
ATOM     21  O   UNL     1      -0.992   0.003  25.521  0.00  0.00    -0.151 OA
ATOM     22  O   UNL     1      -1.176   0.538  23.972  0.00  0.00    -0.151 OA
BRANCH  20  23
ATOM     23  C   UNL     1      -0.683   0.965  24.939  0.00  0.00    +0.153 A 
ATOM     24  C   UNL     1      -0.631   1.303  25.689  0.00  0.00    +0.027 A 
ATOM     25  C   UNL     1      -0.179   1.992  25.626  0.00  0.00    +0.009 A 
ATOM     26  C   UNL     1       0.047   2.078  24.838  0.00  0.00    +0.037 A 
ATOM     27  S   UNL     1      -0.264   1.443  24.413  0.00  0.00    -0.067 S 
ENDBRANCH  20  23
ENDBRANCH  19  20
ENDBRANCH  18  19
TORSDOF 8
ENDMDL
MODEL 3
REMARK VINA RESULT:     -11.0      1.740      3.433
REMARK  Name = 
REMARK  8 active torsions:
REMARK  status: ('A' for Active; 'I' for Inactive)
REMARK    1  A    between atoms: C_2  and  C_4
REMARK    2  A    between atoms: C_4  and  C_5
REMARK    3  A    between atoms: C_4  and  N_13
REMARK    4  A    between atoms: C_5  and  C_6
REMARK    5  A    between atoms: C_14  and  C_16
REMARK    6  A    between atoms: C_18  and  N_19
REMARK    7  A    between atoms: N_19  and  S_20
REMARK    8  A    between atoms: S_20  and  C_23
REMARK                            x       y       z     vdW  Elec       q    Type
REMARK                         _______ _______ _______ _____ _____    ______ ____
ROOT
ATOM     16  C   UNL     1      -1.612   1.564  25.133  0.00  0.00    +0.033 C 
ATOM     17  C   UNL     1      -2.306   1.876  24.813  0.00  0.00    -0.004 C 
ATOM     18  C   UNL     1      -2.345   2.676  24.613  0.00  0.00    +0.152 C 
ATOM     28  C   UNL     1      -1.691   3.162  24.733  0.00  0.00    +0.204 C 
ATOM     29  O   UNL     1      -1.730   3.963  24.533  0.00  0.00    -0.218 OA
ATOM     30  C   UNL     1      -0.997   2.851  25.053  0.00  0.00    +0.188 C 
ATOM     31  O   UNL     1      -0.343   3.339  25.173  0.00  0.00    -0.220 OA
ATOM     32  C   UNL     1      -0.958   2.051  25.253  0.00  0.00    +0.066 C 
ENDROOT
BRANCH  16  14
ATOM     13  N   UNL     1      -1.760   0.190  24.770  0.00  0.00    -0.194 NA
ATOM     14  C   UNL     1      -1.574   0.765  25.333  0.00  0.00    +0.261 C 
ATOM     15  O   UNL     1      -1.350   0.539  26.094  0.00  0.00    -0.269 OA
BRANCH  13   4
ATOM      4  C   UNL     1      -1.722  -0.609  24.969  0.00  0.00    +0.179 C 
BRANCH   4   2
ATOM      1  N   UNL     1      -0.675  -1.492  25.376  0.00  0.00    -0.086 NA
ATOM      2  C   UNL     1      -1.047  -1.048  24.789  0.00  0.00    +0.281 C 
ATOM      3  O   UNL     1      -0.745  -1.044  24.022  0.00  0.00    -0.270 OA
ENDBRANCH   4   2
BRANCH   4   5
ATOM      5  C   UNL     1      -2.359  -0.969  25.350  0.00  0.00    +0.057 C 
BRANCH   5   6
ATOM      6  C   UNL     1      -2.923  -1.380  24.908  0.00  0.00    -0.020 A 
ATOM      7  C   UNL     1      -2.981  -2.201  24.974  0.00  0.00    -0.001 A 
ATOM      8  C   UNL     1      -3.545  -2.611  24.534  0.00  0.00    +0.042 A 
ATOM      9  C   UNL     1      -4.051  -2.201  24.027  0.00  0.00    +0.196 A 
ATOM     10  O   UNL     1      -4.615  -2.612  23.587  0.00  0.00    -0.287 OA
ATOM     11  C   UNL     1      -3.993  -1.382  23.962  0.00  0.00    +0.042 A 
ATOM     12  C   UNL     1      -3.430  -0.970  24.402  0.00  0.00    -0.001 A 
ENDBRANCH   5   6
ENDBRANCH   4   5
ENDBRANCH  13   4
ENDBRANCH  16  14
BRANCH  18  19
ATOM     19  N   UNL     1      -3.039   2.988  24.293  0.00  0.00    -0.072 NA
BRANCH  19  20
ATOM     20  S   UNL     1      -3.768   2.805  24.633  0.00  0.00    +0.083 S 
ATOM     21  O   UNL     1      -3.597   3.303  25.268  0.00  0.00    -0.151 OA
ATOM     22  O   UNL     1      -3.938   2.306  23.998  0.00  0.00    -0.151 OA
BRANCH  20  23
ATOM     23  C   UNL     1      -4.497   2.621  24.973  0.00  0.00    +0.153 A 
ATOM     24  C   UNL     1      -5.008   2.022  24.729  0.00  0.00    +0.027 A 
ATOM     25  C   UNL     1      -5.670   2.036  25.222  0.00  0.00    +0.009 A 
ATOM     26  C   UNL     1      -5.567   2.644  25.770  0.00  0.00    +0.037 A 
ATOM     27  S   UNL     1      -4.842   3.005  25.616  0.00  0.00    -0.067 S 
ENDBRANCH  20  23
ENDBRANCH  19  20
ENDBRANCH  18  19
TORSDOF 8
ENDMDL
MODEL 4
REMARK VINA RESULT:     -10.7      1.643      3.594
REMARK  Name = 
REMARK  8 active torsions:
REMARK  status: ('A' for Active; 'I' for Inactive)
REMARK    1  A    between atoms: C_2  and  C_4
REMARK    2  A    between atoms: C_4  and  C_5
REMARK    3  A    between atoms: C_4  and  N_13
REMARK    4  A    between atoms: C_5  and  C_6
REMARK    5  A    between atoms: C_14  and  C_16
REMARK    6  A    between atoms: C_18  and  N_19
REMARK    7  A    between atoms: N_19  and  S_20
REMARK    8  A    between atoms: S_20  and  C_23
REMARK                            x       y       z     vdW  Elec       q    Type
REMARK                         _______ _______ _______ _____ _____    ______ ____
ROOT
ATOM     16  C   UNL     1      -4.758   1.356  25.088  0.00  0.00    +0.033 C 
ATOM     17  C   UNL     1      -4.435   2.087  24.881  0.00  0.00    -0.004 C 
ATOM     18  C   UNL     1      -4.800   2.783  25.128  0.00  0.00    +0.152 C 
ATOM     28  C   UNL     1      -5.487   2.750  25.582  0.00  0.00    +0.204 C 
ATOM     29  O   UNL     1      -5.853   3.448  25.829  0.00  0.00    -0.218 OA
ATOM     30  C   UNL     1      -5.810   2.021  25.790  0.00  0.00    +0.188 C 
ATOM     31  O   UNL     1      -6.498   1.988  26.244  0.00  0.00    -0.220 OA
ATOM     32  C   UNL     1      -5.445   1.323  25.542  0.00  0.00    +0.066 C 
ENDROOT
BRANCH  16  14
ATOM     13  N   UNL     1      -3.711   0.392  25.223  0.00  0.00    -0.194 NA
ATOM     14  C   UNL     1      -4.393   0.659  24.841  0.00  0.00    +0.261 C 
ATOM     15  O   UNL     1      -4.708   0.228  24.212  0.00  0.00    -0.269 OA
BRANCH  13   4
ATOM      4  C   UNL     1      -3.346  -0.304  24.976  0.00  0.00    +0.179 C 
BRANCH   4   2
ATOM      1  N   UNL     1      -3.705  -1.683  24.869  0.00  0.00    -0.086 NA
ATOM      2  C   UNL     1      -3.540  -1.022  25.334  0.00  0.00    +0.281 C 
ATOM      3  O   UNL     1      -3.568  -1.078  26.156  0.00  0.00    -0.270 OA
ENDBRANCH   4   2
BRANCH   4   5
ATOM      5  C   UNL     1      -2.786  -0.283  24.370  0.00  0.00    +0.057 C 
BRANCH   5   6
ATOM      6  C   UNL     1      -2.042   0.046  24.509  0.00  0.00    -0.020 A 
ATOM      7  C   UNL     1      -1.649   0.447  23.903  0.00  0.00    -0.001 A 
ATOM      8  C   UNL     1      -0.905   0.776  24.042  0.00  0.00    +0.042 A 
ATOM      9  C   UNL     1      -0.554   0.704  24.785  0.00  0.00    +0.196 A 
ATOM     10  O   UNL     1       0.189   1.033  24.923  0.00  0.00    -0.287 OA
ATOM     11  C   UNL     1      -0.947   0.304  25.389  0.00  0.00    +0.042 A 
ATOM     12  C   UNL     1      -1.691  -0.025  25.252  0.00  0.00    -0.001 A 
ENDBRANCH   5   6
ENDBRANCH   4   5
ENDBRANCH  13   4
ENDBRANCH  16  14
BRANCH  18  19
ATOM     19  N   UNL     1      -4.477   3.514  24.920  0.00  0.00    -0.072 NA
BRANCH  19  20
ATOM     20  S   UNL     1      -3.684   3.674  25.079  0.00  0.00    +0.083 S 
ATOM     21  O   UNL     1      -3.871   3.827  25.867  0.00  0.00    -0.151 OA
ATOM     22  O   UNL     1      -3.496   3.520  24.289  0.00  0.00    -0.151 OA
BRANCH  20  23
ATOM     23  C   UNL     1      -2.889   3.833  25.236  0.00  0.00    +0.153 A 
ATOM     24  C   UNL     1      -2.509   3.733  25.960  0.00  0.00    +0.027 A 
ATOM     25  C   UNL     1      -1.720   3.958  25.867  0.00  0.00    +0.009 A 
ATOM     26  C   UNL     1      -1.614   4.197  25.085  0.00  0.00    +0.037 A 
ATOM     27  S   UNL     1      -2.337   4.119  24.695  0.00  0.00    -0.067 S 
ENDBRANCH  20  23
ENDBRANCH  19  20
ENDBRANCH  18  19
TORSDOF 8
ENDMDL
MODEL 5
REMARK VINA RESULT:     -10.7      1.507      3.707
REMARK  Name = 
REMARK  8 active torsions:
REMARK  status: ('A' for Active; 'I' for Inactive)
REMARK    1  A    between atoms: C_2  and  C_4
REMARK    2  A    between atoms: C_4  and  C_5
REMARK    3  A    between atoms: C_4  and  N_13
REMARK    4  A    between atoms: C_5  and  C_6
REMARK    5  A    between atoms: C_14  and  C_16
REMARK    6  A    between atoms: C_18  and  N_19
REMARK    7  A    between atoms: N_19  and  S_20
REMARK    8  A    between atoms: S_20  and  C_23
REMARK                            x       y       z     vdW  Elec       q    Type
REMARK                         _______ _______ _______ _____ _____    ______ ____
ROOT
ATOM     16  C   UNL     1      -3.876   2.732  24.988  0.00  0.00    +0.033 C 
ATOM     17  C   UNL     1      -4.097   1.982  24.722  0.00  0.00    -0.004 C 
ATOM     18  C   UNL     1      -4.845   1.686  24.900  0.00  0.00    +0.152 C 
ATOM     28  C   UNL     1      -5.373   2.137  25.345  0.00  0.00    +0.204 C 
ATOM     29  O   UNL     1      -6.122   1.840  25.523  0.00  0.00    -0.218 OA
ATOM     30  C   UNL     1      -5.152   2.886  25.611  0.00  0.00    +0.188 C 
ATOM     31  O   UNL     1      -5.680   3.338  26.056  0.00  0.00    -0.220 OA
ATOM     32  C   UNL     1      -4.403   3.183  25.432  0.00  0.00    +0.066 C 
ENDROOT
BRANCH  16  14
ATOM     13  N   UNL     1      -2.457   2.688  25.151  0.00  0.00    -0.194 NA
ATOM     14  C   UNL     1      -3.127   3.028  24.809  0.00  0.00    +0.261 C 
ATOM     15  O   UNL     1      -3.048   3.664  24.290  0.00  0.00    -0.269 OA
BRANCH  13   4
ATOM      4  C   UNL     1      -1.708   2.985  24.972  0.00  0.00    +0.179 C 
BRANCH   4   2
ATOM      1  N   UNL     1      -1.024   4.229  25.128  0.00  0.00    -0.086 NA
ATOM      2  C   UNL     1      -1.362   3.553  25.459  0.00  0.00    +0.281 C 
ATOM      3  O   UNL     1      -1.354   3.446  26.276  0.00  0.00    -0.270 OA
ENDBRANCH   4   2
BRANCH   4   5
ATOM      5  C   UNL     1      -1.306   2.711  24.305  0.00  0.00    +0.057 C 
BRANCH   5   6
ATOM      6  C   UNL     1      -0.976   1.955  24.305  0.00  0.00    -0.020 A 
ATOM      7  C   UNL     1      -0.970   1.508  23.610  0.00  0.00    -0.001 A 
ATOM      8  C   UNL     1      -0.640   0.752  23.610  0.00  0.00    +0.042 A 
ATOM      9  C   UNL     1      -0.316   0.442  24.303  0.00  0.00    +0.196 A 
ATOM     10  O   UNL     1       0.014  -0.313  24.301  0.00  0.00    -0.287 OA
ATOM     11  C   UNL     1      -0.322   0.889  24.996  0.00  0.00    +0.042 A 
ATOM     12  C   UNL     1      -0.652   1.645  24.997  0.00  0.00    -0.001 A 
ENDBRANCH   5   6
ENDBRANCH   4   5
ENDBRANCH  13   4
ENDBRANCH  16  14
BRANCH  18  19
ATOM     19  N   UNL     1      -5.066   0.936  24.634  0.00  0.00    -0.072 NA
BRANCH  19  20
ATOM     20  S   UNL     1      -4.577   0.287  24.778  0.00  0.00    +0.083 S 
ATOM     21  O   UNL     1      -4.840   0.261  25.559  0.00  0.00    -0.151 OA
ATOM     22  O   UNL     1      -4.314   0.313  23.995  0.00  0.00    -0.151 OA
BRANCH  20  23
ATOM     23  C   UNL     1      -4.088  -0.361  24.920  0.00  0.00    +0.153 A 
ATOM     24  C   UNL     1      -3.750  -0.564  25.645  0.00  0.00    +0.027 A 
ATOM     25  C   UNL     1      -3.304  -1.250  25.534  0.00  0.00    +0.009 A 
ATOM     26  C   UNL     1      -3.366  -1.470  24.742  0.00  0.00    +0.037 A 
ATOM     27  S   UNL     1      -3.851  -0.920  24.362  0.00  0.00    -0.067 S 
ENDBRANCH  20  23
ENDBRANCH  19  20
ENDBRANCH  18  19
TORSDOF 8
ENDMDL
MODEL 6
REMARK VINA RESULT:     -10.5      1.619      3.413
REMARK  Name = 
REMARK  8 active torsions:
REMARK  status: ('A' for Active; 'I' for Inactive)
REMARK    1  A    between atoms: C_2  and  C_4
REMARK    2  A    between atoms: C_4  and  C_5
REMARK    3  A    between atoms: C_4  and  N_13
REMARK    4  A    between atoms: C_5  and  C_6
REMARK    5  A    between atoms: C_14  and  C_16
REMARK    6  A    between atoms: C_18  and  N_19
REMARK    7  A    between atoms: N_19  and  S_20
REMARK    8  A    between atoms: S_20  and  C_23
REMARK                            x       y       z     vdW  Elec       q    Type
REMARK                         _______ _______ _______ _____ _____    ______ ____
ROOT
ATOM     16  C   UNL     1      -2.082   1.245  24.291  0.00  0.00    +0.033 C 
ATOM     17  C   UNL     1      -2.338   0.556  24.667  0.00  0.00    -0.004 C 
ATOM     18  C   UNL     1      -1.788  -0.005  24.919  0.00  0.00    +0.152 C 
ATOM     28  C   UNL     1      -0.983   0.123  24.797  0.00  0.00    +0.204 C 
ATOM     29  O   UNL     1      -0.433  -0.438  25.049  0.00  0.00    -0.218 OA
ATOM     30  C   UNL     1      -0.727   0.811  24.421  0.00  0.00    +0.188 C 
ATOM     31  O   UNL     1       0.079   0.939  24.298  0.00  0.00    -0.220 OA
ATOM     32  C   UNL     1      -1.277   1.372  24.168  0.00  0.00    +0.066 C 
ENDROOT
BRANCH  16  14
ATOM     13  N   UNL     1      -3.053   2.248  24.593  0.00  0.00    -0.194 NA
ATOM     14  C   UNL     1      -2.632   1.805  24.038  0.00  0.00    +0.261 C 
ATOM     15  O   UNL     1      -2.761   1.923  23.232  0.00  0.00    -0.269 OA
BRANCH  13   4
ATOM      4  C   UNL     1      -3.604   2.808  24.341  0.00  0.00    +0.179 C 
BRANCH   4   2
ATOM      1  N   UNL     1      -3.609   4.011  23.570  0.00  0.00    -0.086 NA
ATOM      2  C   UNL     1      -3.376   3.596  24.243  0.00  0.00    +0.281 C 
ATOM      3  O   UNL     1      -2.917   3.966  24.819  0.00  0.00    -0.270 OA
ENDBRANCH   4   2
BRANCH   4   5
ATOM      5  C   UNL     1      -4.381   2.581  24.186  0.00  0.00    +0.057 C 
BRANCH   5   6
ATOM      6  C   UNL     1      -4.909   2.465  24.810  0.00  0.00    -0.020 A 
ATOM      7  C   UNL     1      -5.363   1.776  24.844  0.00  0.00    -0.001 A 
ATOM      8  C   UNL     1      -5.890   1.660  25.468  0.00  0.00    +0.042 A 
ATOM      9  C   UNL     1      -5.963   2.232  26.058  0.00  0.00    +0.196 A 
ATOM     10  O   UNL     1      -6.490   2.116  26.681  0.00  0.00    -0.287 OA
ATOM     11  C   UNL     1      -5.509   2.920  26.024  0.00  0.00    +0.042 A 
ATOM     12  C   UNL     1      -4.982   3.036  25.400  0.00  0.00    -0.001 A 
ENDBRANCH   5   6
ENDBRANCH   4   5
ENDBRANCH  13   4
ENDBRANCH  16  14
BRANCH  18  19
ATOM     19  N   UNL     1      -2.045  -0.694  25.295  0.00  0.00    -0.072 NA
BRANCH  19  20
ATOM     20  S   UNL     1      -2.626  -1.162  24.944  0.00  0.00    +0.083 S 
ATOM     21  O   UNL     1      -2.071  -1.450  24.407  0.00  0.00    -0.151 OA
ATOM     22  O   UNL     1      -3.182  -0.873  25.482  0.00  0.00    -0.151 OA
BRANCH  20  23
ATOM     23  C   UNL     1      -3.209  -1.630  24.594  0.00  0.00    +0.153 A 
ATOM     24  C   UNL     1      -3.877  -1.355  24.197  0.00  0.00    +0.027 A 
ATOM     25  C   UNL     1      -4.306  -2.011  23.938  0.00  0.00    +0.009 A 
ATOM     26  C   UNL     1      -3.903  -2.690  24.176  0.00  0.00    +0.037 A 
ATOM     27  S   UNL     1      -3.224  -2.454  24.581  0.00  0.00    -0.067 S 
ENDBRANCH  20  23
ENDBRANCH  19  20
ENDBRANCH  18  19
TORSDOF 8
ENDMDL
MODEL 7
REMARK VINA RESULT:     -10.5      1.340      2.712
REMARK  Name = 
REMARK  8 active torsions:
REMARK  status: ('A' for Active; 'I' for Inactive)
REMARK    1  A    between atoms: C_2  and  C_4
REMARK    2  A    between atoms: C_4  and  C_5
REMARK    3  A    between atoms: C_4  and  N_13
REMARK    4  A    between atoms: C_5  and  C_6
REMARK    5  A    between atoms: C_14  and  C_16
REMARK    6  A    between atoms: C_18  and  N_19
REMARK    7  A    between atoms: N_19  and  S_20
REMARK    8  A    between atoms: S_20  and  C_23
REMARK                            x       y       z     vdW  Elec       q    Type
REMARK                         _______ _______ _______ _____ _____    ______ ____
ROOT
ATOM     16  C   UNL     1      -1.614   1.279  24.131  0.00  0.00    +0.033 C 
ATOM     17  C   UNL     1      -1.373   1.890  24.631  0.00  0.00    -0.004 C 
ATOM     18  C   UNL     1      -0.570   2.043  24.737  0.00  0.00    +0.152 C 
ATOM     28  C   UNL     1      -0.007   1.587  24.344  0.00  0.00    +0.204 C 
ATOM     29  O   UNL     1       0.797   1.741  24.451  0.00  0.00    -0.218 OA
ATOM     30  C   UNL     1      -0.247   0.976  23.844  0.00  0.00    +0.188 C 
ATOM     31  O   UNL     1       0.316   0.519  23.451  0.00  0.00    -0.220 OA
ATOM     32  C   UNL     1      -1.051   0.823  23.738  0.00  0.00    +0.066 C 
ENDROOT
BRANCH  16  14
ATOM     13  N   UNL     1      -2.825   0.662  24.573  0.00  0.00    -0.194 NA
ATOM     14  C   UNL     1      -2.417   1.126  24.024  0.00  0.00    +0.261 C 
ATOM     15  O   UNL     1      -2.814   1.436  23.370  0.00  0.00    -0.269 OA
BRANCH  13   4
ATOM      4  C   UNL     1      -3.628   0.509  24.466  0.00  0.00    +0.179 C 
BRANCH   4   2
ATOM      1  N   UNL     1      -4.834   1.264  24.346  0.00  0.00    -0.086 NA
ATOM      2  C   UNL     1      -4.192   1.012  24.797  0.00  0.00    +0.281 C 
ATOM      3  O   UNL     1      -4.112   1.263  25.578  0.00  0.00    -0.270 OA
ENDBRANCH   4   2
BRANCH   4   5
ATOM      5  C   UNL     1      -3.867  -0.148  24.029  0.00  0.00    +0.057 C 
BRANCH   5   6
ATOM      6  C   UNL     1      -3.780  -0.907  24.344  0.00  0.00    -0.020 A 
ATOM      7  C   UNL     1      -3.836  -1.567  23.851  0.00  0.00    -0.001 A 
ATOM      8  C   UNL     1      -3.749  -2.324  24.166  0.00  0.00    +0.042 A 
ATOM      9  C   UNL     1      -3.607  -2.422  24.973  0.00  0.00    +0.196 A 
ATOM     10  O   UNL     1      -3.520  -3.180  25.287  0.00  0.00    -0.287 OA
ATOM     11  C   UNL     1      -3.550  -1.763  25.464  0.00  0.00    +0.042 A 
ATOM     12  C   UNL     1      -3.637  -1.005  25.150  0.00  0.00    -0.001 A 
ENDBRANCH   5   6
ENDBRANCH   4   5
ENDBRANCH  13   4
ENDBRANCH  16  14
BRANCH  18  19
ATOM     19  N   UNL     1      -0.330   2.655  25.238  0.00  0.00    -0.072 NA
BRANCH  19  20
ATOM     20  S   UNL     1      -0.732   3.374  25.231  0.00  0.00    +0.083 S 
ATOM     21  O   UNL     1      -0.358   3.578  24.525  0.00  0.00    -0.151 OA
ATOM     22  O   UNL     1      -1.107   3.171  25.938  0.00  0.00    -0.151 OA
BRANCH  20  23
ATOM     23  C   UNL     1      -1.135   4.094  25.225  0.00  0.00    +0.153 A 
ATOM     24  C   UNL     1      -0.870   4.796  24.882  0.00  0.00    +0.027 A 
ATOM     25  C   UNL     1      -1.447   5.373  25.008  0.00  0.00    +0.009 A 
ATOM     26  C   UNL     1      -2.067   5.029  25.427  0.00  0.00    +0.037 A 
ATOM     27  S   UNL     1      -1.874   4.238  25.562  0.00  0.00    -0.067 S 
ENDBRANCH  20  23
ENDBRANCH  19  20
ENDBRANCH  18  19
TORSDOF 8
ENDMDL
