MODEL 1
REMARK VINA RESULT:     -11.9      0.000      0.000
REMARK  Name = 
REMARK  2 active torsions:
REMARK  status: ('A' for Active; 'I' for Inactive)
REMARK    1  A    between atoms: C_2  and  C_19
REMARK    2  A    between atoms: N_9  and  C_12
REMARK                            x       y       z     vdW  Elec       q    Type
REMARK                         _______ _______ _______ _____ _____    ______ ____
ROOT
ATOM      1  O   UNL     1      -4.422   3.068  25.275  0.00  0.00    -0.270 OA
ATOM      2  C   UNL     1      -3.616   2.925  25.173  0.00  0.00    +0.251 C 
ATOM      3  N   UNL     1      -3.347   2.158  25.026  0.00  0.00    -0.273 N 
ATOM      4  C   UNL     1      -2.541   2.016  24.924  0.00  0.00    +0.115 C 
ATOM      5  C   UNL     1      -2.274   1.250  24.778  0.00  0.00    +0.116 C 
ATOM      6  N   UNL     1      -2.811   0.625  24.734  0.00  0.00    -0.260 N 
ATOM      7  C   UNL     1      -3.617   0.768  24.836  0.00  0.00    +0.117 C 
ATOM      8  C   UNL     1      -4.015   0.049  24.763  0.00  0.00    +0.121 C 
ATOM      9  N   UNL     1      -3.455  -0.538  24.616  0.00  0.00    -0.241 N 
ATOM     10  C   UNL     1      -2.711  -0.181  24.598  0.00  0.00    +0.311 C 
ATOM     11  O   UNL     1      -1.993  -0.565  24.467  0.00  0.00    -0.252 OA
ATOM     18  C   UNL     1      -3.886   1.535  24.982  0.00  0.00    +0.115 C 
ENDROOT
BRANCH   9  12
ATOM     12  C   UNL     1      -3.611  -1.340  24.506  0.00  0.00    +0.055 A 
ATOM     13  C   UNL     1      -4.029  -1.593  23.841  0.00  0.00    +0.015 A 
ATOM     14  C   UNL     1      -4.185  -2.395  23.731  0.00  0.00    +0.001 A 
ATOM     15  C   UNL     1      -3.923  -2.946  24.287  0.00  0.00    +0.000 A 
ATOM     16  C   UNL     1      -3.505  -2.694  24.951  0.00  0.00    +0.001 A 
ATOM     17  C   UNL     1      -3.349  -1.892  25.061  0.00  0.00    +0.015 A 
ENDBRANCH   9  12
BRANCH   2  19
ATOM     19  C   UNL     1      -3.077   3.549  25.217  0.00  0.00    +0.073 A 
ATOM     20  C   UNL     1      -2.785   3.790  25.950  0.00  0.00    +0.008 A 
ATOM     21  C   UNL     1      -2.247   4.413  25.994  0.00  0.00    +0.021 A 
ATOM     22  C   UNL     1      -2.000   4.795  25.306  0.00  0.00    +0.099 A 
ATOM     23  N   UNL     1      -2.291   4.554  24.574  0.00  0.00    -0.242 NA
ATOM     24  C   UNL     1      -2.830   3.930  24.528  0.00  0.00    +0.103 A 
ENDBRANCH   2  19
TORSDOF 2
ENDMDL
MODEL 2
REMARK VINA RESULT:     -11.8      1.251      5.202
REMARK  Name = 
REMARK  2 active torsions:
REMARK  status: ('A' for Active; 'I' for Inactive)
REMARK    1  A    between atoms: C_2  and  C_19
REMARK    2  A    between atoms: N_9  and  C_12
REMARK                            x       y       z     vdW  Elec       q    Type
REMARK                         _______ _______ _______ _____ _____    ______ ____
ROOT
ATOM      1  O   UNL     1      -1.379  -0.836  26.123  0.00  0.00    -0.270 OA
ATOM      2  C   UNL     1      -1.911  -0.702  25.506  0.00  0.00    +0.251 C 
ATOM      3  N   UNL     1      -2.020   0.063  25.214  0.00  0.00    -0.273 N 
ATOM      4  C   UNL     1      -2.551   0.198  24.598  0.00  0.00    +0.115 C 
ATOM      5  C   UNL     1      -2.659   0.961  24.307  0.00  0.00    +0.116 C 
ATOM      6  N   UNL     1      -2.237   1.591  24.632  0.00  0.00    -0.260 N 
ATOM      7  C   UNL     1      -1.705   1.457  25.248  0.00  0.00    +0.117 C 
ATOM      8  C   UNL     1      -1.369   2.180  25.457  0.00  0.00    +0.121 C 
ATOM      9  N   UNL     1      -1.692   2.761  24.970  0.00  0.00    -0.241 N 
ATOM     10  C   UNL     1      -2.228   2.397  24.460  0.00  0.00    +0.311 C 
ATOM     11  O   UNL     1      -2.678   2.774  23.880  0.00  0.00    -0.252 OA
ATOM     18  C   UNL     1      -1.596   0.692  25.540  0.00  0.00    +0.115 C 
ENDROOT
BRANCH   9  12
ATOM     12  C   UNL     1      -1.510   3.566  24.990  0.00  0.00    +0.055 A 
ATOM     13  C   UNL     1      -2.031   4.098  25.346  0.00  0.00    +0.015 A 
ATOM     14  C   UNL     1      -1.850   4.903  25.365  0.00  0.00    +0.001 A 
ATOM     15  C   UNL     1      -1.147   5.175  25.028  0.00  0.00    +0.000 A 
ATOM     16  C   UNL     1      -0.627   4.644  24.673  0.00  0.00    +0.001 A 
ATOM     17  C   UNL     1      -0.809   3.839  24.653  0.00  0.00    +0.015 A 
ENDBRANCH   9  12
BRANCH   2  19
ATOM     19  C   UNL     1      -2.334  -1.331  25.181  0.00  0.00    +0.073 A 
ATOM     20  C   UNL     1      -3.093  -1.503  25.456  0.00  0.00    +0.008 A 
ATOM     21  C   UNL     1      -3.516  -2.132  25.131  0.00  0.00    +0.021 A 
ATOM     22  C   UNL     1      -3.181  -2.588  24.531  0.00  0.00    +0.099 A 
ATOM     23  N   UNL     1      -2.423  -2.416  24.256  0.00  0.00    -0.242 NA
ATOM     24  C   UNL     1      -1.999  -1.787  24.581  0.00  0.00    +0.103 A 
ENDBRANCH   2  19
TORSDOF 2
ENDMDL
MODEL 3
REMARK VINA RESULT:      -8.6     16.871     18.748
REMARK  Name = 
REMARK  2 active torsions:
REMARK  status: ('A' for Active; 'I' for Inactive)
REMARK    1  A    between atoms: C_2  and  C_19
REMARK    2  A    between atoms: N_9  and  C_12
REMARK                            x       y       z     vdW  Elec       q    Type
REMARK                         _______ _______ _______ _____ _____    ______ ____
ROOT
ATOM      1  O   UNL     1      11.393   6.768  20.376  0.00  0.00    -0.270 OA
ATOM      2  C   UNL     1      11.756   7.308  20.884  0.00  0.00    +0.251 C 
ATOM      3  N   UNL     1      12.579   7.364  20.908  0.00  0.00    -0.273 N 
ATOM      4  C   UNL     1      12.942   7.904  21.416  0.00  0.00    +0.115 C 
ATOM      5  C   UNL     1      13.764   7.959  21.440  0.00  0.00    +0.116 C 
ATOM      6  N   UNL     1      14.225   7.475  20.956  0.00  0.00    -0.260 N 
ATOM      7  C   UNL     1      13.862   6.935  20.448  0.00  0.00    +0.117 C 
ATOM      8  C   UNL     1      14.454   6.532  20.039  0.00  0.00    +0.121 C 
ATOM      9  N   UNL     1      15.183   6.823  20.294  0.00  0.00    -0.241 N 
ATOM     10  C   UNL     1      15.041   7.405  20.860  0.00  0.00    +0.311 C 
ATOM     11  O   UNL     1      15.614   7.842  21.261  0.00  0.00    -0.252 OA
ATOM     18  C   UNL     1      13.039   6.879  20.424  0.00  0.00    +0.115 C 
ENDROOT
BRANCH   9  12
ATOM     12  C   UNL     1      15.924   6.576  20.028  0.00  0.00    +0.055 A 
ATOM     13  C   UNL     1      16.058   6.468  19.221  0.00  0.00    +0.015 A 
ATOM     14  C   UNL     1      16.799   6.220  18.955  0.00  0.00    +0.001 A 
ATOM     15  C   UNL     1      17.405   6.080  19.497  0.00  0.00    +0.000 A 
ATOM     16  C   UNL     1      17.271   6.188  20.304  0.00  0.00    +0.001 A 
ATOM     17  C   UNL     1      16.531   6.435  20.569  0.00  0.00    +0.015 A 
ENDBRANCH   9  12
BRANCH   2  19
ATOM     19  C   UNL     1      11.296   7.793  21.368  0.00  0.00    +0.073 A 
ATOM     20  C   UNL     1      11.076   8.545  21.108  0.00  0.00    +0.008 A 
ATOM     21  C   UNL     1      10.616   9.030  21.592  0.00  0.00    +0.021 A 
ATOM     22  C   UNL     1      10.377   8.764  22.335  0.00  0.00    +0.099 A 
ATOM     23  N   UNL     1      10.597   8.013  22.594  0.00  0.00    -0.242 NA
ATOM     24  C   UNL     1      11.057   7.527  22.111  0.00  0.00    +0.103 A 
ENDBRANCH   2  19
TORSDOF 2
ENDMDL
MODEL 4
REMARK VINA RESULT:      -8.2     17.764     19.592
REMARK  Name = 
REMARK  2 active torsions:
REMARK  status: ('A' for Active; 'I' for Inactive)
REMARK    1  A    between atoms: C_2  and  C_19
REMARK    2  A    between atoms: N_9  and  C_12
REMARK                            x       y       z     vdW  Elec       q    Type
REMARK                         _______ _______ _______ _____ _____    ______ ____
ROOT
ATOM      1  O   UNL     1      11.826   9.043  18.986  0.00  0.00    -0.270 OA
ATOM      2  C   UNL     1      12.148   8.619  18.356  0.00  0.00    +0.251 C 
ATOM      3  N   UNL     1      12.867   8.223  18.449  0.00  0.00    -0.273 N 
ATOM      4  C   UNL     1      13.189   7.799  17.819  0.00  0.00    +0.115 C 
ATOM      5  C   UNL     1      13.906   7.404  17.913  0.00  0.00    +0.116 C 
ATOM      6  N   UNL     1      14.302   7.431  18.637  0.00  0.00    -0.260 N 
ATOM      7  C   UNL     1      13.979   7.855  19.267  0.00  0.00    +0.117 C 
ATOM      8  C   UNL     1      14.490   7.783  19.910  0.00  0.00    +0.121 C 
ATOM      9  N   UNL     1      15.128   7.316  19.678  0.00  0.00    -0.241 N 
ATOM     10  C   UNL     1      15.012   7.099  18.891  0.00  0.00    +0.311 C 
ATOM     11  O   UNL     1      15.517   6.630  18.438  0.00  0.00    -0.252 OA
ATOM     18  C   UNL     1      13.261   8.251  19.173  0.00  0.00    +0.115 C 
ENDROOT
BRANCH   9  12
ATOM     12  C   UNL     1      15.771   7.103  20.150  0.00  0.00    +0.055 A 
ATOM     13  C   UNL     1      15.701   6.477  20.685  0.00  0.00    +0.015 A 
ATOM     14  C   UNL     1      16.344   6.265  21.157  0.00  0.00    +0.001 A 
ATOM     15  C   UNL     1      17.055   6.678  21.095  0.00  0.00    +0.000 A 
ATOM     16  C   UNL     1      17.125   7.303  20.561  0.00  0.00    +0.001 A 
ATOM     17  C   UNL     1      16.483   7.515  20.089  0.00  0.00    +0.015 A 
ENDBRANCH   9  12
BRANCH   2  19
ATOM     19  C   UNL     1      11.754   8.591  17.632  0.00  0.00    +0.073 A 
ATOM     20  C   UNL     1      11.984   9.093  17.018  0.00  0.00    +0.008 A 
ATOM     21  C   UNL     1      11.589   9.065  16.294  0.00  0.00    +0.021 A 
ATOM     22  C   UNL     1      10.966   8.536  16.183  0.00  0.00    +0.099 A 
ATOM     23  N   UNL     1      10.737   8.035  16.796  0.00  0.00    -0.242 NA
ATOM     24  C   UNL     1      11.131   8.062  17.521  0.00  0.00    +0.103 A 
ENDBRANCH   2  19
TORSDOF 2
ENDMDL
MODEL 5
REMARK VINA RESULT:      -8.1     18.263     19.745
REMARK  Name = 
REMARK  2 active torsions:
REMARK  status: ('A' for Active; 'I' for Inactive)
REMARK    1  A    between atoms: C_2  and  C_19
REMARK    2  A    between atoms: N_9  and  C_12
REMARK                            x       y       z     vdW  Elec       q    Type
REMARK                         _______ _______ _______ _____ _____    ______ ____
ROOT
ATOM      1  O   UNL     1      15.662   8.964  19.804  0.00  0.00    -0.270 OA
ATOM      2  C   UNL     1      15.360   8.196  19.797  0.00  0.00    +0.251 C 
ATOM      3  N   UNL     1      14.707   8.013  19.326  0.00  0.00    -0.273 N 
ATOM      4  C   UNL     1      14.405   7.245  19.319  0.00  0.00    +0.115 C 
ATOM      5  C   UNL     1      13.753   7.063  18.849  0.00  0.00    +0.116 C 
ATOM      6  N   UNL     1      13.401   7.649  18.385  0.00  0.00    -0.260 N 
ATOM      7  C   UNL     1      13.703   8.417  18.393  0.00  0.00    +0.117 C 
ATOM      8  C   UNL     1      13.245   8.875  17.883  0.00  0.00    +0.121 C 
ATOM      9  N   UNL     1      12.660   8.391  17.560  0.00  0.00    -0.241 N 
ATOM     10  C   UNL     1      12.758   7.634  17.871  0.00  0.00    +0.311 C 
ATOM     11  O   UNL     1      12.291   6.975  17.697  0.00  0.00    -0.252 OA
ATOM     18  C   UNL     1      14.356   8.599  18.864  0.00  0.00    +0.115 C 
ENDROOT
BRANCH   9  12
ATOM     12  C   UNL     1      12.081   8.624  17.022  0.00  0.00    +0.055 A 
ATOM     13  C   UNL     1      11.285   8.621  17.243  0.00  0.00    +0.015 A 
ATOM     14  C   UNL     1      10.706   8.854  16.705  0.00  0.00    +0.001 A 
ATOM     15  C   UNL     1      10.921   9.090  15.944  0.00  0.00    +0.000 A 
ATOM     16  C   UNL     1      11.715   9.094  15.722  0.00  0.00    +0.001 A 
ATOM     17  C   UNL     1      12.295   8.861  16.261  0.00  0.00    +0.015 A 
ENDBRANCH   9  12
BRANCH   2  19
ATOM     19  C   UNL     1      15.711   7.610  20.259  0.00  0.00    +0.073 A 
ATOM     20  C   UNL     1      16.364   7.193  19.972  0.00  0.00    +0.008 A 
ATOM     21  C   UNL     1      16.714   6.607  20.435  0.00  0.00    +0.021 A 
ATOM     22  C   UNL     1      16.414   6.437  21.184  0.00  0.00    +0.099 A 
ATOM     23  N   UNL     1      15.762   6.853  21.470  0.00  0.00    -0.242 NA
ATOM     24  C   UNL     1      15.410   7.440  21.009  0.00  0.00    +0.103 A 
ENDBRANCH   2  19
TORSDOF 2
ENDMDL
