MODEL 1
REMARK VINA RESULT:     -12.4      0.000      0.000
REMARK  Name = 
REMARK  7 active torsions:
REMARK  status: ('A' for Active; 'I' for Inactive)
REMARK    1  A    between atoms: C_2  and  C_4
REMARK    2  A    between atoms: C_6  and  C_7
REMARK    3  A    between atoms: C_7  and  C_8
REMARK    4  A    between atoms: C_11  and  C_13
REMARK    5  A    between atoms: C_20  and  C_21
REMARK    6  A    between atoms: C_21  and  N_22
REMARK    7  A    between atoms: N_22  and  C_23
REMARK                            x       y       z     vdW  Elec       q    Type
REMARK                         _______ _______ _______ _____ _____    ______ ____
ROOT
ATOM      4  C   UNL     1      -3.253   1.412  24.076  0.00  0.00    +0.006 C 
ATOM      5  C   UNL     1      -3.336   2.214  24.243  0.00  0.00    +0.005 C 
ATOM      6  C   UNL     1      -3.968   2.476  24.705  0.00  0.00    +0.027 C 
ATOM     17  C   UNL     1      -4.516   1.935  24.999  0.00  0.00    -0.048 C 
ATOM     18  C   UNL     1      -5.148   2.197  25.460  0.00  0.00    +0.026 C 
ATOM     19  C   UNL     1      -4.433   1.131  24.831  0.00  0.00    -0.033 C 
ATOM     20  C   UNL     1      -3.801   0.869  24.369  0.00  0.00    +0.043 C 
ENDROOT
BRANCH   4   2
ATOM      1  C   UNL     1      -2.683   1.152  22.791  0.00  0.00    +0.000 C 
ATOM      2  C   UNL     1      -2.621   1.150  23.614  0.00  0.00    +0.000 C 
ATOM      3  C   UNL     1      -1.928   0.886  23.975  0.00  0.00    +0.000 C 
ENDBRANCH   4   2
BRANCH   6   7
ATOM      7  C   UNL     1      -4.051   3.280  24.873  0.00  0.00    +0.091 C 
BRANCH   7   8
ATOM      8  C   UNL     1      -3.424   3.699  25.207  0.00  0.00    +0.226 A 
ATOM      9  N   UNL     1      -3.284   3.802  26.014  0.00  0.00    -0.112 NA
ATOM     10  N   UNL     1      -2.601   4.255  26.098  0.00  0.00    -0.112 NA
ATOM     11  C   UNL     1      -2.317   4.432  25.344  0.00  0.00    +0.225 A 
ATOM     12  O   UNL     1      -2.826   4.089  24.793  0.00  0.00    -0.423 OA
BRANCH  11  13
ATOM     13  C   UNL     1      -1.643   4.876  25.171  0.00  0.00    +0.070 C 
ATOM     14  C   UNL     1      -0.970   5.320  24.999  0.00  0.00    +0.009 C 
ATOM     15  C   UNL     1      -1.169   4.223  25.344  0.00  0.00    +0.009 C 
ATOM     16  C   UNL     1      -2.117   5.528  24.998  0.00  0.00    +0.009 C 
ENDBRANCH  11  13
ENDBRANCH   7   8
ENDBRANCH   6   7
BRANCH  20  21
ATOM     21  C   UNL     1      -3.718   0.066  24.201  0.00  0.00    +0.117 C 
BRANCH  21  22
ATOM     22  N   UNL     1      -4.208  -0.486  24.571  0.00  0.00    -0.236 NA
BRANCH  22  23
ATOM     23  C   UNL     1      -4.043  -1.291  24.508  0.00  0.00    +0.084 A 
ATOM     24  C   UNL     1      -3.577  -1.664  25.077  0.00  0.00    +0.115 A 
ATOM     25  N   UNL     1      -3.413  -2.470  25.014  0.00  0.00    -0.241 NA
ATOM     26  C   UNL     1      -3.714  -2.903  24.380  0.00  0.00    +0.099 A 
ATOM     27  C   UNL     1      -4.180  -2.531  23.809  0.00  0.00    +0.022 A 
ATOM     28  C   UNL     1      -4.345  -1.725  23.874  0.00  0.00    +0.019 A 
ENDBRANCH  22  23
ENDBRANCH  21  22
ENDBRANCH  20  21
TORSDOF 7
ENDMDL
MODEL 2
REMARK VINA RESULT:     -11.2      1.278      5.245
REMARK  Name = 
REMARK  7 active torsions:
REMARK  status: ('A' for Active; 'I' for Inactive)
REMARK    1  A    between atoms: C_2  and  C_4
REMARK    2  A    between atoms: C_6  and  C_7
REMARK    3  A    between atoms: C_7  and  C_8
REMARK    4  A    between atoms: C_11  and  C_13
REMARK    5  A    between atoms: C_20  and  C_21
REMARK    6  A    between atoms: C_21  and  N_22
REMARK    7  A    between atoms: N_22  and  C_23
REMARK                            x       y       z     vdW  Elec       q    Type
REMARK                         _______ _______ _______ _____ _____    ______ ____
ROOT
ATOM      4  C   UNL     1      -2.865   1.640  23.965  0.00  0.00    +0.006 C 
ATOM      5  C   UNL     1      -3.385   1.001  23.984  0.00  0.00    +0.005 C 
ATOM      6  C   UNL     1      -4.036   1.015  24.491  0.00  0.00    +0.027 C 
ATOM     17  C   UNL     1      -4.166   1.667  24.979  0.00  0.00    -0.048 C 
ATOM     18  C   UNL     1      -4.816   1.680  25.486  0.00  0.00    +0.026 C 
ATOM     19  C   UNL     1      -3.644   2.306  24.960  0.00  0.00    -0.033 C 
ATOM     20  C   UNL     1      -2.994   2.293  24.453  0.00  0.00    +0.043 C 
ENDROOT
BRANCH   4   2
ATOM      1  C   UNL     1      -2.276   1.946  22.698  0.00  0.00    +0.000 C 
ATOM      2  C   UNL     1      -2.214   1.627  23.457  0.00  0.00    +0.000 C 
ATOM      3  C   UNL     1      -1.502   1.296  23.708  0.00  0.00    +0.000 C 
ENDBRANCH   4   2
BRANCH   6   7
ATOM      7  C   UNL     1      -4.558   0.375  24.510  0.00  0.00    +0.091 C 
BRANCH   7   8
ATOM      8  C   UNL     1      -4.281  -0.378  24.704  0.00  0.00    +0.226 A 
ATOM      9  N   UNL     1      -4.069  -0.637  25.458  0.00  0.00    -0.112 NA
ATOM     10  N   UNL     1      -3.825  -1.422  25.398  0.00  0.00    -0.112 NA
ATOM     11  C   UNL     1      -3.885  -1.649  24.607  0.00  0.00    +0.225 A 
ATOM     12  O   UNL     1      -4.167  -1.003  24.178  0.00  0.00    -0.423 OA
BRANCH  11  13
ATOM     13  C   UNL     1      -3.697  -2.391  24.299  0.00  0.00    +0.070 C 
ATOM     14  C   UNL     1      -3.509  -3.133  23.991  0.00  0.00    +0.009 C 
ATOM     15  C   UNL     1      -3.021  -2.415  24.772  0.00  0.00    +0.009 C 
ATOM     16  C   UNL     1      -4.373  -2.366  23.827  0.00  0.00    +0.009 C 
ENDBRANCH  11  13
ENDBRANCH   7   8
ENDBRANCH   6   7
BRANCH  20  21
ATOM     21  C   UNL     1      -2.473   2.932  24.434  0.00  0.00    +0.117 C 
BRANCH  21  22
ATOM     22  N   UNL     1      -2.430   3.449  25.075  0.00  0.00    -0.236 NA
BRANCH  22  23
ATOM     23  C   UNL     1      -1.914   4.092  25.053  0.00  0.00    +0.084 A 
ATOM     24  C   UNL     1      -1.100   3.971  25.112  0.00  0.00    +0.115 A 
ATOM     25  N   UNL     1      -0.584   4.614  25.090  0.00  0.00    -0.241 NA
ATOM     26  C   UNL     1      -0.882   5.379  25.010  0.00  0.00    +0.099 A 
ATOM     27  C   UNL     1      -1.696   5.501  24.951  0.00  0.00    +0.022 A 
ATOM     28  C   UNL     1      -2.212   4.857  24.973  0.00  0.00    +0.019 A 
ENDBRANCH  22  23
ENDBRANCH  21  22
ENDBRANCH  20  21
TORSDOF 7
ENDMDL
MODEL 3
REMARK VINA RESULT:     -10.2      1.242      2.175
REMARK  Name = 
REMARK  7 active torsions:
REMARK  status: ('A' for Active; 'I' for Inactive)
REMARK    1  A    between atoms: C_2  and  C_4
REMARK    2  A    between atoms: C_6  and  C_7
REMARK    3  A    between atoms: C_7  and  C_8
REMARK    4  A    between atoms: C_11  and  C_13
REMARK    5  A    between atoms: C_20  and  C_21
REMARK    6  A    between atoms: C_21  and  N_22
REMARK    7  A    between atoms: N_22  and  C_23
REMARK                            x       y       z     vdW  Elec       q    Type
REMARK                         _______ _______ _______ _____ _____    ______ ____
ROOT
ATOM      4  C   UNL     1      -2.439   1.036  24.299  0.00  0.00    +0.006 C 
ATOM      5  C   UNL     1      -1.925   1.677  24.233  0.00  0.00    +0.005 C 
ATOM      6  C   UNL     1      -1.109   1.552  24.232  0.00  0.00    +0.027 C 
ATOM     17  C   UNL     1      -0.808   0.787  24.296  0.00  0.00    -0.048 C 
ATOM     18  C   UNL     1       0.007   0.662  24.295  0.00  0.00    +0.026 C 
ATOM     19  C   UNL     1      -1.324   0.145  24.362  0.00  0.00    -0.033 C 
ATOM     20  C   UNL     1      -2.140   0.270  24.363  0.00  0.00    +0.043 C 
ENDROOT
BRANCH   4   2
ATOM      1  C   UNL     1      -3.666   1.212  23.586  0.00  0.00    +0.000 C 
ATOM      2  C   UNL     1      -3.255   1.161  24.300  0.00  0.00    +0.000 C 
ATOM      3  C   UNL     1      -3.660   1.236  25.014  0.00  0.00    +0.000 C 
ENDBRANCH   4   2
BRANCH   6   7
ATOM      7  C   UNL     1      -0.593   2.193  24.166  0.00  0.00    +0.091 C 
BRANCH   7   8
ATOM      8  C   UNL     1      -0.694   2.855  24.648  0.00  0.00    +0.226 A 
ATOM      9  N   UNL     1      -0.452   2.925  25.433  0.00  0.00    -0.112 NA
ATOM     10  N   UNL     1      -0.663   3.676  25.699  0.00  0.00    -0.112 NA
ATOM     11  C   UNL     1      -1.036   4.071  25.078  0.00  0.00    +0.225 A 
ATOM     12  O   UNL     1      -1.055   3.564  24.429  0.00  0.00    -0.423 OA
BRANCH  11  13
ATOM     13  C   UNL     1      -1.337   4.840  25.104  0.00  0.00    +0.070 C 
ATOM     14  C   UNL     1      -1.638   5.607  25.129  0.00  0.00    +0.009 C 
ATOM     15  C   UNL     1      -0.687   5.109  24.673  0.00  0.00    +0.009 C 
ATOM     16  C   UNL     1      -1.987   4.570  25.535  0.00  0.00    +0.009 C 
ENDBRANCH  11  13
ENDBRANCH   7   8
ENDBRANCH   6   7
BRANCH  20  21
ATOM     21  C   UNL     1      -2.654  -0.370  24.429  0.00  0.00    +0.117 C 
BRANCH  21  22
ATOM     22  N   UNL     1      -2.355  -1.138  24.479  0.00  0.00    -0.236 NA
BRANCH  22  23
ATOM     23  C   UNL     1      -2.869  -1.777  24.564  0.00  0.00    +0.084 A 
ATOM     24  C   UNL     1      -2.951  -2.148  25.296  0.00  0.00    +0.115 A 
ATOM     25  N   UNL     1      -3.465  -2.787  25.381  0.00  0.00    -0.241 NA
ATOM     26  C   UNL     1      -3.898  -3.056  24.732  0.00  0.00    +0.099 A 
ATOM     27  C   UNL     1      -3.817  -2.686  23.999  0.00  0.00    +0.022 A 
ATOM     28  C   UNL     1      -3.302  -2.046  23.915  0.00  0.00    +0.019 A 
ENDBRANCH  22  23
ENDBRANCH  21  22
ENDBRANCH  20  21
TORSDOF 7
ENDMDL
