MODEL 1
REMARK VINA RESULT:     -12.2      0.000      0.000
REMARK  Name = 
REMARK  8 active torsions:
REMARK  status: ('A' for Active; 'I' for Inactive)
REMARK    1  A    between atoms: C_2  and  C_4
REMARK    2  A    between atoms: C_6  and  C_7
REMARK    3  A    between atoms: C_7  and  C_8
REMARK    4  A    between atoms: N_10  and  C_11
REMARK    5  A    between atoms: C_11  and  C_12
REMARK    6  A    between atoms: C_22  and  C_23
REMARK    7  A    between atoms: C_23  and  N_24
REMARK    8  A    between atoms: C_25  and  C_27
REMARK                            x       y       z     vdW  Elec       q    Type
REMARK                         _______ _______ _______ _____ _____    ______ ____
ROOT
ATOM      4  C   UNL     1      -3.548   1.338  23.977  0.00  0.00    +0.006 C 
ATOM      5  C   UNL     1      -3.736   2.084  24.277  0.00  0.00    +0.005 C 
ATOM      6  C   UNL     1      -4.386   2.175  24.777  0.00  0.00    +0.027 C 
ATOM     19  C   UNL     1      -4.848   1.522  24.977  0.00  0.00    -0.048 C 
ATOM     20  C   UNL     1      -5.497   1.614  25.477  0.00  0.00    +0.026 C 
ATOM     21  C   UNL     1      -4.660   0.777  24.677  0.00  0.00    -0.033 C 
ATOM     22  C   UNL     1      -4.011   0.685  24.177  0.00  0.00    +0.043 C 
ENDROOT
BRANCH   4   2
ATOM      1  C   UNL     1      -2.165   1.033  23.790  0.00  0.00    +0.000 C 
ATOM      2  C   UNL     1      -2.898   1.247  23.477  0.00  0.00    +0.000 C 
ATOM      3  C   UNL     1      -2.981   1.370  22.667  0.00  0.00    +0.000 C 
ENDBRANCH   4   2
BRANCH   6   7
ATOM      7  C   UNL     1      -4.573   2.921  25.077  0.00  0.00    +0.091 C 
BRANCH   7   8
ATOM      8  C   UNL     1      -4.052   3.299  25.594  0.00  0.00    +0.242 C 
ATOM      9  O   UNL     1      -4.132   3.197  26.409  0.00  0.00    -0.273 OA
ATOM     10  N   UNL     1      -3.452   3.781  25.296  0.00  0.00    -0.201 NA
BRANCH  10  11
ATOM     11  C   UNL     1      -2.932   4.159  25.812  0.00  0.00    +0.141 C 
BRANCH  11  12
ATOM     12  C   UNL     1      -2.224   4.473  25.528  0.00  0.00    -0.000 A 
ATOM     13  C   UNL     1      -1.538   4.017  25.536  0.00  0.00    -0.000 A 
ATOM     14  C   UNL     1      -0.830   4.332  25.250  0.00  0.00    +0.029 A 
ATOM     15  C   UNL     1      -0.810   5.103  24.958  0.00  0.00    +0.140 A 
ATOM     16  F   UNL     1      -0.102   5.418  24.672  0.00  0.00    -0.204 F 
ATOM     17  C   UNL     1      -1.497   5.559  24.949  0.00  0.00    +0.029 A 
ATOM     18  C   UNL     1      -2.204   5.245  25.234  0.00  0.00    -0.000 A 
ENDBRANCH  11  12
ENDBRANCH  10  11
ENDBRANCH   7   8
ENDBRANCH   6   7
BRANCH  22  23
ATOM     23  C   UNL     1      -3.823  -0.060  23.877  0.00  0.00    +0.119 C 
BRANCH  23  24
ATOM     24  N   UNL     1      -3.695  -0.692  24.391  0.00  0.00    -0.205 NA
ATOM     25  C   UNL     1      -3.780  -1.467  24.122  0.00  0.00    +0.241 C 
ATOM     26  O   UNL     1      -3.993  -1.610  23.338  0.00  0.00    -0.273 OA
BRANCH  25  27
ATOM     27  C   UNL     1      -3.652  -2.100  24.637  0.00  0.00    +0.078 C 
ATOM     28  C   UNL     1      -3.696  -2.907  24.802  0.00  0.00    +0.010 C 
ATOM     29  C   UNL     1      -3.385  -2.387  25.362  0.00  0.00    +0.010 C 
ENDBRANCH  25  27
ENDBRANCH  23  24
ENDBRANCH  22  23
TORSDOF 8
ENDMDL
MODEL 2
REMARK VINA RESULT:     -12.0      2.212      5.552
REMARK  Name = 
REMARK  8 active torsions:
REMARK  status: ('A' for Active; 'I' for Inactive)
REMARK    1  A    between atoms: C_2  and  C_4
REMARK    2  A    between atoms: C_6  and  C_7
REMARK    3  A    between atoms: C_7  and  C_8
REMARK    4  A    between atoms: N_10  and  C_11
REMARK    5  A    between atoms: C_11  and  C_12
REMARK    6  A    between atoms: C_22  and  C_23
REMARK    7  A    between atoms: C_23  and  N_24
REMARK    8  A    between atoms: C_25  and  C_27
REMARK                            x       y       z     vdW  Elec       q    Type
REMARK                         _______ _______ _______ _____ _____    ______ ____
ROOT
ATOM      4  C   UNL     1      -2.218   1.708  24.618  0.00  0.00    +0.006 C 
ATOM      5  C   UNL     1      -2.897   1.259  24.479  0.00  0.00    +0.005 C 
ATOM      6  C   UNL     1      -3.633   1.627  24.433  0.00  0.00    +0.027 C 
ATOM     19  C   UNL     1      -3.692   2.445  24.526  0.00  0.00    -0.048 C 
ATOM     20  C   UNL     1      -4.428   2.813  24.480  0.00  0.00    +0.026 C 
ATOM     21  C   UNL     1      -3.015   2.894  24.665  0.00  0.00    -0.033 C 
ATOM     22  C   UNL     1      -2.277   2.526  24.711  0.00  0.00    +0.043 C 
ENDROOT
BRANCH   4   2
ATOM      1  C   UNL     1      -1.036   1.224  23.979  0.00  0.00    +0.000 C 
ATOM      2  C   UNL     1      -1.482   1.339  24.664  0.00  0.00    +0.000 C 
ATOM      3  C   UNL     1      -1.192   1.086  25.392  0.00  0.00    +0.000 C 
ENDBRANCH   4   2
BRANCH   6   7
ATOM      7  C   UNL     1      -4.311   1.178  24.294  0.00  0.00    +0.091 C 
BRANCH   7   8
ATOM      8  C   UNL     1      -4.451   0.497  24.739  0.00  0.00    +0.242 C 
ATOM      9  O   UNL     1      -4.759   0.558  25.502  0.00  0.00    -0.273 OA
ATOM     10  N   UNL     1      -4.285  -0.246  24.420  0.00  0.00    -0.201 NA
BRANCH  10  11
ATOM     11  C   UNL     1      -4.426  -0.927  24.864  0.00  0.00    +0.141 C 
BRANCH  11  12
ATOM     12  C   UNL     1      -4.082  -1.643  24.641  0.00  0.00    -0.000 A 
ATOM     13  C   UNL     1      -4.301  -2.002  23.932  0.00  0.00    -0.000 A 
ATOM     14  C   UNL     1      -3.957  -2.718  23.709  0.00  0.00    +0.029 A 
ATOM     15  C   UNL     1      -3.394  -3.074  24.196  0.00  0.00    +0.140 A 
ATOM     16  F   UNL     1      -3.050  -3.791  23.972  0.00  0.00    -0.204 F 
ATOM     17  C   UNL     1      -3.176  -2.715  24.904  0.00  0.00    +0.029 A 
ATOM     18  C   UNL     1      -3.519  -2.000  25.128  0.00  0.00    -0.000 A 
ENDBRANCH  11  12
ENDBRANCH  10  11
ENDBRANCH   7   8
ENDBRANCH   6   7
BRANCH  22  23
ATOM     23  C   UNL     1      -1.600   2.975  24.850  0.00  0.00    +0.119 C 
BRANCH  23  24
ATOM     24  N   UNL     1      -1.618   3.793  24.746  0.00  0.00    -0.205 NA
ATOM     25  C   UNL     1      -1.010   4.261  25.048  0.00  0.00    +0.241 C 
ATOM     26  O   UNL     1      -0.383   3.911  25.455  0.00  0.00    -0.273 OA
BRANCH  25  27
ATOM     27  C   UNL     1      -1.027   5.079  24.944  0.00  0.00    +0.078 C 
ATOM     28  C   UNL     1      -0.680   5.771  24.659  0.00  0.00    +0.010 C 
ATOM     29  C   UNL     1      -1.406   5.804  25.049  0.00  0.00    +0.010 C 
ENDBRANCH  25  27
ENDBRANCH  23  24
ENDBRANCH  22  23
TORSDOF 8
ENDMDL
MODEL 3
REMARK VINA RESULT:     -11.6      1.476      2.391
REMARK  Name = 
REMARK  8 active torsions:
REMARK  status: ('A' for Active; 'I' for Inactive)
REMARK    1  A    between atoms: C_2  and  C_4
REMARK    2  A    between atoms: C_6  and  C_7
REMARK    3  A    between atoms: C_7  and  C_8
REMARK    4  A    between atoms: N_10  and  C_11
REMARK    5  A    between atoms: C_11  and  C_12
REMARK    6  A    between atoms: C_22  and  C_23
REMARK    7  A    between atoms: C_23  and  N_24
REMARK    8  A    between atoms: C_25  and  C_27
REMARK                            x       y       z     vdW  Elec       q    Type
REMARK                         _______ _______ _______ _____ _____    ______ ____
ROOT
ATOM      4  C   UNL     1      -2.618   0.697  24.440  0.00  0.00    +0.006 C 
ATOM      5  C   UNL     1      -1.933   1.142  24.560  0.00  0.00    +0.005 C 
ATOM      6  C   UNL     1      -1.209   0.762  24.671  0.00  0.00    +0.027 C 
ATOM     19  C   UNL     1      -1.170  -0.062  24.661  0.00  0.00    -0.048 C 
ATOM     20  C   UNL     1      -0.446  -0.440  24.772  0.00  0.00    +0.026 C 
ATOM     21  C   UNL     1      -1.854  -0.506  24.542  0.00  0.00    -0.033 C 
ATOM     22  C   UNL     1      -2.578  -0.127  24.431  0.00  0.00    +0.043 C 
ENDROOT
BRANCH   4   2
ATOM      1  C   UNL     1      -3.851   1.187  24.970  0.00  0.00    +0.000 C 
ATOM      2  C   UNL     1      -3.342   1.077  24.329  0.00  0.00    +0.000 C 
ATOM      3  C   UNL     1      -3.557   1.346  23.581  0.00  0.00    +0.000 C 
ENDBRANCH   4   2
BRANCH   6   7
ATOM      7  C   UNL     1      -0.525   1.208  24.790  0.00  0.00    +0.091 C 
BRANCH   7   8
ATOM      8  C   UNL     1      -0.527   1.827  25.337  0.00  0.00    +0.242 C 
ATOM      9  O   UNL     1      -0.459   1.666  26.143  0.00  0.00    -0.273 OA
ATOM     10  N   UNL     1      -0.597   2.607  25.076  0.00  0.00    -0.201 NA
BRANCH  10  11
ATOM     11  C   UNL     1      -0.599   3.225  25.622  0.00  0.00    +0.141 C 
BRANCH  11  12
ATOM     12  C   UNL     1      -0.893   3.964  25.406  0.00  0.00    -0.000 A 
ATOM     13  C   UNL     1      -0.438   4.469  24.939  0.00  0.00    -0.000 A 
ATOM     14  C   UNL     1      -0.733   5.209  24.722  0.00  0.00    +0.029 A 
ATOM     15  C   UNL     1      -1.483   5.443  24.974  0.00  0.00    +0.140 A 
ATOM     16  F   UNL     1      -1.778   6.183  24.757  0.00  0.00    -0.204 F 
ATOM     17  C   UNL     1      -1.938   4.939  25.440  0.00  0.00    +0.029 A 
ATOM     18  C   UNL     1      -1.644   4.199  25.657  0.00  0.00    -0.000 A 
ENDBRANCH  11  12
ENDBRANCH  10  11
ENDBRANCH   7   8
ENDBRANCH   6   7
BRANCH  22  23
ATOM     23  C   UNL     1      -3.262  -0.571  24.311  0.00  0.00    +0.119 C 
BRANCH  23  24
ATOM     24  N   UNL     1      -3.233  -1.395  24.353  0.00  0.00    -0.205 NA
ATOM     25  C   UNL     1      -3.901  -1.842  24.168  0.00  0.00    +0.241 C 
ATOM     26  O   UNL     1      -4.599  -1.466  23.942  0.00  0.00    -0.273 OA
BRANCH  25  27
ATOM     27  C   UNL     1      -3.871  -2.665  24.210  0.00  0.00    +0.078 C 
ATOM     28  C   UNL     1      -4.045  -3.404  23.887  0.00  0.00    +0.010 C 
ATOM     29  C   UNL     1      -3.646  -3.352  24.607  0.00  0.00    +0.010 C 
ENDBRANCH  25  27
ENDBRANCH  23  24
ENDBRANCH  22  23
TORSDOF 8
ENDMDL
MODEL 4
REMARK VINA RESULT:     -11.5      1.967      5.553
REMARK  Name = 
REMARK  8 active torsions:
REMARK  status: ('A' for Active; 'I' for Inactive)
REMARK    1  A    between atoms: C_2  and  C_4
REMARK    2  A    between atoms: C_6  and  C_7
REMARK    3  A    between atoms: C_7  and  C_8
REMARK    4  A    between atoms: N_10  and  C_11
REMARK    5  A    between atoms: C_11  and  C_12
REMARK    6  A    between atoms: C_22  and  C_23
REMARK    7  A    between atoms: C_23  and  N_24
REMARK    8  A    between atoms: C_25  and  C_27
REMARK                            x       y       z     vdW  Elec       q    Type
REMARK                         _______ _______ _______ _____ _____    ______ ____
ROOT
ATOM      4  C   UNL     1      -4.211   2.906  25.031  0.00  0.00    +0.006 C 
ATOM      5  C   UNL     1      -4.518   2.214  24.701  0.00  0.00    +0.005 C 
ATOM      6  C   UNL     1      -4.098   1.818  24.112  0.00  0.00    +0.027 C 
ATOM     19  C   UNL     1      -3.373   2.113  23.852  0.00  0.00    -0.048 C 
ATOM     20  C   UNL     1      -2.954   1.717  23.263  0.00  0.00    +0.026 C 
ATOM     21  C   UNL     1      -3.067   2.804  24.182  0.00  0.00    -0.033 C 
ATOM     22  C   UNL     1      -3.486   3.201  24.771  0.00  0.00    +0.043 C 
ENDROOT
BRANCH   4   2
ATOM      1  C   UNL     1      -5.209   3.855  25.414  0.00  0.00    +0.000 C 
ATOM      2  C   UNL     1      -4.631   3.303  25.620  0.00  0.00    +0.000 C 
ATOM      3  C   UNL     1      -4.474   3.147  26.414  0.00  0.00    +0.000 C 
ENDBRANCH   4   2
BRANCH   6   7
ATOM      7  C   UNL     1      -4.405   1.127  23.782  0.00  0.00    +0.091 C 
BRANCH   7   8
ATOM      8  C   UNL     1      -4.549   0.470  24.262  0.00  0.00    +0.242 C 
ATOM      9  O   UNL     1      -5.196   0.467  24.774  0.00  0.00    -0.273 OA
ATOM     10  N   UNL     1      -4.045  -0.183  24.230  0.00  0.00    -0.201 NA
BRANCH  10  11
ATOM     11  C   UNL     1      -4.189  -0.838  24.709  0.00  0.00    +0.141 C 
BRANCH  11  12
ATOM     12  C   UNL     1      -3.689  -1.493  24.671  0.00  0.00    -0.000 A 
ATOM     13  C   UNL     1      -2.952  -1.472  25.039  0.00  0.00    -0.000 A 
ATOM     14  C   UNL     1      -2.452  -2.128  25.001  0.00  0.00    +0.029 A 
ATOM     15  C   UNL     1      -2.691  -2.804  24.594  0.00  0.00    +0.140 A 
ATOM     16  F   UNL     1      -2.191  -3.461  24.556  0.00  0.00    -0.204 F 
ATOM     17  C   UNL     1      -3.428  -2.826  24.226  0.00  0.00    +0.029 A 
ATOM     18  C   UNL     1      -3.928  -2.171  24.264  0.00  0.00    -0.000 A 
ENDBRANCH  11  12
ENDBRANCH  10  11
ENDBRANCH   7   8
ENDBRANCH   6   7
BRANCH  22  23
ATOM     23  C   UNL     1      -3.180   3.892  25.101  0.00  0.00    +0.119 C 
BRANCH  23  24
ATOM     24  N   UNL     1      -2.462   4.196  24.831  0.00  0.00    -0.205 NA
ATOM     25  C   UNL     1      -2.043   4.736  25.292  0.00  0.00    +0.241 C 
ATOM     26  O   UNL     1      -2.341   4.972  26.024  0.00  0.00    -0.273 OA
BRANCH  25  27
ATOM     27  C   UNL     1      -1.325   5.040  25.022  0.00  0.00    +0.078 C 
ATOM     28  C   UNL     1      -0.885   5.665  24.710  0.00  0.00    +0.010 C 
ATOM     29  C   UNL     1      -0.521   4.941  24.867  0.00  0.00    +0.010 C 
ENDBRANCH  25  27
ENDBRANCH  23  24
ENDBRANCH  22  23
TORSDOF 8
ENDMDL
MODEL 5
REMARK VINA RESULT:     -11.4      2.359      5.891
REMARK  Name = 
REMARK  8 active torsions:
REMARK  status: ('A' for Active; 'I' for Inactive)
REMARK    1  A    between atoms: C_2  and  C_4
REMARK    2  A    between atoms: C_6  and  C_7
REMARK    3  A    between atoms: C_7  and  C_8
REMARK    4  A    between atoms: N_10  and  C_11
REMARK    5  A    between atoms: C_11  and  C_12
REMARK    6  A    between atoms: C_22  and  C_23
REMARK    7  A    between atoms: C_23  and  N_24
REMARK    8  A    between atoms: C_25  and  C_27
REMARK                            x       y       z     vdW  Elec       q    Type
REMARK                         _______ _______ _______ _____ _____    ______ ____
ROOT
ATOM      4  C   UNL     1      -2.549   1.855  24.863  0.00  0.00    +0.006 C 
ATOM      5  C   UNL     1      -2.294   1.070  24.846  0.00  0.00    +0.005 C 
ATOM      6  C   UNL     1      -1.537   0.877  25.110  0.00  0.00    +0.027 C 
ATOM     19  C   UNL     1      -1.034   1.468  25.392  0.00  0.00    -0.048 C 
ATOM     20  C   UNL     1      -0.278   1.274  25.656  0.00  0.00    +0.026 C 
ATOM     21  C   UNL     1      -1.289   2.251  25.409  0.00  0.00    -0.033 C 
ATOM     22  C   UNL     1      -2.046   2.446  25.145  0.00  0.00    +0.043 C 
ENDROOT
BRANCH   4   2
ATOM      1  C   UNL     1      -3.437   2.194  23.797  0.00  0.00    +0.000 C 
ATOM      2  C   UNL     1      -3.306   2.048  24.599  0.00  0.00    +0.000 C 
ATOM      3  C   UNL     1      -3.930   2.096  25.135  0.00  0.00    +0.000 C 
ENDBRANCH   4   2
BRANCH   6   7
ATOM      7  C   UNL     1      -1.283   0.092  25.093  0.00  0.00    +0.091 C 
BRANCH   7   8
ATOM      8  C   UNL     1      -1.760  -0.503  25.408  0.00  0.00    +0.242 C 
ATOM      9  O   UNL     1      -1.792  -0.616  26.225  0.00  0.00    -0.273 OA
ATOM     10  N   UNL     1      -2.206  -0.984  24.906  0.00  0.00    -0.201 NA
BRANCH  10  11
ATOM     11  C   UNL     1      -2.683  -1.578  25.222  0.00  0.00    +0.141 C 
BRANCH  11  12
ATOM     12  C   UNL     1      -3.226  -1.969  24.740  0.00  0.00    -0.000 A 
ATOM     13  C   UNL     1      -3.859  -1.555  24.412  0.00  0.00    -0.000 A 
ATOM     14  C   UNL     1      -4.403  -1.947  23.930  0.00  0.00    +0.029 A 
ATOM     15  C   UNL     1      -4.312  -2.752  23.777  0.00  0.00    +0.140 A 
ATOM     16  F   UNL     1      -4.856  -3.143  23.294  0.00  0.00    -0.204 F 
ATOM     17  C   UNL     1      -3.679  -3.166  24.104  0.00  0.00    +0.029 A 
ATOM     18  C   UNL     1      -3.136  -2.775  24.586  0.00  0.00    -0.000 A 
ENDBRANCH  11  12
ENDBRANCH  10  11
ENDBRANCH   7   8
ENDBRANCH   6   7
BRANCH  22  23
ATOM     23  C   UNL     1      -2.301   3.230  25.162  0.00  0.00    +0.119 C 
BRANCH  23  24
ATOM     24  N   UNL     1      -1.787   3.836  24.941  0.00  0.00    -0.205 NA
ATOM     25  C   UNL     1      -1.898   4.599  25.233  0.00  0.00    +0.241 C 
ATOM     26  O   UNL     1      -2.523   4.756  25.748  0.00  0.00    -0.273 OA
BRANCH  25  27
ATOM     27  C   UNL     1      -1.384   5.206  25.012  0.00  0.00    +0.078 C 
ATOM     28  C   UNL     1      -1.222   6.010  24.929  0.00  0.00    +0.010 C 
ATOM     29  C   UNL     1      -0.657   5.450  24.711  0.00  0.00    +0.010 C 
ENDBRANCH  25  27
ENDBRANCH  23  24
ENDBRANCH  22  23
TORSDOF 8
ENDMDL
MODEL 6
REMARK VINA RESULT:     -11.2      1.256      2.079
REMARK  Name = 
REMARK  8 active torsions:
REMARK  status: ('A' for Active; 'I' for Inactive)
REMARK    1  A    between atoms: C_2  and  C_4
REMARK    2  A    between atoms: C_6  and  C_7
REMARK    3  A    between atoms: C_7  and  C_8
REMARK    4  A    between atoms: N_10  and  C_11
REMARK    5  A    between atoms: C_11  and  C_12
REMARK    6  A    between atoms: C_22  and  C_23
REMARK    7  A    between atoms: C_23  and  N_24
REMARK    8  A    between atoms: C_25  and  C_27
REMARK                            x       y       z     vdW  Elec       q    Type
REMARK                         _______ _______ _______ _____ _____    ______ ____
ROOT
ATOM      4  C   UNL     1      -4.428   1.218  24.497  0.00  0.00    +0.006 C 
ATOM      5  C   UNL     1      -4.150   1.977  24.326  0.00  0.00    +0.005 C 
ATOM      6  C   UNL     1      -3.561   2.082  23.758  0.00  0.00    +0.027 C 
ATOM     19  C   UNL     1      -3.250   1.430  23.360  0.00  0.00    -0.048 C 
ATOM     20  C   UNL     1      -2.662   1.535  22.792  0.00  0.00    +0.026 C 
ATOM     21  C   UNL     1      -3.528   0.672  23.530  0.00  0.00    -0.033 C 
ATOM     22  C   UNL     1      -4.117   0.566  24.099  0.00  0.00    +0.043 C 
ENDROOT
BRANCH   4   2
ATOM      1  C   UNL     1      -5.811   1.204  24.857  0.00  0.00    +0.000 C 
ATOM      2  C   UNL     1      -5.017   1.113  25.065  0.00  0.00    +0.000 C 
ATOM      3  C   UNL     1      -4.813   0.918  25.839  0.00  0.00    +0.000 C 
ENDBRANCH   4   2
BRANCH   6   7
ATOM      7  C   UNL     1      -3.284   2.840  23.588  0.00  0.00    +0.091 C 
BRANCH   7   8
ATOM      8  C   UNL     1      -2.954   3.302  24.188  0.00  0.00    +0.242 C 
ATOM      9  O   UNL     1      -3.391   3.914  24.525  0.00  0.00    -0.273 OA
ATOM     10  N   UNL     1      -2.185   3.150  24.449  0.00  0.00    -0.201 NA
BRANCH  10  11
ATOM     11  C   UNL     1      -1.856   3.612  25.048  0.00  0.00    +0.141 C 
BRANCH  11  12
ATOM     12  C   UNL     1      -1.185   3.348  25.449  0.00  0.00    -0.000 A 
ATOM     13  C   UNL     1      -1.260   2.985  26.185  0.00  0.00    -0.000 A 
ATOM     14  C   UNL     1      -0.588   2.721  26.585  0.00  0.00    +0.029 A 
ATOM     15  C   UNL     1       0.158   2.821  26.248  0.00  0.00    +0.140 A 
ATOM     16  F   UNL     1       0.830   2.557  26.649  0.00  0.00    -0.204 F 
ATOM     17  C   UNL     1       0.233   3.184  25.513  0.00  0.00    +0.029 A 
ATOM     18  C   UNL     1      -0.438   3.448  25.112  0.00  0.00    -0.000 A 
ENDBRANCH  11  12
ENDBRANCH  10  11
ENDBRANCH   7   8
ENDBRANCH   6   7
BRANCH  22  23
ATOM     23  C   UNL     1      -4.395  -0.191  24.269  0.00  0.00    +0.119 C 
BRANCH  23  24
ATOM     24  N   UNL     1      -3.862  -0.801  24.429  0.00  0.00    -0.205 NA
ATOM     25  C   UNL     1      -4.062  -1.581  24.256  0.00  0.00    +0.241 C 
ATOM     26  O   UNL     1      -4.797  -1.754  23.922  0.00  0.00    -0.273 OA
BRANCH  25  27
ATOM     27  C   UNL     1      -3.529  -2.190  24.416  0.00  0.00    +0.078 C 
ATOM     28  C   UNL     1      -3.349  -2.902  24.793  0.00  0.00    +0.010 C 
ATOM     29  C   UNL     1      -2.786  -2.533  24.316  0.00  0.00    +0.010 C 
ENDBRANCH  25  27
ENDBRANCH  23  24
ENDBRANCH  22  23
TORSDOF 8
ENDMDL
MODEL 7
REMARK VINA RESULT:     -10.8      2.986      5.190
REMARK  Name = 
REMARK  8 active torsions:
REMARK  status: ('A' for Active; 'I' for Inactive)
REMARK    1  A    between atoms: C_2  and  C_4
REMARK    2  A    between atoms: C_6  and  C_7
REMARK    3  A    between atoms: C_7  and  C_8
REMARK    4  A    between atoms: N_10  and  C_11
REMARK    5  A    between atoms: C_11  and  C_12
REMARK    6  A    between atoms: C_22  and  C_23
REMARK    7  A    between atoms: C_23  and  N_24
REMARK    8  A    between atoms: C_25  and  C_27
REMARK                            x       y       z     vdW  Elec       q    Type
REMARK                         _______ _______ _______ _____ _____    ______ ____
ROOT
ATOM      4  C   UNL     1      -1.239   1.539  24.816  0.00  0.00    +0.006 C 
ATOM      5  C   UNL     1      -2.062   1.594  24.797  0.00  0.00    +0.005 C 
ATOM      6  C   UNL     1      -2.456   1.638  24.073  0.00  0.00    +0.027 C 
ATOM     19  C   UNL     1      -2.027   1.628  23.369  0.00  0.00    -0.048 C 
ATOM     20  C   UNL     1      -2.420   1.673  22.646  0.00  0.00    +0.026 C 
ATOM     21  C   UNL     1      -1.204   1.574  23.388  0.00  0.00    -0.033 C 
ATOM     22  C   UNL     1      -0.810   1.529  24.111  0.00  0.00    +0.043 C 
ENDROOT
BRANCH   4   2
ATOM      1  C   UNL     1      -0.712   0.760  25.891  0.00  0.00    +0.000 C 
ATOM      2  C   UNL     1      -0.845   1.495  25.539  0.00  0.00    +0.000 C 
ATOM      3  C   UNL     1      -0.586   2.183  25.911  0.00  0.00    +0.000 C 
ENDBRANCH   4   2
BRANCH   6   7
ATOM      7  C   UNL     1      -3.278   1.693  24.055  0.00  0.00    +0.091 C 
BRANCH   7   8
ATOM      8  C   UNL     1      -3.737   1.156  24.484  0.00  0.00    +0.242 C 
ATOM      9  O   UNL     1      -4.160   1.410  25.145  0.00  0.00    -0.273 OA
ATOM     10  N   UNL     1      -3.771   0.364  24.250  0.00  0.00    -0.201 NA
BRANCH  10  11
ATOM     11  C   UNL     1      -4.229  -0.172  24.678  0.00  0.00    +0.141 C 
BRANCH  11  12
ATOM     12  C   UNL     1      -4.097  -0.982  24.597  0.00  0.00    -0.000 A 
ATOM     13  C   UNL     1      -3.715  -1.400  25.196  0.00  0.00    -0.000 A 
ATOM     14  C   UNL     1      -3.584  -2.211  25.114  0.00  0.00    +0.029 A 
ATOM     15  C   UNL     1      -3.835  -2.602  24.433  0.00  0.00    +0.140 A 
ATOM     16  F   UNL     1      -3.703  -3.413  24.351  0.00  0.00    -0.204 F 
ATOM     17  C   UNL     1      -4.217  -2.184  23.834  0.00  0.00    +0.029 A 
ATOM     18  C   UNL     1      -4.349  -1.374  23.915  0.00  0.00    -0.000 A 
ENDBRANCH  11  12
ENDBRANCH  10  11
ENDBRANCH   7   8
ENDBRANCH   6   7
BRANCH  22  23
ATOM     23  C   UNL     1       0.013   1.475  24.130  0.00  0.00    +0.119 C 
BRANCH  23  24
ATOM     24  N   UNL     1       0.402   0.929  23.649  0.00  0.00    -0.205 NA
ATOM     25  C   UNL     1       1.206   1.019  23.489  0.00  0.00    +0.241 C 
ATOM     26  O   UNL     1       1.621   1.655  23.811  0.00  0.00    -0.273 OA
BRANCH  25  27
ATOM     27  C   UNL     1       1.595   0.473  23.008  0.00  0.00    +0.078 C 
ATOM     28  C   UNL     1       2.289   0.195  22.659  0.00  0.00    +0.010 C 
ATOM     29  C   UNL     1       1.574  -0.194  22.524  0.00  0.00    +0.010 C 
ENDBRANCH  25  27
ENDBRANCH  23  24
ENDBRANCH  22  23
TORSDOF 8
ENDMDL
MODEL 8
REMARK VINA RESULT:     -10.8      2.509      4.775
REMARK  Name = 
REMARK  8 active torsions:
REMARK  status: ('A' for Active; 'I' for Inactive)
REMARK    1  A    between atoms: C_2  and  C_4
REMARK    2  A    between atoms: C_6  and  C_7
REMARK    3  A    between atoms: C_7  and  C_8
REMARK    4  A    between atoms: N_10  and  C_11
REMARK    5  A    between atoms: C_11  and  C_12
REMARK    6  A    between atoms: C_22  and  C_23
REMARK    7  A    between atoms: C_23  and  N_24
REMARK    8  A    between atoms: C_25  and  C_27
REMARK                            x       y       z     vdW  Elec       q    Type
REMARK                         _______ _______ _______ _____ _____    ______ ____
ROOT
ATOM      4  C   UNL     1      -2.384   3.288  24.918  0.00  0.00    +0.006 C 
ATOM      5  C   UNL     1      -1.718   3.004  24.520  0.00  0.00    +0.005 C 
ATOM      6  C   UNL     1      -1.809   2.535  23.848  0.00  0.00    +0.027 C 
ATOM     19  C   UNL     1      -2.565   2.349  23.573  0.00  0.00    -0.048 C 
ATOM     20  C   UNL     1      -2.655   1.879  22.902  0.00  0.00    +0.026 C 
ATOM     21  C   UNL     1      -3.229   2.633  23.971  0.00  0.00    -0.033 C 
ATOM     22  C   UNL     1      -3.139   3.103  24.643  0.00  0.00    +0.043 C 
ENDROOT
BRANCH   4   2
ATOM      1  C   UNL     1      -2.248   4.579  25.516  0.00  0.00    +0.000 C 
ATOM      2  C   UNL     1      -2.293   3.758  25.590  0.00  0.00    +0.000 C 
ATOM      3  C   UNL     1      -2.246   3.408  26.334  0.00  0.00    +0.000 C 
ENDBRANCH   4   2
BRANCH   6   7
ATOM      7  C   UNL     1      -1.144   2.251  23.451  0.00  0.00    +0.091 C 
BRANCH   7   8
ATOM      8  C   UNL     1      -0.600   1.774  23.849  0.00  0.00    +0.242 C 
ATOM      9  O   UNL     1       0.107   2.097  24.125  0.00  0.00    -0.273 OA
ATOM     10  N   UNL     1      -0.762   0.974  23.969  0.00  0.00    -0.201 NA
BRANCH  10  11
ATOM     11  C   UNL     1      -0.218   0.498  24.366  0.00  0.00    +0.141 C 
BRANCH  11  12
ATOM     12  C   UNL     1      -0.430  -0.265  24.597  0.00  0.00    -0.000 A 
ATOM     13  C   UNL     1      -0.321  -0.898  24.082  0.00  0.00    -0.000 A 
ATOM     14  C   UNL     1      -0.534  -1.661  24.314  0.00  0.00    +0.029 A 
ATOM     15  C   UNL     1      -0.856  -1.789  25.063  0.00  0.00    +0.140 A 
ATOM     16  F   UNL     1      -1.068  -2.552  25.295  0.00  0.00    -0.204 F 
ATOM     17  C   UNL     1      -0.965  -1.156  25.579  0.00  0.00    +0.029 A 
ATOM     18  C   UNL     1      -0.752  -0.393  25.347  0.00  0.00    -0.000 A 
ENDBRANCH  11  12
ENDBRANCH  10  11
ENDBRANCH   7   8
ENDBRANCH   6   7
BRANCH  22  23
ATOM     23  C   UNL     1      -3.803   3.387  25.040  0.00  0.00    +0.119 C 
BRANCH  23  24
ATOM     24  N   UNL     1      -4.422   2.875  25.229  0.00  0.00    -0.205 NA
ATOM     25  C   UNL     1      -5.171   3.176  25.397  0.00  0.00    +0.241 C 
ATOM     26  O   UNL     1      -5.301   3.991  25.378  0.00  0.00    -0.273 OA
BRANCH  25  27
ATOM     27  C   UNL     1      -5.790   2.664  25.586  0.00  0.00    +0.078 C 
ATOM     28  C   UNL     1      -6.250   2.276  26.150  0.00  0.00    +0.010 C 
ATOM     29  C   UNL     1      -6.402   2.166  25.347  0.00  0.00    +0.010 C 
ENDBRANCH  25  27
ENDBRANCH  23  24
ENDBRANCH  22  23
TORSDOF 8
ENDMDL
MODEL 9
REMARK VINA RESULT:     -10.7      2.677      4.228
REMARK  Name = 
REMARK  8 active torsions:
REMARK  status: ('A' for Active; 'I' for Inactive)
REMARK    1  A    between atoms: C_2  and  C_4
REMARK    2  A    between atoms: C_6  and  C_7
REMARK    3  A    between atoms: C_7  and  C_8
REMARK    4  A    between atoms: N_10  and  C_11
REMARK    5  A    between atoms: C_11  and  C_12
REMARK    6  A    between atoms: C_22  and  C_23
REMARK    7  A    between atoms: C_23  and  N_24
REMARK    8  A    between atoms: C_25  and  C_27
REMARK                            x       y       z     vdW  Elec       q    Type
REMARK                         _______ _______ _______ _____ _____    ______ ____
ROOT
ATOM      4  C   UNL     1      -1.453   1.024  24.782  0.00  0.00    +0.006 C 
ATOM      5  C   UNL     1      -1.843   1.693  25.067  0.00  0.00    +0.005 C 
ATOM      6  C   UNL     1      -1.488   2.435  25.005  0.00  0.00    +0.027 C 
ATOM     19  C   UNL     1      -0.742   2.508  24.659  0.00  0.00    -0.048 C 
ATOM     20  C   UNL     1      -0.388   3.249  24.597  0.00  0.00    +0.026 C 
ATOM     21  C   UNL     1      -0.353   1.839  24.374  0.00  0.00    -0.033 C 
ATOM     22  C   UNL     1      -0.708   1.097  24.436  0.00  0.00    +0.043 C 
ENDROOT
BRANCH   4   2
ATOM      1  C   UNL     1      -1.675  -0.185  25.511  0.00  0.00    +0.000 C 
ATOM      2  C   UNL     1      -1.809   0.282  24.843  0.00  0.00    +0.000 C 
ATOM      3  C   UNL     1      -2.297   0.007  24.239  0.00  0.00    +0.000 C 
ENDBRANCH   4   2
BRANCH   6   7
ATOM      7  C   UNL     1      -1.878   3.103  25.290  0.00  0.00    +0.091 C 
BRANCH   7   8
ATOM      8  C   UNL     1      -2.598   3.333  24.956  0.00  0.00    +0.242 C 
ATOM      9  O   UNL     1      -2.607   3.768  24.254  0.00  0.00    -0.273 OA
ATOM     10  N   UNL     1      -3.308   3.129  25.325  0.00  0.00    -0.201 NA
BRANCH  10  11
ATOM     11  C   UNL     1      -4.026   3.360  24.991  0.00  0.00    +0.141 C 
BRANCH  11  12
ATOM     12  C   UNL     1      -4.714   2.940  25.165  0.00  0.00    -0.000 A 
ATOM     13  C   UNL     1      -5.086   3.042  25.893  0.00  0.00    -0.000 A 
ATOM     14  C   UNL     1      -5.775   2.621  26.068  0.00  0.00    +0.029 A 
ATOM     15  C   UNL     1      -6.090   2.099  25.512  0.00  0.00    +0.140 A 
ATOM     16  F   UNL     1      -6.779   1.678  25.686  0.00  0.00    -0.204 F 
ATOM     17  C   UNL     1      -5.718   1.997  24.784  0.00  0.00    +0.029 A 
ATOM     18  C   UNL     1      -5.030   2.417  24.610  0.00  0.00    -0.000 A 
ENDBRANCH  11  12
ENDBRANCH  10  11
ENDBRANCH   7   8
ENDBRANCH   6   7
BRANCH  22  23
ATOM     23  C   UNL     1      -0.318   0.428  24.151  0.00  0.00    +0.119 C 
BRANCH  23  24
ATOM     24  N   UNL     1       0.304   0.509  23.615  0.00  0.00    -0.205 NA
ATOM     25  C   UNL     1       0.728  -0.154  23.372  0.00  0.00    +0.241 C 
ATOM     26  O   UNL     1       0.530  -0.900  23.663  0.00  0.00    -0.273 OA
BRANCH  25  27
ATOM     27  C   UNL     1       1.351  -0.074  22.836  0.00  0.00    +0.078 C 
ATOM     28  C   UNL     1       1.658  -0.175  22.077  0.00  0.00    +0.010 C 
ATOM     29  C   UNL     1       2.121   0.168  22.668  0.00  0.00    +0.010 C 
ENDBRANCH  25  27
ENDBRANCH  23  24
ENDBRANCH  22  23
TORSDOF 8
ENDMDL
MODEL 10
REMARK VINA RESULT:     -10.7      2.536      5.277
REMARK  Name = 
REMARK  8 active torsions:
REMARK  status: ('A' for Active; 'I' for Inactive)
REMARK    1  A    between atoms: C_2  and  C_4
REMARK    2  A    between atoms: C_6  and  C_7
REMARK    3  A    between atoms: C_7  and  C_8
REMARK    4  A    between atoms: N_10  and  C_11
REMARK    5  A    between atoms: C_11  and  C_12
REMARK    6  A    between atoms: C_22  and  C_23
REMARK    7  A    between atoms: C_23  and  N_24
REMARK    8  A    between atoms: C_25  and  C_27
REMARK                            x       y       z     vdW  Elec       q    Type
REMARK                         _______ _______ _______ _____ _____    ______ ____
ROOT
ATOM      4  C   UNL     1      -2.165   1.761  23.753  0.00  0.00    +0.006 C 
ATOM      5  C   UNL     1      -1.531   1.253  23.901  0.00  0.00    +0.005 C 
ATOM      6  C   UNL     1      -1.119   1.306  24.613  0.00  0.00    +0.027 C 
ATOM     19  C   UNL     1      -1.340   1.866  25.178  0.00  0.00    -0.048 C 
ATOM     20  C   UNL     1      -0.927   1.918  25.889  0.00  0.00    +0.026 C 
ATOM     21  C   UNL     1      -1.973   2.373  25.030  0.00  0.00    -0.033 C 
ATOM     22  C   UNL     1      -2.386   2.321  24.318  0.00  0.00    +0.043 C 
ENDROOT
BRANCH   4   2
ATOM      1  C   UNL     1      -3.221   1.195  22.974  0.00  0.00    +0.000 C 
ATOM      2  C   UNL     1      -2.578   1.708  23.041  0.00  0.00    +0.000 C 
ATOM      3  C   UNL     1      -2.348   2.167  22.396  0.00  0.00    +0.000 C 
ENDBRANCH   4   2
BRANCH   6   7
ATOM      7  C   UNL     1      -0.486   0.799  24.760  0.00  0.00    +0.091 C 
BRANCH   7   8
ATOM      8  C   UNL     1      -0.525   0.010  24.520  0.00  0.00    +0.242 C 
ATOM      9  O   UNL     1      -0.088  -0.246  23.869  0.00  0.00    -0.273 OA
ATOM     10  N   UNL     1      -1.004  -0.523  24.931  0.00  0.00    -0.201 NA
BRANCH  10  11
ATOM     11  C   UNL     1      -1.043  -1.311  24.691  0.00  0.00    +0.141 C 
BRANCH  11  12
ATOM     12  C   UNL     1      -1.740  -1.740  24.798  0.00  0.00    -0.000 A 
ATOM     13  C   UNL     1      -2.211  -1.603  25.460  0.00  0.00    -0.000 A 
ATOM     14  C   UNL     1      -2.908  -2.032  25.567  0.00  0.00    +0.029 A 
ATOM     15  C   UNL     1      -3.133  -2.597  25.010  0.00  0.00    +0.140 A 
ATOM     16  F   UNL     1      -3.830  -3.027  25.117  0.00  0.00    -0.204 F 
ATOM     17  C   UNL     1      -2.662  -2.734  24.348  0.00  0.00    +0.029 A 
ATOM     18  C   UNL     1      -1.965  -2.306  24.241  0.00  0.00    -0.000 A 
ENDBRANCH  11  12
ENDBRANCH  10  11
ENDBRANCH   7   8
ENDBRANCH   6   7
BRANCH  22  23
ATOM     23  C   UNL     1      -3.019   2.828  24.170  0.00  0.00    +0.119 C 
BRANCH  23  24
ATOM     24  N   UNL     1      -3.647   2.872  24.704  0.00  0.00    -0.205 NA
ATOM     25  C   UNL     1      -4.146   3.528  24.701  0.00  0.00    +0.241 C 
ATOM     26  O   UNL     1      -4.018   4.141  24.163  0.00  0.00    -0.273 OA
BRANCH  25  27
ATOM     27  C   UNL     1      -4.773   3.573  25.235  0.00  0.00    +0.078 C 
ATOM     28  C   UNL     1      -5.291   4.022  25.694  0.00  0.00    +0.010 C 
ATOM     29  C   UNL     1      -5.342   3.199  25.700  0.00  0.00    +0.010 C 
ENDBRANCH  25  27
ENDBRANCH  23  24
ENDBRANCH  22  23
TORSDOF 8
ENDMDL
