MODEL 1
REMARK VINA RESULT:     -11.6      0.000      0.000
REMARK  Name = 
REMARK  7 active torsions:
REMARK  status: ('A' for Active; 'I' for Inactive)
REMARK    1  A    between atoms: N_2  and  C_3
REMARK    2  A    between atoms: N_2  and  C_10
REMARK    3  A    between atoms: C_3  and  C_4
REMARK    4  A    between atoms: C_13  and  C_14
REMARK    5  A    between atoms: C_17  and  C_18
REMARK    6  A    between atoms: C_18  and  N_19
REMARK    7  A    between atoms: N_22  and  C_23
REMARK                            x       y       z     vdW  Elec       q    Type
REMARK                         _______ _______ _______ _____ _____    ______ ____
ROOT
ATOM     10  C   UNL     1      -4.059   2.889  25.131  0.00  0.00    +0.120 C 
ATOM     11  C   UNL     1      -4.707   3.330  25.391  0.00  0.00    +0.198 C 
ATOM     12  O   UNL     1      -4.735   4.151  25.466  0.00  0.00    -0.219 OA
ATOM     13  C   UNL     1      -5.320   2.805  25.563  0.00  0.00    +0.180 C 
ATOM     16  O   UNL     1      -5.052   2.040  25.409  0.00  0.00    -0.350 OA
ATOM     17  C   UNL     1      -4.273   2.092  25.143  0.00  0.00    +0.154 C 
ENDROOT
BRANCH  10   2
ATOM      1  C   UNL     1      -3.181   3.358  24.106  0.00  0.00    +0.090 C 
ATOM      2  N   UNL     1      -3.327   3.191  24.901  0.00  0.00    -0.265 NA
BRANCH   2   3
ATOM      3  C   UNL     1      -2.740   3.326  25.465  0.00  0.00    +0.099 C 
BRANCH   3   4
ATOM      4  C   UNL     1      -2.064   3.751  25.263  0.00  0.00    -0.006 A 
ATOM      5  C   UNL     1      -2.057   4.573  25.336  0.00  0.00    -0.003 A 
ATOM      6  C   UNL     1      -1.380   4.999  25.133  0.00  0.00    -0.000 A 
ATOM      7  C   UNL     1      -0.711   4.603  24.858  0.00  0.00    -0.000 A 
ATOM      8  C   UNL     1      -0.718   3.781  24.786  0.00  0.00    -0.000 A 
ATOM      9  C   UNL     1      -1.395   3.355  24.988  0.00  0.00    -0.003 A 
ENDBRANCH   3   4
ENDBRANCH   2   3
ENDBRANCH  10   2
BRANCH  13  14
ATOM     14  C   UNL     1      -6.070   3.011  25.840  0.00  0.00    +0.214 C 
ATOM     15  O   UNL     1      -6.390   2.619  26.491  0.00  0.00    -0.218 OA
ENDBRANCH  13  14
BRANCH  17  18
ATOM     18  C   UNL     1      -3.792   1.457  24.926  0.00  0.00    +0.148 C 
BRANCH  18  19
ATOM     19  N   UNL     1      -3.884   0.725  25.295  0.00  0.00    -0.184 NA
ATOM     20  C   UNL     1      -3.639   0.037  24.912  0.00  0.00    +0.344 C 
ATOM     21  O   UNL     1      -3.303   0.081  24.160  0.00  0.00    -0.249 OA
ATOM     22  N   UNL     1      -3.730  -0.695  25.281  0.00  0.00    -0.161 NA
BRANCH  22  23
ATOM     23  C   UNL     1      -3.485  -1.383  24.898  0.00  0.00    +0.076 A 
ATOM     24  C   UNL     1      -2.713  -1.657  24.996  0.00  0.00    +0.028 A 
ATOM     25  C   UNL     1      -2.468  -2.345  24.612  0.00  0.00    +0.059 A 
ATOM     26 CL   UNL     1      -1.695  -2.619  24.710  0.00  0.00    -0.082 Cl
ATOM     27  C   UNL     1      -2.994  -2.759  24.132  0.00  0.00    +0.011 A 
ATOM     28  C   UNL     1      -3.766  -2.486  24.034  0.00  0.00    +0.002 A 
ATOM     29  C   UNL     1      -4.012  -1.797  24.417  0.00  0.00    +0.017 A 
ENDBRANCH  22  23
ENDBRANCH  18  19
ENDBRANCH  17  18
TORSDOF 7
ENDMDL
MODEL 2
REMARK VINA RESULT:     -10.2      2.809      6.142
REMARK  Name = 
REMARK  7 active torsions:
REMARK  status: ('A' for Active; 'I' for Inactive)
REMARK    1  A    between atoms: N_2  and  C_3
REMARK    2  A    between atoms: N_2  and  C_10
REMARK    3  A    between atoms: C_3  and  C_4
REMARK    4  A    between atoms: C_13  and  C_14
REMARK    5  A    between atoms: C_17  and  C_18
REMARK    6  A    between atoms: C_18  and  N_19
REMARK    7  A    between atoms: N_22  and  C_23
REMARK                            x       y       z     vdW  Elec       q    Type
REMARK                         _______ _______ _______ _____ _____    ______ ____
ROOT
ATOM     10  C   UNL     1      -0.639  -0.368  24.293  0.00  0.00    +0.120 C 
ATOM     11  C   UNL     1      -0.021  -0.704  23.860  0.00  0.00    +0.198 C 
ATOM     12  O   UNL     1       0.110  -1.511  23.751  0.00  0.00    -0.219 OA
ATOM     13  C   UNL     1       0.441  -0.091  23.557  0.00  0.00    +0.180 C 
ATOM     16  O   UNL     1       0.109   0.623  23.802  0.00  0.00    -0.350 OA
ATOM     17  C   UNL     1      -0.558   0.452  24.256  0.00  0.00    +0.154 C 
ENDROOT
BRANCH  10   2
ATOM      1  C   UNL     1      -1.091  -1.082  25.446  0.00  0.00    +0.090 C 
ATOM      2  N   UNL     1      -1.233  -0.780  24.691  0.00  0.00    -0.265 NA
BRANCH   2   3
ATOM      3  C   UNL     1      -1.969  -0.889  24.335  0.00  0.00    +0.099 C 
BRANCH   3   4
ATOM      4  C   UNL     1      -2.516  -1.406  24.670  0.00  0.00    -0.006 A 
ATOM      5  C   UNL     1      -3.002  -1.150  25.286  0.00  0.00    -0.003 A 
ATOM      6  C   UNL     1      -3.549  -1.669  25.621  0.00  0.00    -0.000 A 
ATOM      7  C   UNL     1      -3.611  -2.442  25.341  0.00  0.00    -0.000 A 
ATOM      8  C   UNL     1      -3.126  -2.697  24.724  0.00  0.00    -0.000 A 
ATOM      9  C   UNL     1      -2.578  -2.179  24.389  0.00  0.00    -0.003 A 
ENDBRANCH   3   4
ENDBRANCH   2   3
ENDBRANCH  10   2
BRANCH  13  14
ATOM     14  C   UNL     1       1.116  -0.179  23.091  0.00  0.00    +0.214 C 
ATOM     15  O   UNL     1       1.635   0.455  22.994  0.00  0.00    -0.218 OA
ENDBRANCH  13  14
BRANCH  17  18
ATOM     18  C   UNL     1      -1.058   1.005  24.612  0.00  0.00    +0.148 C 
BRANCH  18  19
ATOM     19  N   UNL     1      -0.739   1.672  24.979  0.00  0.00    -0.184 NA
ATOM     20  C   UNL     1      -1.181   2.366  25.027  0.00  0.00    +0.344 C 
ATOM     21  O   UNL     1      -1.940   2.395  24.707  0.00  0.00    -0.249 OA
ATOM     22  N   UNL     1      -0.863   3.034  25.394  0.00  0.00    -0.161 NA
BRANCH  22  23
ATOM     23  C   UNL     1      -1.305   3.728  25.441  0.00  0.00    +0.076 A 
ATOM     24  C   UNL     1      -1.032   4.416  25.075  0.00  0.00    +0.028 A 
ATOM     25  C   UNL     1      -1.474   5.111  25.122  0.00  0.00    +0.059 A 
ATOM     26 CL   UNL     1      -1.202   5.799  24.756  0.00  0.00    -0.082 Cl
ATOM     27  C   UNL     1      -2.188   5.118  25.534  0.00  0.00    +0.011 A 
ATOM     28  C   UNL     1      -2.461   4.431  25.900  0.00  0.00    +0.002 A 
ATOM     29  C   UNL     1      -2.018   3.736  25.853  0.00  0.00    +0.017 A 
ENDBRANCH  22  23
ENDBRANCH  18  19
ENDBRANCH  17  18
TORSDOF 7
ENDMDL
MODEL 3
REMARK VINA RESULT:     -10.1      1.592      3.066
REMARK  Name = 
REMARK  7 active torsions:
REMARK  status: ('A' for Active; 'I' for Inactive)
REMARK    1  A    between atoms: N_2  and  C_3
REMARK    2  A    between atoms: N_2  and  C_10
REMARK    3  A    between atoms: C_3  and  C_4
REMARK    4  A    between atoms: C_13  and  C_14
REMARK    5  A    between atoms: C_17  and  C_18
REMARK    6  A    between atoms: C_18  and  N_19
REMARK    7  A    between atoms: N_22  and  C_23
REMARK                            x       y       z     vdW  Elec       q    Type
REMARK                         _______ _______ _______ _____ _____    ______ ____
ROOT
ATOM     10  C   UNL     1      -2.154   2.788  25.151  0.00  0.00    +0.120 C 
ATOM     11  C   UNL     1      -1.468   3.224  25.298  0.00  0.00    +0.198 C 
ATOM     12  O   UNL     1      -1.422   4.044  25.370  0.00  0.00    -0.219 OA
ATOM     13  C   UNL     1      -0.839   2.694  25.360  0.00  0.00    +0.180 C 
ATOM     16  O   UNL     1      -1.135   1.932  25.252  0.00  0.00    -0.350 OA
ATOM     17  C   UNL     1      -1.947   1.989  25.123  0.00  0.00    +0.154 C 
ENDROOT
BRANCH  10   2
ATOM      1  C   UNL     1      -3.218   3.200  24.291  0.00  0.00    +0.090 C 
ATOM      2  N   UNL     1      -2.913   3.096  25.050  0.00  0.00    -0.265 NA
BRANCH   2   3
ATOM      3  C   UNL     1      -3.366   3.299  25.709  0.00  0.00    +0.099 C 
BRANCH   3   4
ATOM      4  C   UNL     1      -4.170   3.457  25.623  0.00  0.00    -0.006 A 
ATOM      5  C   UNL     1      -4.727   2.876  25.803  0.00  0.00    -0.003 A 
ATOM      6  C   UNL     1      -5.532   3.035  25.716  0.00  0.00    -0.000 A 
ATOM      7  C   UNL     1      -5.780   3.775  25.450  0.00  0.00    -0.000 A 
ATOM      8  C   UNL     1      -5.223   4.357  25.270  0.00  0.00    -0.000 A 
ATOM      9  C   UNL     1      -4.418   4.198  25.357  0.00  0.00    -0.003 A 
ENDBRANCH   3   4
ENDBRANCH   2   3
ENDBRANCH  10   2
BRANCH  13  14
ATOM     14  C   UNL     1      -0.051   2.894  25.506  0.00  0.00    +0.214 C 
ATOM     15  O   UNL     1       0.475   2.321  25.781  0.00  0.00    -0.218 OA
ENDBRANCH  13  14
BRANCH  17  18
ATOM     18  C   UNL     1      -2.463   1.359  24.988  0.00  0.00    +0.148 C 
BRANCH  18  19
ATOM     19  N   UNL     1      -2.170   0.640  24.709  0.00  0.00    -0.184 NA
ATOM     20  C   UNL     1      -2.625  -0.044  24.780  0.00  0.00    +0.344 C 
ATOM     21  O   UNL     1      -3.371  -0.010  25.130  0.00  0.00    -0.249 OA
ATOM     22  N   UNL     1      -2.333  -0.764  24.501  0.00  0.00    -0.161 NA
BRANCH  22  23
ATOM     23  C   UNL     1      -2.788  -1.449  24.573  0.00  0.00    +0.076 A 
ATOM     24  C   UNL     1      -3.377  -1.612  24.018  0.00  0.00    +0.028 A 
ATOM     25  C   UNL     1      -3.832  -2.296  24.089  0.00  0.00    +0.059 A 
ATOM     26 CL   UNL     1      -4.421  -2.459  23.534  0.00  0.00    -0.082 Cl
ATOM     27  C   UNL     1      -3.698  -2.817  24.713  0.00  0.00    +0.011 A 
ATOM     28  C   UNL     1      -3.110  -2.655  25.268  0.00  0.00    +0.002 A 
ATOM     29  C   UNL     1      -2.654  -1.970  25.197  0.00  0.00    +0.017 A 
ENDBRANCH  22  23
ENDBRANCH  18  19
ENDBRANCH  17  18
TORSDOF 7
ENDMDL
MODEL 4
REMARK VINA RESULT:      -9.9      2.642      5.916
REMARK  Name = 
REMARK  7 active torsions:
REMARK  status: ('A' for Active; 'I' for Inactive)
REMARK    1  A    between atoms: N_2  and  C_3
REMARK    2  A    between atoms: N_2  and  C_10
REMARK    3  A    between atoms: C_3  and  C_4
REMARK    4  A    between atoms: C_13  and  C_14
REMARK    5  A    between atoms: C_17  and  C_18
REMARK    6  A    between atoms: C_18  and  N_19
REMARK    7  A    between atoms: N_22  and  C_23
REMARK                            x       y       z     vdW  Elec       q    Type
REMARK                         _______ _______ _______ _____ _____    ______ ____
ROOT
ATOM     10  C   UNL     1      -0.667  -0.344  24.314  0.00  0.00    +0.120 C 
ATOM     11  C   UNL     1      -0.025  -0.569  23.846  0.00  0.00    +0.198 C 
ATOM     12  O   UNL     1       0.181  -1.342  23.648  0.00  0.00    -0.219 OA
ATOM     13  C   UNL     1       0.372   0.115  23.612  0.00  0.00    +0.180 C 
ATOM     16  O   UNL     1      -0.023   0.763  23.936  0.00  0.00    -0.350 OA
ATOM     17  C   UNL     1      -0.665   0.480  24.369  0.00  0.00    +0.154 C 
ENDROOT
BRANCH  10   2
ATOM      1  C   UNL     1      -1.056  -1.180  25.406  0.00  0.00    +0.090 C 
ATOM      2  N   UNL     1      -1.214  -0.851  24.666  0.00  0.00    -0.265 NA
BRANCH   2   3
ATOM      3  C   UNL     1      -1.919  -1.031  24.276  0.00  0.00    +0.099 C 
BRANCH   3   4
ATOM      4  C   UNL     1      -2.436  -1.587  24.597  0.00  0.00    -0.006 A 
ATOM      5  C   UNL     1      -2.977  -1.361  25.177  0.00  0.00    -0.003 A 
ATOM      6  C   UNL     1      -3.495  -1.918  25.497  0.00  0.00    -0.000 A 
ATOM      7  C   UNL     1      -3.471  -2.700  25.238  0.00  0.00    -0.000 A 
ATOM      8  C   UNL     1      -2.930  -2.926  24.658  0.00  0.00    -0.000 A 
ATOM      9  C   UNL     1      -2.412  -2.370  24.337  0.00  0.00    -0.003 A 
ENDBRANCH   3   4
ENDBRANCH   2   3
ENDBRANCH  10   2
BRANCH  13  14
ATOM     14  C   UNL     1       1.047   0.145  23.138  0.00  0.00    +0.214 C 
ATOM     15  O   UNL     1       1.555   0.793  23.185  0.00  0.00    -0.218 OA
ENDBRANCH  13  14
BRANCH  17  18
ATOM     18  C   UNL     1      -1.210   0.940  24.786  0.00  0.00    +0.148 C 
BRANCH  18  19
ATOM     19  N   UNL     1      -1.386   1.703  24.529  0.00  0.00    -0.184 NA
ATOM     20  C   UNL     1      -1.906   2.174  24.963  0.00  0.00    +0.344 C 
ATOM     21  O   UNL     1      -2.249   1.881  25.652  0.00  0.00    -0.249 OA
ATOM     22  N   UNL     1      -2.083   2.938  24.706  0.00  0.00    -0.161 NA
BRANCH  22  23
ATOM     23  C   UNL     1      -2.603   3.409  25.140  0.00  0.00    +0.076 A 
ATOM     24  C   UNL     1      -3.413   3.380  24.983  0.00  0.00    +0.028 A 
ATOM     25  C   UNL     1      -3.933   3.851  25.417  0.00  0.00    +0.059 A 
ATOM     26 CL   UNL     1      -4.743   3.822  25.261  0.00  0.00    -0.082 Cl
ATOM     27  C   UNL     1      -3.645   4.349  26.007  0.00  0.00    +0.011 A 
ATOM     28  C   UNL     1      -2.835   4.378  26.164  0.00  0.00    +0.002 A 
ATOM     29  C   UNL     1      -2.314   3.907  25.729  0.00  0.00    +0.017 A 
ENDBRANCH  22  23
ENDBRANCH  18  19
ENDBRANCH  17  18
TORSDOF 7
ENDMDL
MODEL 5
REMARK VINA RESULT:      -9.7      2.361      3.821
REMARK  Name = 
REMARK  7 active torsions:
REMARK  status: ('A' for Active; 'I' for Inactive)
REMARK    1  A    between atoms: N_2  and  C_3
REMARK    2  A    between atoms: N_2  and  C_10
REMARK    3  A    between atoms: C_3  and  C_4
REMARK    4  A    between atoms: C_13  and  C_14
REMARK    5  A    between atoms: C_17  and  C_18
REMARK    6  A    between atoms: C_18  and  N_19
REMARK    7  A    between atoms: N_22  and  C_23
REMARK                            x       y       z     vdW  Elec       q    Type
REMARK                         _______ _______ _______ _____ _____    ______ ____
ROOT
ATOM     10  C   UNL     1      -0.067   1.688  24.477  0.00  0.00    +0.120 C 
ATOM     11  C   UNL     1       0.663   1.853  24.129  0.00  0.00    +0.198 C 
ATOM     12  O   UNL     1       1.057   2.577  24.152  0.00  0.00    -0.219 OA
ATOM     13  C   UNL     1       0.928   1.167  23.755  0.00  0.00    +0.180 C 
ATOM     16  O   UNL     1       0.363   0.578  23.872  0.00  0.00    -0.350 OA
ATOM     17  C   UNL     1      -0.252   0.899  24.318  0.00  0.00    +0.154 C 
ENDROOT
BRANCH  10   2
ATOM      1  C   UNL     1      -0.439   2.275  25.726  0.00  0.00    +0.090 C 
ATOM      2  N   UNL     1      -0.531   2.217  24.908  0.00  0.00    -0.265 NA
BRANCH   2   3
ATOM      3  C   UNL     1      -1.086   2.688  24.520  0.00  0.00    +0.099 C 
BRANCH   3   4
ATOM      4  C   UNL     1      -1.436   3.321  24.915  0.00  0.00    -0.006 A 
ATOM      5  C   UNL     1      -1.107   4.075  24.860  0.00  0.00    -0.003 A 
ATOM      6  C   UNL     1      -1.457   4.709  25.256  0.00  0.00    -0.000 A 
ATOM      7  C   UNL     1      -2.137   4.588  25.706  0.00  0.00    -0.000 A 
ATOM      8  C   UNL     1      -2.467   3.834  25.761  0.00  0.00    -0.000 A 
ATOM      9  C   UNL     1      -2.117   3.200  25.366  0.00  0.00    -0.003 A 
ENDBRANCH   3   4
ENDBRANCH   2   3
ENDBRANCH  10   2
BRANCH  13  14
ATOM     14  C   UNL     1       1.636   1.085  23.338  0.00  0.00    +0.214 C 
ATOM     15  O   UNL     1       1.787   0.393  22.915  0.00  0.00    -0.218 OA
ENDBRANCH  13  14
BRANCH  17  18
ATOM     18  C   UNL     1      -0.934   0.502  24.562  0.00  0.00    +0.148 C 
BRANCH  18  19
ATOM     19  N   UNL     1      -1.031  -0.297  24.383  0.00  0.00    -0.184 NA
ATOM     20  C   UNL     1      -1.743  -0.674  24.560  0.00  0.00    +0.344 C 
ATOM     21  O   UNL     1      -2.356  -0.254  24.915  0.00  0.00    -0.249 OA
ATOM     22  N   UNL     1      -1.841  -1.475  24.381  0.00  0.00    -0.161 NA
BRANCH  22  23
ATOM     23  C   UNL     1      -2.552  -1.852  24.558  0.00  0.00    +0.076 A 
ATOM     24  C   UNL     1      -3.164  -1.861  24.003  0.00  0.00    +0.028 A 
ATOM     25  C   UNL     1      -3.875  -2.238  24.180  0.00  0.00    +0.059 A 
ATOM     26 CL   UNL     1      -4.487  -2.246  23.625  0.00  0.00    -0.082 Cl
ATOM     27  C   UNL     1      -3.977  -2.606  24.910  0.00  0.00    +0.011 A 
ATOM     28  C   UNL     1      -3.366  -2.598  25.465  0.00  0.00    +0.002 A 
ATOM     29  C   UNL     1      -2.654  -2.220  25.288  0.00  0.00    +0.017 A 
ENDBRANCH  22  23
ENDBRANCH  18  19
ENDBRANCH  17  18
TORSDOF 7
ENDMDL
