MODEL 1
REMARK VINA RESULT:     -13.7      0.000      0.000
REMARK  Name = 
REMARK  3 active torsions:
REMARK  status: ('A' for Active; 'I' for Inactive)
REMARK    1  A    between atoms: O_2  and  C_3
REMARK    2  A    between atoms: C_4  and  C_10
REMARK    3  A    between atoms: C_25  and  C_27
REMARK                            x       y       z     vdW  Elec       q    Type
REMARK                         _______ _______ _______ _____ _____    ______ ____
ROOT
ATOM     10  C   UNL     1      -4.079  -0.238  24.817  0.00  0.00    +0.003 A 
ATOM     11  C   UNL     1      -3.442   0.283  24.756  0.00  0.00    +0.006 A 
ATOM     12  C   UNL     1      -3.555   1.090  24.891  0.00  0.00    +0.069 A 
ATOM     13  C   UNL     1      -4.304   1.374  25.086  0.00  0.00    +0.078 A 
ATOM     14  N   UNL     1      -4.535   2.151  25.242  0.00  0.00    -0.178 NA
ATOM     15  C   UNL     1      -4.073   2.835  25.240  0.00  0.00    +0.265 C 
ATOM     16  O   UNL     1      -4.470   3.535  25.419  0.00  0.00    -0.271 OA
ATOM     17  C   UNL     1      -3.267   2.910  25.083  0.00  0.00    +0.174 C 
ATOM     18  C   UNL     1      -3.021   3.696  25.140  0.00  0.00    +0.123 C 
ATOM     19  N   UNL     1      -2.232   3.892  25.003  0.00  0.00    -0.276 N 
ATOM     20  C   UNL     1      -1.688   3.304  24.809  0.00  0.00    +0.115 C 
ATOM     21  C   UNL     1      -1.934   2.517  24.751  0.00  0.00    +0.116 C 
ATOM     22  N   UNL     1      -2.723   2.322  24.888  0.00  0.00    -0.266 N 
ATOM     23  C   UNL     1      -2.852   1.511  24.803  0.00  0.00    +0.251 C 
ATOM     24  O   UNL     1      -2.188   1.063  24.603  0.00  0.00    -0.270 OA
ATOM     25  C   UNL     1      -1.986   4.678  25.060  0.00  0.00    +0.225 C 
ATOM     26  O   UNL     1      -2.531   5.267  25.255  0.00  0.00    -0.275 OA
ATOM     30  C   UNL     1      -4.941   0.852  25.147  0.00  0.00    +0.017 A 
ATOM     31  C   UNL     1      -4.828   0.046  25.012  0.00  0.00    +0.001 A 
ENDROOT
BRANCH  10   4
ATOM      3  C   UNL     1      -3.635  -1.518  25.270  0.00  0.00    +0.139 A 
ATOM      4  C   UNL     1      -3.966  -1.044  24.682  0.00  0.00    +0.035 A 
ATOM      5  C   UNL     1      -4.186  -1.376  23.959  0.00  0.00    +0.014 A 
ATOM      6  C   UNL     1      -4.073  -2.182  23.824  0.00  0.00    +0.058 A 
ATOM      7 CL   UNL     1      -4.292  -2.513  23.101  0.00  0.00    -0.082 Cl
ATOM      8  C   UNL     1      -3.742  -2.656  24.411  0.00  0.00    +0.015 A 
ATOM      9  C   UNL     1      -3.522  -2.324  25.135  0.00  0.00    +0.038 A 
BRANCH   3   2
ATOM      1  C   UNL     1      -3.090  -1.662  26.583  0.00  0.00    +0.252 C 
ATOM      2  O   UNL     1      -3.415  -1.187  25.993  0.00  0.00    -0.471 OA
ENDBRANCH   3   2
ENDBRANCH  10   4
BRANCH  25  27
ATOM     27  C   UNL     1      -1.198   4.874  24.923  0.00  0.00    +0.077 C 
ATOM     28  C   UNL     1      -0.632   5.392  24.616  0.00  0.00    +0.010 C 
ATOM     29  C   UNL     1      -0.395   4.698  24.992  0.00  0.00    +0.010 C 
ENDBRANCH  25  27
TORSDOF 3
ENDMDL
MODEL 2
REMARK VINA RESULT:     -13.0      2.187      5.643
REMARK  Name = 
REMARK  3 active torsions:
REMARK  status: ('A' for Active; 'I' for Inactive)
REMARK    1  A    between atoms: O_2  and  C_3
REMARK    2  A    between atoms: C_4  and  C_10
REMARK    3  A    between atoms: C_25  and  C_27
REMARK                            x       y       z     vdW  Elec       q    Type
REMARK                         _______ _______ _______ _____ _____    ______ ____
ROOT
ATOM     10  C   UNL     1      -1.211   2.898  25.406  0.00  0.00    +0.003 A 
ATOM     11  C   UNL     1      -1.754   2.375  25.071  0.00  0.00    +0.006 A 
ATOM     12  C   UNL     1      -1.677   1.563  25.200  0.00  0.00    +0.069 A 
ATOM     13  C   UNL     1      -1.058   1.276  25.664  0.00  0.00    +0.078 A 
ATOM     14  N   UNL     1      -0.883   0.494  25.860  0.00  0.00    -0.178 NA
ATOM     15  C   UNL     1      -1.283  -0.194  25.641  0.00  0.00    +0.265 C 
ATOM     16  O   UNL     1      -0.968  -0.899  25.930  0.00  0.00    -0.271 OA
ATOM     17  C   UNL     1      -1.957  -0.269  25.172  0.00  0.00    +0.174 C 
ATOM     18  C   UNL     1      -2.180  -1.059  25.088  0.00  0.00    +0.123 C 
ATOM     19  N   UNL     1      -2.842  -1.255  24.638  0.00  0.00    -0.276 N 
ATOM     20  C   UNL     1      -3.283  -0.662  24.272  0.00  0.00    +0.115 C 
ATOM     21  C   UNL     1      -3.061   0.129  24.355  0.00  0.00    +0.116 C 
ATOM     22  N   UNL     1      -2.398   0.324  24.806  0.00  0.00    -0.266 N 
ATOM     23  C   UNL     1      -2.273   1.140  24.818  0.00  0.00    +0.251 C 
ATOM     24  O   UNL     1      -2.816   1.592  24.393  0.00  0.00    -0.270 OA
ATOM     25  C   UNL     1      -3.065  -2.046  24.554  0.00  0.00    +0.225 C 
ATOM     26  O   UNL     1      -2.624  -2.639  24.921  0.00  0.00    -0.275 OA
ATOM     30  C   UNL     1      -0.516   1.800  25.999  0.00  0.00    +0.017 A 
ATOM     31  C   UNL     1      -0.592   2.611  25.870  0.00  0.00    +0.001 A 
ENDROOT
BRANCH  10   4
ATOM      3  C   UNL     1      -1.878   4.135  25.664  0.00  0.00    +0.139 A 
ATOM      4  C   UNL     1      -1.287   3.709  25.277  0.00  0.00    +0.035 A 
ATOM      5  C   UNL     1      -0.771   4.095  24.761  0.00  0.00    +0.014 A 
ATOM      6  C   UNL     1      -0.847   4.907  24.632  0.00  0.00    +0.058 A 
ATOM      7 CL   UNL     1      -0.331   5.292  24.117  0.00  0.00    -0.082 Cl
ATOM      8  C   UNL     1      -1.438   5.332  25.019  0.00  0.00    +0.015 A 
ATOM      9  C   UNL     1      -1.954   4.946  25.535  0.00  0.00    +0.038 A 
BRANCH   3   2
ATOM      1  C   UNL     1      -3.015   4.165  26.529  0.00  0.00    +0.252 C 
ATOM      2  O   UNL     1      -2.394   3.750  26.179  0.00  0.00    -0.471 OA
ENDBRANCH   3   2
ENDBRANCH  10   4
BRANCH  25  27
ATOM     27  C   UNL     1      -3.727  -2.242  24.104  0.00  0.00    +0.077 C 
ATOM     28  C   UNL     1      -4.080  -2.695  23.511  0.00  0.00    +0.010 C 
ATOM     29  C   UNL     1      -4.523  -2.130  23.916  0.00  0.00    +0.010 C 
ENDBRANCH  25  27
TORSDOF 3
ENDMDL
MODEL 3
REMARK VINA RESULT:     -11.5      1.396      2.173
REMARK  Name = 
REMARK  3 active torsions:
REMARK  status: ('A' for Active; 'I' for Inactive)
REMARK    1  A    between atoms: O_2  and  C_3
REMARK    2  A    between atoms: C_4  and  C_10
REMARK    3  A    between atoms: C_25  and  C_27
REMARK                            x       y       z     vdW  Elec       q    Type
REMARK                         _______ _______ _______ _____ _____    ______ ____
ROOT
ATOM     10  C   UNL     1      -2.244  -0.761  24.667  0.00  0.00    +0.003 A 
ATOM     11  C   UNL     1      -2.434   0.037  24.753  0.00  0.00    +0.006 A 
ATOM     12  C   UNL     1      -1.836   0.606  24.735  0.00  0.00    +0.069 A 
ATOM     13  C   UNL     1      -1.051   0.377  24.631  0.00  0.00    +0.078 A 
ATOM     14  N   UNL     1      -0.376   0.852  24.597  0.00  0.00    -0.178 NA
ATOM     15  C   UNL     1      -0.321   1.673  24.658  0.00  0.00    +0.265 C 
ATOM     16  O   UNL     1       0.440   1.986  24.601  0.00  0.00    -0.271 OA
ATOM     17  C   UNL     1      -0.927   2.221  24.768  0.00  0.00    +0.174 C 
ATOM     18  C   UNL     1      -0.633   2.992  24.799  0.00  0.00    +0.123 C 
ATOM     19  N   UNL     1      -1.150   3.626  24.907  0.00  0.00    -0.276 N 
ATOM     20  C   UNL     1      -1.959   3.491  24.983  0.00  0.00    +0.115 C 
ATOM     21  C   UNL     1      -2.254   2.720  24.952  0.00  0.00    +0.116 C 
ATOM     22  N   UNL     1      -1.737   2.086  24.845  0.00  0.00    -0.266 N 
ATOM     23  C   UNL     1      -2.142   1.367  24.830  0.00  0.00    +0.251 C 
ATOM     24  O   UNL     1      -2.960   1.415  24.922  0.00  0.00    -0.270 OA
ATOM     25  C   UNL     1      -0.856   4.397  24.938  0.00  0.00    +0.225 C 
ATOM     26  O   UNL     1      -0.045   4.532  24.861  0.00  0.00    -0.275 OA
ATOM     30  C   UNL     1      -0.862  -0.422  24.546  0.00  0.00    +0.017 A 
ATOM     31  C   UNL     1      -1.459  -0.991  24.564  0.00  0.00    +0.001 A 
ENDROOT
BRANCH  10   4
ATOM      3  C   UNL     1      -3.053  -1.684  25.400  0.00  0.00    +0.139 A 
ATOM      4  C   UNL     1      -2.841  -1.331  24.685  0.00  0.00    +0.035 A 
ATOM      5  C   UNL     1      -3.226  -1.547  23.987  0.00  0.00    +0.014 A 
ATOM      6  C   UNL     1      -3.823  -2.116  24.005  0.00  0.00    +0.058 A 
ATOM      7 CL   UNL     1      -4.207  -2.332  23.308  0.00  0.00    -0.082 Cl
ATOM      8  C   UNL     1      -4.035  -2.469  24.720  0.00  0.00    +0.015 A 
ATOM      9  C   UNL     1      -3.650  -2.253  25.418  0.00  0.00    +0.038 A 
BRANCH   3   2
ATOM      1  C   UNL     1      -2.977  -1.698  26.826  0.00  0.00    +0.252 C 
ATOM      2  O   UNL     1      -2.669  -1.468  26.097  0.00  0.00    -0.471 OA
ENDBRANCH   3   2
ENDBRANCH  10   4
BRANCH  25  27
ATOM     27  C   UNL     1      -1.372   5.031  25.045  0.00  0.00    +0.077 C 
ATOM     28  C   UNL     1      -1.644   5.778  24.821  0.00  0.00    +0.010 C 
ATOM     29  C   UNL     1      -1.996   5.384  25.454  0.00  0.00    +0.010 C 
ENDBRANCH  25  27
TORSDOF 3
ENDMDL
MODEL 4
REMARK VINA RESULT:     -11.3      1.968      5.311
REMARK  Name = 
REMARK  3 active torsions:
REMARK  status: ('A' for Active; 'I' for Inactive)
REMARK    1  A    between atoms: O_2  and  C_3
REMARK    2  A    between atoms: C_4  and  C_10
REMARK    3  A    between atoms: C_25  and  C_27
REMARK                            x       y       z     vdW  Elec       q    Type
REMARK                         _______ _______ _______ _____ _____    ______ ____
ROOT
ATOM     10  C   UNL     1      -2.811   3.205  24.801  0.00  0.00    +0.003 A 
ATOM     11  C   UNL     1      -2.570   2.418  24.854  0.00  0.00    +0.006 A 
ATOM     12  C   UNL     1      -3.106   1.812  24.693  0.00  0.00    +0.069 A 
ATOM     13  C   UNL     1      -3.882   1.993  24.480  0.00  0.00    +0.078 A 
ATOM     14  N   UNL     1      -4.499   1.475  24.298  0.00  0.00    -0.178 NA
ATOM     15  C   UNL     1      -4.492   0.650  24.284  0.00  0.00    +0.265 C 
ATOM     16  O   UNL     1      -5.204   0.290  24.079  0.00  0.00    -0.271 OA
ATOM     17  C   UNL     1      -3.866   0.139  24.449  0.00  0.00    +0.174 C 
ATOM     18  C   UNL     1      -4.094  -0.651  24.371  0.00  0.00    +0.123 C 
ATOM     19  N   UNL     1      -3.548  -1.253  24.511  0.00  0.00    -0.276 N 
ATOM     20  C   UNL     1      -2.775  -1.067  24.730  0.00  0.00    +0.115 C 
ATOM     21  C   UNL     1      -2.547  -0.277  24.809  0.00  0.00    +0.116 C 
ATOM     22  N   UNL     1      -3.093   0.325  24.668  0.00  0.00    -0.266 N 
ATOM     23  C   UNL     1      -2.755   1.070  24.777  0.00  0.00    +0.251 C 
ATOM     24  O   UNL     1      -1.960   1.073  24.998  0.00  0.00    -0.270 OA
ATOM     25  C   UNL     1      -3.776  -2.042  24.433  0.00  0.00    +0.225 C 
ATOM     26  O   UNL     1      -4.549  -2.228  24.213  0.00  0.00    -0.275 OA
ATOM     30  C   UNL     1      -4.122   2.780  24.428  0.00  0.00    +0.017 A 
ATOM     31  C   UNL     1      -3.587   3.386  24.588  0.00  0.00    +0.001 A 
ENDROOT
BRANCH  10   4
ATOM      3  C   UNL     1      -2.381   4.290  25.627  0.00  0.00    +0.139 A 
ATOM      4  C   UNL     1      -2.276   3.812  24.962  0.00  0.00    +0.035 A 
ATOM      5  C   UNL     1      -1.635   3.942  24.458  0.00  0.00    +0.014 A 
ATOM      6  C   UNL     1      -1.100   4.549  24.618  0.00  0.00    +0.058 A 
ATOM      7 CL   UNL     1      -0.460   4.678  24.114  0.00  0.00    -0.082 Cl
ATOM      8  C   UNL     1      -1.205   5.026  25.283  0.00  0.00    +0.015 A 
ATOM      9  C   UNL     1      -1.845   4.897  25.787  0.00  0.00    +0.038 A 
BRANCH   3   2
ATOM      1  C   UNL     1      -3.088   4.592  26.830  0.00  0.00    +0.252 C 
ATOM      2  O   UNL     1      -3.021   4.161  26.131  0.00  0.00    -0.471 OA
ENDBRANCH   3   2
ENDBRANCH  10   4
BRANCH  25  27
ATOM     27  C   UNL     1      -3.230  -2.644  24.574  0.00  0.00    +0.077 C 
ATOM     28  C   UNL     1      -2.919  -3.225  25.071  0.00  0.00    +0.010 C 
ATOM     29  C   UNL     1      -2.596  -3.108  24.322  0.00  0.00    +0.010 C 
ENDBRANCH  25  27
TORSDOF 3
ENDMDL
