MODEL 1
REMARK VINA RESULT:     -11.7      0.000      0.000
REMARK  Name = 
REMARK  8 active torsions:
REMARK  status: ('A' for Active; 'I' for Inactive)
REMARK    1  A    between atoms: O_2  and  C_3
REMARK    2  A    between atoms: C_3  and  C_4
REMARK    3  A    between atoms: C_13  and  C_15
REMARK    4  A    between atoms: C_23  and  C_24
REMARK    5  A    between atoms: C_24  and  C_25
REMARK    6  A    between atoms: N_27  and  C_28
REMARK    7  A    between atoms: C_28  and  C_29
REMARK    8  A    between atoms: C_29  and  N_30
REMARK                            x       y       z     vdW  Elec       q    Type
REMARK                         _______ _______ _______ _____ _____    ______ ____
ROOT
ATOM      4  C   UNL     1      -5.428   2.065  25.187  0.00  0.00    +0.277 C 
ATOM      5  O   UNL     1      -5.853   1.431  24.875  0.00  0.00    -0.270 OA
ATOM      6  N   UNL     1      -4.625   1.982  25.351  0.00  0.00    -0.152 NA
ATOM      7  C   UNL     1      -4.245   1.265  25.204  0.00  0.00    +0.185 A 
ATOM      8  N   UNL     1      -3.449   1.101  25.339  0.00  0.00    -0.227 NA
ATOM      9  C   UNL     1      -3.307   0.320  25.114  0.00  0.00    +0.063 A 
ATOM     10  C   UNL     1      -4.016   0.001  24.839  0.00  0.00    +0.023 A 
ATOM     11  C   UNL     1      -4.043  -0.779  24.574  0.00  0.00    +0.034 C 
ATOM     12  C   UNL     1      -3.359  -1.242  24.584  0.00  0.00    +0.010 C 
ATOM     13  C   UNL     1      -3.386  -2.022  24.318  0.00  0.00    +0.059 C 
ATOM     14  C   UNL     1      -4.173  -1.805  24.203  0.00  0.00    +0.005 C 
ATOM     17  C   UNL     1      -2.702  -2.485  24.328  0.00  0.00    +0.154 C 
ATOM     18  O   UNL     1      -2.728  -3.266  24.062  0.00  0.00    -0.223 OA
ATOM     19  C   UNL     1      -1.992  -2.166  24.603  0.00  0.00    +0.033 C 
ATOM     20  C   UNL     1      -1.966  -1.385  24.868  0.00  0.00    +0.003 C 
ATOM     21  C   UNL     1      -2.650  -0.923  24.858  0.00  0.00    +0.006 C 
ATOM     22  C   UNL     1      -1.941  -0.605  25.133  0.00  0.00    +0.000 C 
ATOM     23  C   UNL     1      -2.623  -0.143  25.123  0.00  0.00    +0.050 C 
ATOM     36  S   UNL     1      -4.596   0.586  24.895  0.00  0.00    -0.054 S 
ENDROOT
BRANCH  13  15
ATOM     15  C   UNL     1      -3.685  -2.727  24.013  0.00  0.00    +0.184 C 
ATOM     16  O   UNL     1      -4.469  -2.767  23.757  0.00  0.00    -0.220 OA
ENDBRANCH  13  15
BRANCH   4   3
ATOM      3  C   UNL     1      -5.808   2.783  25.335  0.00  0.00    +0.229 C 
BRANCH   3   2
ATOM      1  C   UNL     1      -5.750   4.199  25.514  0.00  0.00    +0.175 C 
ATOM      2  O   UNL     1      -5.381   3.487  25.321  0.00  0.00    -0.342 OA
ENDBRANCH   3   2
ENDBRANCH   4   3
BRANCH  23  24
ATOM     24  C   UNL     1      -1.914   0.176  25.398  0.00  0.00    +0.093 C 
BRANCH  24  25
ATOM     25  C   UNL     1      -1.591   0.841  25.033  0.00  0.00    +0.242 C 
ATOM     26  O   UNL     1      -1.531   0.871  24.210  0.00  0.00    -0.273 OA
ATOM     27  N   UNL     1      -1.327   1.476  25.489  0.00  0.00    -0.204 NA
BRANCH  27  28
ATOM     28  C   UNL     1      -1.004   2.141  25.123  0.00  0.00    +0.132 C 
BRANCH  28  29
ATOM     29  C   UNL     1      -0.724   2.768  25.580  0.00  0.00    +0.096 C 
BRANCH  29  30
ATOM     30  N   UNL     1      -0.900   3.545  25.367  0.00  0.00    -0.267 NA
ATOM     31  C   UNL     1      -1.590   3.903  25.644  0.00  0.00    +0.105 C 
ATOM     32  C   UNL     1      -1.766   4.680  25.431  0.00  0.00    +0.159 C 
ATOM     33  O   UNL     1      -1.252   5.100  24.940  0.00  0.00    -0.351 OA
ATOM     34  C   UNL     1      -0.562   4.743  24.663  0.00  0.00    +0.159 C 
ATOM     35  C   UNL     1      -0.385   3.965  24.876  0.00  0.00    +0.105 C 
ENDBRANCH  29  30
ENDBRANCH  28  29
ENDBRANCH  27  28
ENDBRANCH  24  25
ENDBRANCH  23  24
TORSDOF 8
ENDMDL
MODEL 2
REMARK VINA RESULT:     -11.3      1.987      6.022
REMARK  Name = 
REMARK  8 active torsions:
REMARK  status: ('A' for Active; 'I' for Inactive)
REMARK    1  A    between atoms: O_2  and  C_3
REMARK    2  A    between atoms: C_3  and  C_4
REMARK    3  A    between atoms: C_13  and  C_15
REMARK    4  A    between atoms: C_23  and  C_24
REMARK    5  A    between atoms: C_24  and  C_25
REMARK    6  A    between atoms: N_27  and  C_28
REMARK    7  A    between atoms: C_28  and  C_29
REMARK    8  A    between atoms: C_29  and  N_30
REMARK                            x       y       z     vdW  Elec       q    Type
REMARK                         _______ _______ _______ _____ _____    ______ ____
ROOT
ATOM      4  C   UNL     1       0.737   0.678  23.423  0.00  0.00    +0.277 C 
ATOM      5  O   UNL     1       1.095   1.370  23.694  0.00  0.00    -0.270 OA
ATOM      6  N   UNL     1      -0.082   0.598  23.453  0.00  0.00    -0.152 NA
ATOM      7  C   UNL     1      -0.546   1.210  23.755  0.00  0.00    +0.185 A 
ATOM      8  N   UNL     1      -1.368   1.209  23.820  0.00  0.00    -0.227 NA
ATOM      9  C   UNL     1      -1.599   1.929  24.150  0.00  0.00    +0.063 A 
ATOM     10  C   UNL     1      -0.919   2.375  24.289  0.00  0.00    +0.023 A 
ATOM     11  C   UNL     1      -0.980   3.128  24.619  0.00  0.00    +0.034 C 
ATOM     12  C   UNL     1      -1.722   3.436  24.811  0.00  0.00    +0.010 C 
ATOM     13  C   UNL     1      -1.783   4.189  25.142  0.00  0.00    +0.059 C 
ATOM     14  C   UNL     1      -0.964   4.137  25.054  0.00  0.00    +0.005 C 
ATOM     17  C   UNL     1      -2.524   4.497  25.333  0.00  0.00    +0.154 C 
ATOM     18  O   UNL     1      -2.586   5.251  25.664  0.00  0.00    -0.223 OA
ATOM     19  C   UNL     1      -3.205   4.050  25.194  0.00  0.00    +0.033 C 
ATOM     20  C   UNL     1      -3.143   3.297  24.864  0.00  0.00    +0.003 C 
ATOM     21  C   UNL     1      -2.402   2.990  24.672  0.00  0.00    +0.006 C 
ATOM     22  C   UNL     1      -3.081   2.544  24.533  0.00  0.00    +0.000 C 
ATOM     23  C   UNL     1      -2.341   2.237  24.342  0.00  0.00    +0.050 C 
ATOM     36  S   UNL     1      -0.269   1.930  24.044  0.00  0.00    -0.054 S 
ENDROOT
BRANCH  13  15
ATOM     15  C   UNL     1      -1.560   4.924  25.442  0.00  0.00    +0.184 C 
ATOM     16  O   UNL     1      -0.913   5.323  25.120  0.00  0.00    -0.220 OA
ENDBRANCH  13  15
BRANCH   4   3
ATOM      3  C   UNL     1       1.201   0.065  23.121  0.00  0.00    +0.229 C 
BRANCH   3   2
ATOM      1  C   UNL     1       2.324  -0.363  22.349  0.00  0.00    +0.175 C 
ATOM      2  O   UNL     1       1.911   0.236  22.737  0.00  0.00    -0.342 OA
ENDBRANCH   3   2
ENDBRANCH   4   3
BRANCH  23  24
ATOM     24  C   UNL     1      -3.020   1.790  24.202  0.00  0.00    +0.093 C 
BRANCH  24  25
ATOM     25  C   UNL     1      -3.152   1.096  24.626  0.00  0.00    +0.242 C 
ATOM     26  O   UNL     1      -2.906   1.039  25.413  0.00  0.00    -0.273 OA
ATOM     27  N   UNL     1      -3.530   0.457  24.266  0.00  0.00    -0.204 NA
BRANCH  27  28
ATOM     28  C   UNL     1      -3.662  -0.238  24.690  0.00  0.00    +0.132 C 
BRANCH  28  29
ATOM     29  C   UNL     1      -4.189  -0.803  24.403  0.00  0.00    +0.096 C 
BRANCH  29  30
ATOM     30  N   UNL     1      -3.998  -1.604  24.442  0.00  0.00    -0.267 NA
ATOM     31  C   UNL     1      -3.608  -1.904  25.105  0.00  0.00    +0.105 C 
ATOM     32  C   UNL     1      -3.417  -2.705  25.144  0.00  0.00    +0.159 C 
ATOM     33  O   UNL     1      -3.616  -3.208  24.520  0.00  0.00    -0.351 OA
ATOM     34  C   UNL     1      -4.005  -2.909  23.858  0.00  0.00    +0.159 C 
ATOM     35  C   UNL     1      -4.197  -2.108  23.818  0.00  0.00    +0.105 C 
ENDBRANCH  29  30
ENDBRANCH  28  29
ENDBRANCH  27  28
ENDBRANCH  24  25
ENDBRANCH  23  24
TORSDOF 8
ENDMDL
MODEL 3
REMARK VINA RESULT:     -10.9      2.015      3.813
REMARK  Name = 
REMARK  8 active torsions:
REMARK  status: ('A' for Active; 'I' for Inactive)
REMARK    1  A    between atoms: O_2  and  C_3
REMARK    2  A    between atoms: C_3  and  C_4
REMARK    3  A    between atoms: C_13  and  C_15
REMARK    4  A    between atoms: C_23  and  C_24
REMARK    5  A    between atoms: C_24  and  C_25
REMARK    6  A    between atoms: N_27  and  C_28
REMARK    7  A    between atoms: C_28  and  C_29
REMARK    8  A    between atoms: C_29  and  N_30
REMARK                            x       y       z     vdW  Elec       q    Type
REMARK                         _______ _______ _______ _____ _____    ______ ____
ROOT
ATOM      4  C   UNL     1       1.242   0.041  23.058  0.00  0.00    +0.277 C 
ATOM      5  O   UNL     1       1.009  -0.699  22.777  0.00  0.00    -0.270 OA
ATOM      6  N   UNL     1       0.802   0.415  23.646  0.00  0.00    -0.152 NA
ATOM      7  C   UNL     1       0.129   0.051  23.954  0.00  0.00    +0.185 A 
ATOM      8  N   UNL     1      -0.362   0.357  24.541  0.00  0.00    -0.227 NA
ATOM      9  C   UNL     1      -0.965  -0.189  24.679  0.00  0.00    +0.063 A 
ATOM     10  C   UNL     1      -0.846  -0.832  24.177  0.00  0.00    +0.023 A 
ATOM     11  C   UNL     1      -1.369  -1.469  24.193  0.00  0.00    +0.034 C 
ATOM     12  C   UNL     1      -2.012  -1.463  24.711  0.00  0.00    +0.010 C 
ATOM     13  C   UNL     1      -2.535  -2.102  24.727  0.00  0.00    +0.059 C 
ATOM     14  C   UNL     1      -2.011  -2.360  24.144  0.00  0.00    +0.005 C 
ATOM     17  C   UNL     1      -3.177  -2.096  25.244  0.00  0.00    +0.154 C 
ATOM     18  O   UNL     1      -3.701  -2.734  25.260  0.00  0.00    -0.223 OA
ATOM     19  C   UNL     1      -3.296  -1.451  25.747  0.00  0.00    +0.033 C 
ATOM     20  C   UNL     1      -2.773  -0.814  25.731  0.00  0.00    +0.003 C 
ATOM     21  C   UNL     1      -2.131  -0.820  25.213  0.00  0.00    +0.006 C 
ATOM     22  C   UNL     1      -2.250  -0.177  25.714  0.00  0.00    +0.000 C 
ATOM     23  C   UNL     1      -1.608  -0.183  25.197  0.00  0.00    +0.050 C 
ATOM     36  S   UNL     1      -0.169  -0.684  23.729  0.00  0.00    -0.054 S 
ENDROOT
BRANCH  13  15
ATOM     15  C   UNL     1      -2.876  -2.829  24.540  0.00  0.00    +0.184 C 
ATOM     16  O   UNL     1      -2.665  -3.217  23.843  0.00  0.00    -0.220 OA
ENDBRANCH  13  15
BRANCH   4   3
ATOM      3  C   UNL     1       1.915   0.405  22.749  0.00  0.00    +0.229 C 
BRANCH   3   2
ATOM      1  C   UNL     1       3.296   0.331  22.392  0.00  0.00    +0.175 C 
ATOM      2  O   UNL     1       2.585  -0.043  22.576  0.00  0.00    -0.342 OA
ENDBRANCH   3   2
ENDBRANCH   4   3
BRANCH  23  24
ATOM     24  C   UNL     1      -1.727   0.461  25.699  0.00  0.00    +0.093 C 
BRANCH  24  25
ATOM     25  C   UNL     1      -1.879   1.208  25.384  0.00  0.00    +0.242 C 
ATOM     26  O   UNL     1      -2.362   1.285  24.718  0.00  0.00    -0.273 OA
ATOM     27  N   UNL     1      -1.548   1.879  25.733  0.00  0.00    -0.204 NA
BRANCH  27  28
ATOM     28  C   UNL     1      -1.700   2.625  25.418  0.00  0.00    +0.132 C 
BRANCH  28  29
ATOM     29  C   UNL     1      -1.567   3.301  25.873  0.00  0.00    +0.096 C 
BRANCH  29  30
ATOM     30  N   UNL     1      -1.464   4.032  25.506  0.00  0.00    -0.267 NA
ATOM     31  C   UNL     1      -0.763   4.199  25.106  0.00  0.00    +0.105 C 
ATOM     32  C   UNL     1      -0.660   4.930  24.739  0.00  0.00    +0.159 C 
ATOM     33  O   UNL     1      -1.260   5.496  24.773  0.00  0.00    -0.351 OA
ATOM     34  C   UNL     1      -1.962   5.330  25.173  0.00  0.00    +0.159 C 
ATOM     35  C   UNL     1      -2.065   4.598  25.540  0.00  0.00    +0.105 C 
ENDBRANCH  29  30
ENDBRANCH  28  29
ENDBRANCH  27  28
ENDBRANCH  24  25
ENDBRANCH  23  24
TORSDOF 8
ENDMDL
MODEL 4
REMARK VINA RESULT:     -10.7      2.240      4.668
REMARK  Name = 
REMARK  8 active torsions:
REMARK  status: ('A' for Active; 'I' for Inactive)
REMARK    1  A    between atoms: O_2  and  C_3
REMARK    2  A    between atoms: C_3  and  C_4
REMARK    3  A    between atoms: C_13  and  C_15
REMARK    4  A    between atoms: C_23  and  C_24
REMARK    5  A    between atoms: C_24  and  C_25
REMARK    6  A    between atoms: N_27  and  C_28
REMARK    7  A    between atoms: C_28  and  C_29
REMARK    8  A    between atoms: C_29  and  N_30
REMARK                            x       y       z     vdW  Elec       q    Type
REMARK                         _______ _______ _______ _____ _____    ______ ____
ROOT
ATOM      4  C   UNL     1      -3.920  -1.012  24.150  0.00  0.00    +0.277 C 
ATOM      5  O   UNL     1      -4.564  -0.509  24.264  0.00  0.00    -0.270 OA
ATOM      6  N   UNL     1      -3.153  -0.731  24.265  0.00  0.00    -0.152 NA
ATOM      7  C   UNL     1      -3.030   0.052  24.495  0.00  0.00    +0.185 A 
ATOM      8  N   UNL     1      -2.299   0.408  24.630  0.00  0.00    -0.227 NA
ATOM      9  C   UNL     1      -2.434   1.192  24.849  0.00  0.00    +0.063 A 
ATOM     10  C   UNL     1      -3.248   1.320  24.848  0.00  0.00    +0.023 A 
ATOM     11  C   UNL     1      -3.549   2.061  25.047  0.00  0.00    +0.034 C 
ATOM     12  C   UNL     1      -3.035   2.676  25.247  0.00  0.00    +0.010 C 
ATOM     13  C   UNL     1      -3.337   3.418  25.445  0.00  0.00    +0.059 C 
ATOM     14  C   UNL     1      -4.040   3.013  25.297  0.00  0.00    +0.005 C 
ATOM     17  C   UNL     1      -2.823   4.032  25.645  0.00  0.00    +0.154 C 
ATOM     18  O   UNL     1      -3.124   4.774  25.844  0.00  0.00    -0.223 OA
ATOM     19  C   UNL     1      -2.007   3.904  25.645  0.00  0.00    +0.033 C 
ATOM     20  C   UNL     1      -1.707   3.162  25.446  0.00  0.00    +0.003 C 
ATOM     21  C   UNL     1      -2.221   2.548  25.247  0.00  0.00    +0.006 C 
ATOM     22  C   UNL     1      -1.406   2.420  25.248  0.00  0.00    +0.000 C 
ATOM     23  C   UNL     1      -1.920   1.807  25.048  0.00  0.00    +0.050 C 
ATOM     36  S   UNL     1      -3.617   0.615  24.629  0.00  0.00    -0.054 S 
ENDROOT
BRANCH  13  15
ATOM     15  C   UNL     1      -3.882   4.019  25.593  0.00  0.00    +0.184 C 
ATOM     16  O   UNL     1      -4.691   3.860  25.559  0.00  0.00    -0.220 OA
ENDBRANCH  13  15
BRANCH   4   3
ATOM      3  C   UNL     1      -4.043  -1.794  23.920  0.00  0.00    +0.229 C 
BRANCH   3   2
ATOM      1  C   UNL     1      -3.891  -3.184  24.216  0.00  0.00    +0.175 C 
ATOM      2  O   UNL     1      -3.970  -2.403  24.471  0.00  0.00    -0.342 OA
ENDBRANCH   3   2
ENDBRANCH   4   3
BRANCH  23  24
ATOM     24  C   UNL     1      -1.104   1.678  25.049  0.00  0.00    +0.093 C 
BRANCH  24  25
ATOM     25  C   UNL     1      -0.713   1.506  24.344  0.00  0.00    +0.242 C 
ATOM     26  O   UNL     1      -0.930   1.893  23.647  0.00  0.00    -0.273 OA
ATOM     27  N   UNL     1      -0.105   0.949  24.334  0.00  0.00    -0.204 NA
BRANCH  27  28
ATOM     28  C   UNL     1       0.286   0.777  23.629  0.00  0.00    +0.132 C 
BRANCH  28  29
ATOM     29  C   UNL     1       0.760   0.104  23.572  0.00  0.00    +0.096 C 
BRANCH  29  30
ATOM     30  N   UNL     1       1.338   0.054  22.987  0.00  0.00    -0.267 NA
ATOM     31  C   UNL     1       2.092   0.361  23.123  0.00  0.00    +0.105 C 
ATOM     32  C   UNL     1       2.670   0.311  22.537  0.00  0.00    +0.159 C 
ATOM     33  O   UNL     1       2.495  -0.047  21.814  0.00  0.00    -0.351 OA
ATOM     34  C   UNL     1       1.743  -0.354  21.677  0.00  0.00    +0.159 C 
ATOM     35  C   UNL     1       1.163  -0.304  22.263  0.00  0.00    +0.105 C 
ENDBRANCH  29  30
ENDBRANCH  28  29
ENDBRANCH  27  28
ENDBRANCH  24  25
ENDBRANCH  23  24
TORSDOF 8
ENDMDL
MODEL 5
REMARK VINA RESULT:     -10.6      1.331      3.189
REMARK  Name = 
REMARK  8 active torsions:
REMARK  status: ('A' for Active; 'I' for Inactive)
REMARK    1  A    between atoms: O_2  and  C_3
REMARK    2  A    between atoms: C_3  and  C_4
REMARK    3  A    between atoms: C_13  and  C_15
REMARK    4  A    between atoms: C_23  and  C_24
REMARK    5  A    between atoms: C_24  and  C_25
REMARK    6  A    between atoms: N_27  and  C_28
REMARK    7  A    between atoms: C_28  and  C_29
REMARK    8  A    between atoms: C_29  and  N_30
REMARK                            x       y       z     vdW  Elec       q    Type
REMARK                         _______ _______ _______ _____ _____    ______ ____
ROOT
ATOM      4  C   UNL     1      -0.410   1.426  25.017  0.00  0.00    +0.277 C 
ATOM      5  O   UNL     1      -0.100   0.667  25.115  0.00  0.00    -0.270 OA
ATOM      6  N   UNL     1      -1.200   1.524  24.806  0.00  0.00    -0.152 NA
ATOM      7  C   UNL     1      -1.683   0.864  24.693  0.00  0.00    +0.185 A 
ATOM      8  N   UNL     1      -2.480   0.877  24.483  0.00  0.00    -0.227 NA
ATOM      9  C   UNL     1      -2.742   0.096  24.431  0.00  0.00    +0.063 A 
ATOM     10  C   UNL     1      -2.107  -0.398  24.610  0.00  0.00    +0.023 A 
ATOM     11  C   UNL     1      -2.207  -1.217  24.602  0.00  0.00    +0.034 C 
ATOM     12  C   UNL     1      -2.943  -1.541  24.415  0.00  0.00    +0.010 C 
ATOM     13  C   UNL     1      -3.042  -2.360  24.407  0.00  0.00    +0.059 C 
ATOM     14  C   UNL     1      -2.246  -2.315  24.616  0.00  0.00    +0.005 C 
ATOM     17  C   UNL     1      -3.778  -2.684  24.220  0.00  0.00    +0.154 C 
ATOM     18  O   UNL     1      -3.878  -3.504  24.212  0.00  0.00    -0.223 OA
ATOM     19  C   UNL     1      -4.414  -2.189  24.041  0.00  0.00    +0.033 C 
ATOM     20  C   UNL     1      -4.313  -1.371  24.050  0.00  0.00    +0.003 C 
ATOM     21  C   UNL     1      -3.578  -1.047  24.236  0.00  0.00    +0.006 C 
ATOM     22  C   UNL     1      -4.213  -0.552  24.058  0.00  0.00    +0.000 C 
ATOM     23  C   UNL     1      -3.479  -0.228  24.244  0.00  0.00    +0.050 C 
ATOM     36  S   UNL     1      -1.453   0.077  24.772  0.00  0.00    -0.054 S 
ENDROOT
BRANCH  13  15
ATOM     15  C   UNL     1      -2.865  -3.163  24.472  0.00  0.00    +0.184 C 
ATOM     16  O   UNL     1      -2.081  -3.409  24.547  0.00  0.00    -0.220 OA
ENDBRANCH  13  15
BRANCH   4   3
ATOM      3  C   UNL     1       0.073   2.085  25.129  0.00  0.00    +0.229 C 
BRANCH   3   2
ATOM      1  C   UNL     1       0.360   3.047  26.147  0.00  0.00    +0.175 C 
ATOM      2  O   UNL     1       0.357   2.266  25.882  0.00  0.00    -0.342 OA
ENDBRANCH   3   2
ENDBRANCH   4   3
BRANCH  23  24
ATOM     24  C   UNL     1      -4.114   0.267  24.066  0.00  0.00    +0.093 C 
BRANCH  24  25
ATOM     25  C   UNL     1      -4.397   0.796  24.631  0.00  0.00    +0.242 C 
ATOM     26  O   UNL     1      -4.572   0.530  25.394  0.00  0.00    -0.273 OA
ATOM     27  N   UNL     1      -4.506   1.590  24.437  0.00  0.00    -0.204 NA
BRANCH  27  28
ATOM     28  C   UNL     1      -4.789   2.119  25.002  0.00  0.00    +0.132 C 
BRANCH  28  29
ATOM     29  C   UNL     1      -4.844   2.923  24.826  0.00  0.00    +0.096 C 
BRANCH  29  30
ATOM     30  N   UNL     1      -4.290   3.452  25.130  0.00  0.00    -0.267 NA
ATOM     31  C   UNL     1      -3.813   3.890  24.618  0.00  0.00    +0.105 C 
ATOM     32  C   UNL     1      -3.258   4.419  24.922  0.00  0.00    +0.159 C 
ATOM     33  O   UNL     1      -3.181   4.511  25.740  0.00  0.00    -0.351 OA
ATOM     34  C   UNL     1      -3.657   4.074  26.251  0.00  0.00    +0.159 C 
ATOM     35  C   UNL     1      -4.212   3.544  25.947  0.00  0.00    +0.105 C 
ENDBRANCH  29  30
ENDBRANCH  28  29
ENDBRANCH  27  28
ENDBRANCH  24  25
ENDBRANCH  23  24
TORSDOF 8
ENDMDL
MODEL 6
REMARK VINA RESULT:     -10.1      2.507      3.257
REMARK  Name = 
REMARK  8 active torsions:
REMARK  status: ('A' for Active; 'I' for Inactive)
REMARK    1  A    between atoms: O_2  and  C_3
REMARK    2  A    between atoms: C_3  and  C_4
REMARK    3  A    between atoms: C_13  and  C_15
REMARK    4  A    between atoms: C_23  and  C_24
REMARK    5  A    between atoms: C_24  and  C_25
REMARK    6  A    between atoms: N_27  and  C_28
REMARK    7  A    between atoms: C_28  and  C_29
REMARK    8  A    between atoms: C_29  and  N_30
REMARK                            x       y       z     vdW  Elec       q    Type
REMARK                         _______ _______ _______ _____ _____    ______ ____
ROOT
ATOM      4  C   UNL     1      -2.441   2.905  24.658  0.00  0.00    +0.277 C 
ATOM      5  O   UNL     1      -3.214   2.619  24.629  0.00  0.00    -0.270 OA
ATOM      6  N   UNL     1      -1.807   2.378  24.661  0.00  0.00    -0.152 NA
ATOM      7  C   UNL     1      -1.945   1.565  24.634  0.00  0.00    +0.185 A 
ATOM      8  N   UNL     1      -1.369   0.975  24.634  0.00  0.00    -0.227 NA
ATOM      9  C   UNL     1      -1.752   0.245  24.603  0.00  0.00    +0.063 A 
ATOM     10  C   UNL     1      -2.564   0.384  24.585  0.00  0.00    +0.023 A 
ATOM     11  C   UNL     1      -3.090  -0.250  24.553  0.00  0.00    +0.034 C 
ATOM     12  C   UNL     1      -2.804  -1.024  24.539  0.00  0.00    +0.010 C 
ATOM     13  C   UNL     1      -3.331  -1.658  24.507  0.00  0.00    +0.059 C 
ATOM     14  C   UNL     1      -3.864  -1.030  24.510  0.00  0.00    +0.005 C 
ATOM     17  C   UNL     1      -3.044  -2.432  24.494  0.00  0.00    +0.154 C 
ATOM     18  O   UNL     1      -3.571  -3.067  24.462  0.00  0.00    -0.223 OA
ATOM     19  C   UNL     1      -2.230  -2.571  24.512  0.00  0.00    +0.033 C 
ATOM     20  C   UNL     1      -1.705  -1.937  24.544  0.00  0.00    +0.003 C 
ATOM     21  C   UNL     1      -1.991  -1.163  24.558  0.00  0.00    +0.006 C 
ATOM     22  C   UNL     1      -1.179  -1.302  24.576  0.00  0.00    +0.000 C 
ATOM     23  C   UNL     1      -1.465  -0.529  24.589  0.00  0.00    +0.050 C 
ATOM     36  S   UNL     1      -2.683   1.200  24.604  0.00  0.00    -0.054 S 
ENDROOT
BRANCH  13  15
ATOM     15  C   UNL     1      -4.042  -2.074  24.477  0.00  0.00    +0.184 C 
ATOM     16  O   UNL     1      -4.691  -1.754  24.080  0.00  0.00    -0.220 OA
ENDBRANCH  13  15
BRANCH   4   3
ATOM      3  C   UNL     1      -2.303   3.718  24.684  0.00  0.00    +0.229 C 
BRANCH   3   2
ATOM      1  C   UNL     1      -2.065   4.904  25.445  0.00  0.00    +0.175 C 
ATOM      2  O   UNL     1      -2.294   4.112  25.408  0.00  0.00    -0.342 OA
ENDBRANCH   3   2
ENDBRANCH   4   3
BRANCH  23  24
ATOM     24  C   UNL     1      -0.652  -0.668  24.608  0.00  0.00    +0.093 C 
BRANCH  24  25
ATOM     25  C   UNL     1      -0.190  -0.506  23.944  0.00  0.00    +0.242 C 
ATOM     26  O   UNL     1      -0.479  -0.675  23.189  0.00  0.00    -0.273 OA
ATOM     27  N   UNL     1       0.560  -0.174  24.034  0.00  0.00    -0.204 NA
BRANCH  27  28
ATOM     28  C   UNL     1       1.022  -0.012  23.370  0.00  0.00    +0.132 C 
BRANCH  28  29
ATOM     29  C   UNL     1       1.617   0.558  23.410  0.00  0.00    +0.096 C 
BRANCH  29  30
ATOM     30  N   UNL     1       2.282   0.495  22.927  0.00  0.00    -0.267 NA
ATOM     31  C   UNL     1       2.261   0.018  22.254  0.00  0.00    +0.105 C 
ATOM     32  C   UNL     1       2.926  -0.045  21.771  0.00  0.00    +0.159 C 
ATOM     33  O   UNL     1       3.614   0.369  21.961  0.00  0.00    -0.351 OA
ATOM     34  C   UNL     1       3.636   0.846  22.633  0.00  0.00    +0.159 C 
ATOM     35  C   UNL     1       2.971   0.909  23.117  0.00  0.00    +0.105 C 
ENDBRANCH  29  30
ENDBRANCH  28  29
ENDBRANCH  27  28
ENDBRANCH  24  25
ENDBRANCH  23  24
TORSDOF 8
ENDMDL
