MODEL 1
REMARK VINA RESULT:      -9.2      0.000      0.000
REMARK  Name = 
REMARK  11 active torsions:
REMARK  status: ('A' for Active; 'I' for Inactive)
REMARK    1  A    between atoms: C_2  and  C_4
REMARK    2  A    between atoms: C_6  and  C_7
REMARK    3  A    between atoms: C_7  and  C_8
REMARK    4  A    between atoms: N_10  and  C_11
REMARK    5  A    between atoms: C_11  and  C_12
REMARK    6  A    between atoms: C_15  and  C_18
REMARK    7  A    between atoms: C_23  and  C_24
REMARK    8  A    between atoms: C_24  and  N_25
REMARK    9  A    between atoms: C_26  and  C_28
REMARK   10  A    between atoms: C_28  and  C_29
REMARK   11  A    between atoms: C_29  and  C_30
REMARK                            x       y       z     vdW  Elec       q    Type
REMARK                         _______ _______ _______ _____ _____    ______ ____
ROOT
ATOM      4  C   UNL     1      -1.233   2.095  24.924  0.00  0.00    +0.006 C 
ATOM      5  C   UNL     1      -2.051   2.199  24.903  0.00  0.00    +0.005 C 
ATOM      6  C   UNL     1      -2.447   2.199  24.178  0.00  0.00    +0.027 C 
ATOM     20  C   UNL     1      -2.025   2.094  23.477  0.00  0.00    -0.048 C 
ATOM     21  C   UNL     1      -2.422   2.094  22.754  0.00  0.00    +0.026 C 
ATOM     22  C   UNL     1      -1.207   1.990  23.500  0.00  0.00    -0.033 C 
ATOM     23  C   UNL     1      -0.811   1.990  24.223  0.00  0.00    +0.043 C 
ENDROOT
BRANCH   4   2
ATOM      1  C   UNL     1      -0.566   2.805  25.970  0.00  0.00    +0.000 C 
ATOM      2  C   UNL     1      -0.836   2.095  25.649  0.00  0.00    +0.000 C 
ATOM      3  C   UNL     1      -0.711   1.386  26.050  0.00  0.00    +0.000 C 
ENDBRANCH   4   2
BRANCH   6   7
ATOM      7  C   UNL     1      -3.265   2.304  24.157  0.00  0.00    +0.091 C 
BRANCH   7   8
ATOM      8  C   UNL     1      -3.759   1.777  24.557  0.00  0.00    +0.242 C 
ATOM      9  O   UNL     1      -4.209   2.039  25.198  0.00  0.00    -0.273 OA
ATOM     10  N   UNL     1      -3.802   0.989  24.317  0.00  0.00    -0.201 NA
BRANCH  10  11
ATOM     11  C   UNL     1      -4.295   0.462  24.717  0.00  0.00    +0.141 C 
BRANCH  11  12
ATOM     12  C   UNL     1      -4.148  -0.348  24.682  0.00  0.00    -0.001 A 
ATOM     13  C   UNL     1      -3.804  -0.734  25.323  0.00  0.00    -0.002 A 
ATOM     14  C   UNL     1      -3.656  -1.545  25.287  0.00  0.00    +0.010 A 
ATOM     15  C   UNL     1      -3.853  -1.970  24.608  0.00  0.00    +0.068 A 
ATOM     16  C   UNL     1      -4.198  -1.584  23.966  0.00  0.00    +0.010 A 
ATOM     17  C   UNL     1      -4.345  -0.774  24.002  0.00  0.00    -0.002 A 
BRANCH  15  18
ATOM     18  C   UNL     1      -3.706  -2.781  24.572  0.00  0.00    +0.100 C 
ATOM     19  N   UNL     1      -3.558  -3.592  24.536  0.00  0.00    -0.191 NA
ENDBRANCH  15  18
ENDBRANCH  11  12
ENDBRANCH  10  11
ENDBRANCH   7   8
ENDBRANCH   6   7
BRANCH  23  24
ATOM     24  C   UNL     1       0.007   1.885  24.246  0.00  0.00    +0.119 C 
BRANCH  24  25
ATOM     25  N   UNL     1       0.359   1.283  23.806  0.00  0.00    -0.205 NA
ATOM     26  C   UNL     1       1.167   1.308  23.645  0.00  0.00    +0.242 C 
ATOM     27  O   UNL     1       1.624   1.937  23.924  0.00  0.00    -0.273 OA
BRANCH  26  28
ATOM     28  C   UNL     1       1.520   0.706  23.205  0.00  0.00    +0.099 C 
BRANCH  28  29
ATOM     29  C   UNL     1       2.319   0.753  23.004  0.00  0.00    +0.124 C 
BRANCH  29  30
ATOM     30  C   UNL     1       2.669   0.153  22.561  0.00  0.00    +0.365 C 
ATOM     31  O   UNL     1       2.356  -0.055  21.828  0.00  0.00    -0.246 OA
ATOM     32  O   UNL     1       3.335  -0.239  22.851  0.00  0.00    -0.246 OA
ENDBRANCH  29  30
ENDBRANCH  28  29
ENDBRANCH  26  28
ENDBRANCH  24  25
ENDBRANCH  23  24
TORSDOF 11
ENDMDL
MODEL 2
REMARK VINA RESULT:      -9.0      2.146      3.008
REMARK  Name = 
REMARK  11 active torsions:
REMARK  status: ('A' for Active; 'I' for Inactive)
REMARK    1  A    between atoms: C_2  and  C_4
REMARK    2  A    between atoms: C_6  and  C_7
REMARK    3  A    between atoms: C_7  and  C_8
REMARK    4  A    between atoms: N_10  and  C_11
REMARK    5  A    between atoms: C_11  and  C_12
REMARK    6  A    between atoms: C_15  and  C_18
REMARK    7  A    between atoms: C_23  and  C_24
REMARK    8  A    between atoms: C_24  and  N_25
REMARK    9  A    between atoms: C_26  and  C_28
REMARK   10  A    between atoms: C_28  and  C_29
REMARK   11  A    between atoms: C_29  and  C_30
REMARK                            x       y       z     vdW  Elec       q    Type
REMARK                         _______ _______ _______ _____ _____    ______ ____
ROOT
ATOM      4  C   UNL     1      -1.079   1.225  25.020  0.00  0.00    +0.006 C 
ATOM      5  C   UNL     1      -1.395   1.877  25.415  0.00  0.00    +0.005 C 
ATOM      6  C   UNL     1      -1.020   2.611  25.366  0.00  0.00    +0.027 C 
ATOM     20  C   UNL     1      -0.328   2.692  24.924  0.00  0.00    -0.048 C 
ATOM     21  C   UNL     1       0.046   3.425  24.875  0.00  0.00    +0.026 C 
ATOM     22  C   UNL     1      -0.013   2.039  24.529  0.00  0.00    -0.033 C 
ATOM     23  C   UNL     1      -0.387   1.307  24.577  0.00  0.00    +0.043 C 
ENDROOT
BRANCH   4   2
ATOM      1  C   UNL     1      -1.287  -0.016  25.697  0.00  0.00    +0.000 C 
ATOM      2  C   UNL     1      -1.454   0.492  25.069  0.00  0.00    +0.000 C 
ATOM      3  C   UNL     1      -1.996   0.267  24.490  0.00  0.00    +0.000 C 
ENDBRANCH   4   2
BRANCH   6   7
ATOM      7  C   UNL     1      -1.336   3.262  25.761  0.00  0.00    +0.091 C 
BRANCH   7   8
ATOM      8  C   UNL     1      -2.008   3.638  25.463  0.00  0.00    +0.242 C 
ATOM      9  O   UNL     1      -1.929   4.293  24.968  0.00  0.00    -0.273 OA
ATOM     10  N   UNL     1      -2.759   3.358  25.661  0.00  0.00    -0.201 NA
BRANCH  10  11
ATOM     11  C   UNL     1      -3.431   3.733  25.363  0.00  0.00    +0.141 C 
BRANCH  11  12
ATOM     12  C   UNL     1      -4.137   3.314  25.285  0.00  0.00    -0.001 A 
ATOM     13  C   UNL     1      -4.332   2.964  24.565  0.00  0.00    -0.002 A 
ATOM     14  C   UNL     1      -5.039   2.544  24.488  0.00  0.00    +0.010 A 
ATOM     15  C   UNL     1      -5.549   2.475  25.132  0.00  0.00    +0.068 A 
ATOM     16  C   UNL     1      -5.354   2.825  25.852  0.00  0.00    +0.010 A 
ATOM     17  C   UNL     1      -4.648   3.244  25.930  0.00  0.00    -0.002 A 
BRANCH  15  18
ATOM     18  C   UNL     1      -6.256   2.055  25.055  0.00  0.00    +0.100 C 
ATOM     19  N   UNL     1      -6.962   1.636  24.978  0.00  0.00    -0.191 NA
ENDBRANCH  15  18
ENDBRANCH  11  12
ENDBRANCH  10  11
ENDBRANCH   7   8
ENDBRANCH   6   7
BRANCH  23  24
ATOM     24  C   UNL     1      -0.072   0.654  24.183  0.00  0.00    +0.119 C 
BRANCH  24  25
ATOM     25  N   UNL     1       0.503   0.761  23.602  0.00  0.00    -0.205 NA
ATOM     26  C   UNL     1       0.892   0.109  23.281  0.00  0.00    +0.242 C 
ATOM     27  O   UNL     1       0.707  -0.652  23.543  0.00  0.00    -0.273 OA
BRANCH  26  28
ATOM     28  C   UNL     1       1.468   0.216  22.700  0.00  0.00    +0.099 C 
BRANCH  28  29
ATOM     29  C   UNL     1       2.237  -0.055  22.824  0.00  0.00    +0.124 C 
BRANCH  29  30
ATOM     30  C   UNL     1       2.846   0.187  22.324  0.00  0.00    +0.365 C 
ATOM     31  O   UNL     1       3.498   0.586  22.632  0.00  0.00    -0.246 OA
ATOM     32  O   UNL     1       2.803   0.031  21.515  0.00  0.00    -0.246 OA
ENDBRANCH  29  30
ENDBRANCH  28  29
ENDBRANCH  26  28
ENDBRANCH  24  25
ENDBRANCH  23  24
TORSDOF 11
ENDMDL
MODEL 3
REMARK VINA RESULT:      -9.0      2.071      6.124
REMARK  Name = 
REMARK  11 active torsions:
REMARK  status: ('A' for Active; 'I' for Inactive)
REMARK    1  A    between atoms: C_2  and  C_4
REMARK    2  A    between atoms: C_6  and  C_7
REMARK    3  A    between atoms: C_7  and  C_8
REMARK    4  A    between atoms: N_10  and  C_11
REMARK    5  A    between atoms: C_11  and  C_12
REMARK    6  A    between atoms: C_15  and  C_18
REMARK    7  A    between atoms: C_23  and  C_24
REMARK    8  A    between atoms: C_24  and  N_25
REMARK    9  A    between atoms: C_26  and  C_28
REMARK   10  A    between atoms: C_28  and  C_29
REMARK   11  A    between atoms: C_29  and  C_30
REMARK                            x       y       z     vdW  Elec       q    Type
REMARK                         _______ _______ _______ _____ _____    ______ ____
ROOT
ATOM      4  C   UNL     1      -0.754   1.751  24.522  0.00  0.00    +0.006 C 
ATOM      5  C   UNL     1      -0.210   1.176  24.290  0.00  0.00    +0.005 C 
ATOM      6  C   UNL     1      -0.463   0.404  24.143  0.00  0.00    +0.027 C 
ATOM     20  C   UNL     1      -1.260   0.208  24.228  0.00  0.00    -0.048 C 
ATOM     21  C   UNL     1      -1.513  -0.563  24.081  0.00  0.00    +0.026 C 
ATOM     22  C   UNL     1      -1.804   0.784  24.460  0.00  0.00    -0.033 C 
ATOM     23  C   UNL     1      -1.551   1.555  24.606  0.00  0.00    +0.043 C 
ENDROOT
BRANCH   4   2
ATOM      1  C   UNL     1      -0.238   2.733  25.422  0.00  0.00    +0.000 C 
ATOM      2  C   UNL     1      -0.500   2.522  24.669  0.00  0.00    +0.000 C 
ATOM      3  C   UNL     1      -0.509   3.081  24.063  0.00  0.00    +0.000 C 
ENDBRANCH   4   2
BRANCH   6   7
ATOM      7  C   UNL     1       0.081  -0.171  23.911  0.00  0.00    +0.091 C 
BRANCH   7   8
ATOM      8  C   UNL     1       0.586  -0.028  23.274  0.00  0.00    +0.242 C 
ATOM      9  O   UNL     1       0.274   0.108  22.523  0.00  0.00    -0.273 OA
ATOM     10  N   UNL     1       1.403  -0.020  23.390  0.00  0.00    -0.201 NA
BRANCH  10  11
ATOM     11  C   UNL     1       1.908   0.123  22.752  0.00  0.00    +0.141 C 
BRANCH  11  12
ATOM     12  C   UNL     1       2.724   0.145  22.871  0.00  0.00    -0.001 A 
ATOM     13  C   UNL     1       3.142   0.842  22.735  0.00  0.00    -0.002 A 
ATOM     14  C   UNL     1       3.959   0.863  22.854  0.00  0.00    +0.010 A 
ATOM     15  C   UNL     1       4.356   0.186  23.108  0.00  0.00    +0.068 A 
ATOM     16  C   UNL     1       3.938  -0.511  23.244  0.00  0.00    +0.010 A 
ATOM     17  C   UNL     1       3.122  -0.532  23.126  0.00  0.00    -0.002 A 
BRANCH  15  18
ATOM     18  C   UNL     1       5.173   0.207  23.227  0.00  0.00    +0.100 C 
ATOM     19  N   UNL     1       5.989   0.229  23.345  0.00  0.00    -0.191 NA
ENDBRANCH  15  18
ENDBRANCH  11  12
ENDBRANCH  10  11
ENDBRANCH   7   8
ENDBRANCH   6   7
BRANCH  23  24
ATOM     24  C   UNL     1      -2.094   2.131  24.838  0.00  0.00    +0.119 C 
BRANCH  24  25
ATOM     25  N   UNL     1      -2.893   1.940  24.909  0.00  0.00    -0.205 NA
ATOM     26  C   UNL     1      -3.448   2.534  25.050  0.00  0.00    +0.242 C 
ATOM     27  O   UNL     1      -3.203   3.320  25.119  0.00  0.00    -0.273 OA
BRANCH  26  28
ATOM     28  C   UNL     1      -4.248   2.343  25.121  0.00  0.00    +0.099 C 
BRANCH  28  29
ATOM     29  C   UNL     1      -4.780   2.898  25.422  0.00  0.00    +0.124 C 
BRANCH  29  30
ATOM     30  C   UNL     1      -5.548   2.670  25.615  0.00  0.00    +0.365 C 
ATOM     31  O   UNL     1      -6.041   2.348  25.038  0.00  0.00    -0.246 OA
ATOM     32  O   UNL     1      -5.824   2.764  26.387  0.00  0.00    -0.246 OA
ENDBRANCH  29  30
ENDBRANCH  28  29
ENDBRANCH  26  28
ENDBRANCH  24  25
ENDBRANCH  23  24
TORSDOF 11
ENDMDL
MODEL 4
REMARK VINA RESULT:      -8.9      1.647      2.971
REMARK  Name = 
REMARK  11 active torsions:
REMARK  status: ('A' for Active; 'I' for Inactive)
REMARK    1  A    between atoms: C_2  and  C_4
REMARK    2  A    between atoms: C_6  and  C_7
REMARK    3  A    between atoms: C_7  and  C_8
REMARK    4  A    between atoms: N_10  and  C_11
REMARK    5  A    between atoms: C_11  and  C_12
REMARK    6  A    between atoms: C_15  and  C_18
REMARK    7  A    between atoms: C_23  and  C_24
REMARK    8  A    between atoms: C_24  and  N_25
REMARK    9  A    between atoms: C_26  and  C_28
REMARK   10  A    between atoms: C_28  and  C_29
REMARK   11  A    between atoms: C_29  and  C_30
REMARK                            x       y       z     vdW  Elec       q    Type
REMARK                         _______ _______ _______ _____ _____    ______ ____
ROOT
ATOM      4  C   UNL     1      -1.159   1.082  24.568  0.00  0.00    +0.006 C 
ATOM      5  C   UNL     1      -1.871   0.730  24.789  0.00  0.00    +0.005 C 
ATOM      6  C   UNL     1      -1.949  -0.092  24.766  0.00  0.00    +0.027 C 
ATOM     20  C   UNL     1      -1.314  -0.560  24.523  0.00  0.00    -0.048 C 
ATOM     21  C   UNL     1      -1.392  -1.380  24.501  0.00  0.00    +0.026 C 
ATOM     22  C   UNL     1      -0.602  -0.206  24.303  0.00  0.00    -0.033 C 
ATOM     23  C   UNL     1      -0.524   0.614  24.325  0.00  0.00    +0.043 C 
ENDROOT
BRANCH   4   2
ATOM      1  C   UNL     1      -1.230   2.350  23.913  0.00  0.00    +0.000 C 
ATOM      2  C   UNL     1      -1.081   1.904  24.591  0.00  0.00    +0.000 C 
ATOM      3  C   UNL     1      -0.856   2.278  25.290  0.00  0.00    +0.000 C 
ENDBRANCH   4   2
BRANCH   6   7
ATOM      7  C   UNL     1      -2.661  -0.445  24.986  0.00  0.00    +0.091 C 
BRANCH   7   8
ATOM      8  C   UNL     1      -3.370  -0.186  24.651  0.00  0.00    +0.242 C 
ATOM      9  O   UNL     1      -3.604  -0.470  23.912  0.00  0.00    -0.273 OA
ATOM     10  N   UNL     1      -3.843   0.355  25.054  0.00  0.00    -0.201 NA
BRANCH  10  11
ATOM     11  C   UNL     1      -4.552   0.614  24.719  0.00  0.00    +0.141 C 
BRANCH  11  12
ATOM     12  C   UNL     1      -4.866   1.346  24.932  0.00  0.00    -0.001 A 
ATOM     13  C   UNL     1      -4.728   2.007  24.461  0.00  0.00    -0.002 A 
ATOM     14  C   UNL     1      -5.042   2.740  24.675  0.00  0.00    +0.010 A 
ATOM     15  C   UNL     1      -5.495   2.809  25.361  0.00  0.00    +0.068 A 
ATOM     16  C   UNL     1      -5.633   2.148  25.833  0.00  0.00    +0.010 A 
ATOM     17  C   UNL     1      -5.319   1.416  25.619  0.00  0.00    -0.002 A 
BRANCH  15  18
ATOM     18  C   UNL     1      -5.809   3.542  25.576  0.00  0.00    +0.100 C 
ATOM     19  N   UNL     1      -6.124   4.274  25.790  0.00  0.00    -0.191 NA
ENDBRANCH  15  18
ENDBRANCH  11  12
ENDBRANCH  10  11
ENDBRANCH   7   8
ENDBRANCH   6   7
BRANCH  23  24
ATOM     24  C   UNL     1       0.188   0.968  24.105  0.00  0.00    +0.119 C 
BRANCH  24  25
ATOM     25  N   UNL     1       0.737   0.548  23.656  0.00  0.00    -0.205 NA
ATOM     26  C   UNL     1       1.490   0.858  23.529  0.00  0.00    +0.242 C 
ATOM     27  O   UNL     1       1.695   1.590  23.851  0.00  0.00    -0.273 OA
BRANCH  26  28
ATOM     28  C   UNL     1       2.040   0.437  23.079  0.00  0.00    +0.099 C 
BRANCH  28  29
ATOM     29  C   UNL     1       2.765   0.780  22.886  0.00  0.00    +0.124 C 
BRANCH  29  30
ATOM     30  C   UNL     1       3.321   0.352  22.453  0.00  0.00    +0.365 C 
ATOM     31  O   UNL     1       4.026   0.115  22.809  0.00  0.00    -0.246 OA
ATOM     32  O   UNL     1       3.172   0.161  21.665  0.00  0.00    -0.246 OA
ENDBRANCH  29  30
ENDBRANCH  28  29
ENDBRANCH  26  28
ENDBRANCH  24  25
ENDBRANCH  23  24
TORSDOF 11
ENDMDL
MODEL 5
REMARK VINA RESULT:      -8.8      1.715      4.714
REMARK  Name = 
REMARK  11 active torsions:
REMARK  status: ('A' for Active; 'I' for Inactive)
REMARK    1  A    between atoms: C_2  and  C_4
REMARK    2  A    between atoms: C_6  and  C_7
REMARK    3  A    between atoms: C_7  and  C_8
REMARK    4  A    between atoms: N_10  and  C_11
REMARK    5  A    between atoms: C_11  and  C_12
REMARK    6  A    between atoms: C_15  and  C_18
REMARK    7  A    between atoms: C_23  and  C_24
REMARK    8  A    between atoms: C_24  and  N_25
REMARK    9  A    between atoms: C_26  and  C_28
REMARK   10  A    between atoms: C_28  and  C_29
REMARK   11  A    between atoms: C_29  and  C_30
REMARK                            x       y       z     vdW  Elec       q    Type
REMARK                         _______ _______ _______ _____ _____    ______ ____
ROOT
ATOM      4  C   UNL     1      -1.920   2.022  23.602  0.00  0.00    +0.006 C 
ATOM      5  C   UNL     1      -1.230   1.584  23.712  0.00  0.00    +0.005 C 
ATOM      6  C   UNL     1      -0.765   1.709  24.383  0.00  0.00    +0.027 C 
ATOM     20  C   UNL     1      -0.992   2.271  24.943  0.00  0.00    -0.048 C 
ATOM     21  C   UNL     1      -0.528   2.395  25.613  0.00  0.00    +0.026 C 
ATOM     22  C   UNL     1      -1.683   2.708  24.832  0.00  0.00    -0.033 C 
ATOM     23  C   UNL     1      -2.147   2.584  24.162  0.00  0.00    +0.043 C 
ENDROOT
BRANCH   4   2
ATOM      1  C   UNL     1      -2.233   2.321  22.240  0.00  0.00    +0.000 C 
ATOM      2  C   UNL     1      -2.385   1.897  22.931  0.00  0.00    +0.000 C 
ATOM      3  C   UNL     1      -3.000   1.349  22.952  0.00  0.00    +0.000 C 
ENDBRANCH   4   2
BRANCH   6   7
ATOM      7  C   UNL     1      -0.075   1.272  24.493  0.00  0.00    +0.091 C 
BRANCH   7   8
ATOM      8  C   UNL     1      -0.052   0.475  24.276  0.00  0.00    +0.242 C 
ATOM      9  O   UNL     1       0.352   0.244  23.595  0.00  0.00    -0.273 OA
ATOM     10  N   UNL     1      -0.435  -0.089  24.741  0.00  0.00    -0.201 NA
BRANCH  10  11
ATOM     11  C   UNL     1      -0.412  -0.885  24.524  0.00  0.00    +0.141 C 
BRANCH  11  12
ATOM     12  C   UNL     1      -1.082  -1.357  24.621  0.00  0.00    -0.001 A 
ATOM     13  C   UNL     1      -1.551  -1.275  25.293  0.00  0.00    -0.002 A 
ATOM     14  C   UNL     1      -2.221  -1.747  25.389  0.00  0.00    +0.010 A 
ATOM     15  C   UNL     1      -2.420  -2.302  24.813  0.00  0.00    +0.068 A 
ATOM     16  C   UNL     1      -1.951  -2.385  24.140  0.00  0.00    +0.010 A 
ATOM     17  C   UNL     1      -1.281  -1.913  24.044  0.00  0.00    -0.002 A 
BRANCH  15  18
ATOM     18  C   UNL     1      -3.090  -2.775  24.909  0.00  0.00    +0.100 C 
ATOM     19  N   UNL     1      -3.759  -3.248  25.006  0.00  0.00    -0.191 NA
ENDBRANCH  15  18
ENDBRANCH  11  12
ENDBRANCH  10  11
ENDBRANCH   7   8
ENDBRANCH   6   7
BRANCH  23  24
ATOM     24  C   UNL     1      -2.838   3.021  24.051  0.00  0.00    +0.119 C 
BRANCH  24  25
ATOM     25  N   UNL     1      -3.383   3.095  24.665  0.00  0.00    -0.205 NA
ATOM     26  C   UNL     1      -3.956   3.687  24.639  0.00  0.00    +0.242 C 
ATOM     27  O   UNL     1      -3.985   4.206  23.996  0.00  0.00    -0.273 OA
BRANCH  26  28
ATOM     28  C   UNL     1      -4.502   3.762  25.253  0.00  0.00    +0.099 C 
BRANCH  28  29
ATOM     29  C   UNL     1      -5.218   3.354  25.222  0.00  0.00    +0.124 C 
BRANCH  29  30
ATOM     30  C   UNL     1      -5.762   3.427  25.838  0.00  0.00    +0.365 C 
ATOM     31  O   UNL     1      -6.210   4.114  25.913  0.00  0.00    -0.246 OA
ATOM     32  O   UNL     1      -5.858   2.811  26.378  0.00  0.00    -0.246 OA
ENDBRANCH  29  30
ENDBRANCH  28  29
ENDBRANCH  26  28
ENDBRANCH  24  25
ENDBRANCH  23  24
TORSDOF 11
ENDMDL
MODEL 6
REMARK VINA RESULT:      -8.8      2.338      4.669
REMARK  Name = 
REMARK  11 active torsions:
REMARK  status: ('A' for Active; 'I' for Inactive)
REMARK    1  A    between atoms: C_2  and  C_4
REMARK    2  A    between atoms: C_6  and  C_7
REMARK    3  A    between atoms: C_7  and  C_8
REMARK    4  A    between atoms: N_10  and  C_11
REMARK    5  A    between atoms: C_11  and  C_12
REMARK    6  A    between atoms: C_15  and  C_18
REMARK    7  A    between atoms: C_23  and  C_24
REMARK    8  A    between atoms: C_24  and  N_25
REMARK    9  A    between atoms: C_26  and  C_28
REMARK   10  A    between atoms: C_28  and  C_29
REMARK   11  A    between atoms: C_29  and  C_30
REMARK                            x       y       z     vdW  Elec       q    Type
REMARK                         _______ _______ _______ _____ _____    ______ ____
ROOT
ATOM      4  C   UNL     1      -0.431   1.049  24.263  0.00  0.00    +0.006 C 
ATOM      5  C   UNL     1      -0.294   1.826  24.504  0.00  0.00    +0.005 C 
ATOM      6  C   UNL     1      -0.325   2.021  25.306  0.00  0.00    +0.027 C 
ATOM     20  C   UNL     1      -0.493   1.438  25.865  0.00  0.00    -0.048 C 
ATOM     21  C   UNL     1      -0.524   1.633  26.666  0.00  0.00    +0.026 C 
ATOM     22  C   UNL     1      -0.629   0.661  25.623  0.00  0.00    -0.033 C 
ATOM     23  C   UNL     1      -0.598   0.467  24.823  0.00  0.00    +0.043 C 
ENDROOT
BRANCH   4   2
ATOM      1  C   UNL     1      -1.061   0.973  22.983  0.00  0.00    +0.000 C 
ATOM      2  C   UNL     1      -0.399   0.855  23.461  0.00  0.00    +0.000 C 
ATOM      3  C   UNL     1       0.292   0.542  23.139  0.00  0.00    +0.000 C 
ENDBRANCH   4   2
BRANCH   6   7
ATOM      7  C   UNL     1      -0.189   2.798  25.546  0.00  0.00    +0.091 C 
BRANCH   7   8
ATOM      8  C   UNL     1      -0.681   3.404  25.279  0.00  0.00    +0.242 C 
ATOM      9  O   UNL     1      -0.400   3.953  24.730  0.00  0.00    -0.273 OA
ATOM     10  N   UNL     1      -1.454   3.462  25.561  0.00  0.00    -0.201 NA
BRANCH  10  11
ATOM     11  C   UNL     1      -1.947   4.068  25.294  0.00  0.00    +0.141 C 
BRANCH  11  12
ATOM     12  C   UNL     1      -2.765   3.996  25.365  0.00  0.00    -0.001 A 
ATOM     13  C   UNL     1      -3.126   4.099  26.098  0.00  0.00    -0.002 A 
ATOM     14  C   UNL     1      -3.946   4.027  26.169  0.00  0.00    +0.010 A 
ATOM     15  C   UNL     1      -4.402   3.851  25.505  0.00  0.00    +0.068 A 
ATOM     16  C   UNL     1      -4.041   3.747  24.772  0.00  0.00    +0.010 A 
ATOM     17  C   UNL     1      -3.223   3.820  24.700  0.00  0.00    -0.002 A 
BRANCH  15  18
ATOM     18  C   UNL     1      -5.222   3.778  25.576  0.00  0.00    +0.100 C 
ATOM     19  N   UNL     1      -6.040   3.706  25.646  0.00  0.00    -0.191 NA
ENDBRANCH  15  18
ENDBRANCH  11  12
ENDBRANCH  10  11
ENDBRANCH   7   8
ENDBRANCH   6   7
BRANCH  23  24
ATOM     24  C   UNL     1      -0.734  -0.310  24.580  0.00  0.00    +0.119 C 
BRANCH  24  25
ATOM     25  N   UNL     1      -1.409  -0.710  24.834  0.00  0.00    -0.205 NA
ATOM     26  C   UNL     1      -1.460  -1.528  24.750  0.00  0.00    +0.242 C 
ATOM     27  O   UNL     1      -0.835  -1.948  24.410  0.00  0.00    -0.273 OA
BRANCH  26  28
ATOM     28  C   UNL     1      -2.136  -1.929  25.004  0.00  0.00    +0.099 C 
BRANCH  28  29
ATOM     29  C   UNL     1      -2.565  -2.393  24.474  0.00  0.00    +0.124 C 
BRANCH  29  30
ATOM     30  C   UNL     1      -3.338  -2.617  24.654  0.00  0.00    +0.365 C 
ATOM     31  O   UNL     1      -3.517  -2.916  25.401  0.00  0.00    -0.246 OA
ATOM     32  O   UNL     1      -3.932  -2.542  24.087  0.00  0.00    -0.246 OA
ENDBRANCH  29  30
ENDBRANCH  28  29
ENDBRANCH  26  28
ENDBRANCH  24  25
ENDBRANCH  23  24
TORSDOF 11
ENDMDL
MODEL 7
REMARK VINA RESULT:      -8.6      2.782      5.094
REMARK  Name = 
REMARK  11 active torsions:
REMARK  status: ('A' for Active; 'I' for Inactive)
REMARK    1  A    between atoms: C_2  and  C_4
REMARK    2  A    between atoms: C_6  and  C_7
REMARK    3  A    between atoms: C_7  and  C_8
REMARK    4  A    between atoms: N_10  and  C_11
REMARK    5  A    between atoms: C_11  and  C_12
REMARK    6  A    between atoms: C_15  and  C_18
REMARK    7  A    between atoms: C_23  and  C_24
REMARK    8  A    between atoms: C_24  and  N_25
REMARK    9  A    between atoms: C_26  and  C_28
REMARK   10  A    between atoms: C_28  and  C_29
REMARK   11  A    between atoms: C_29  and  C_30
REMARK                            x       y       z     vdW  Elec       q    Type
REMARK                         _______ _______ _______ _____ _____    ______ ____
ROOT
ATOM      4  C   UNL     1      -4.690   1.640  24.540  0.00  0.00    +0.006 C 
ATOM      5  C   UNL     1      -4.469   2.417  24.371  0.00  0.00    +0.005 C 
ATOM      6  C   UNL     1      -3.905   2.567  23.787  0.00  0.00    +0.027 C 
ATOM     20  C   UNL     1      -3.564   1.941  23.372  0.00  0.00    -0.048 C 
ATOM     21  C   UNL     1      -3.001   2.092  22.789  0.00  0.00    +0.026 C 
ATOM     22  C   UNL     1      -3.786   1.165  23.541  0.00  0.00    -0.033 C 
ATOM     23  C   UNL     1      -4.349   1.014  24.124  0.00  0.00    +0.043 C 
ENDROOT
BRANCH   4   2
ATOM      1  C   UNL     1      -5.013   1.310  25.892  0.00  0.00    +0.000 C 
ATOM      2  C   UNL     1      -5.254   1.489  25.124  0.00  0.00    +0.000 C 
ATOM      3  C   UNL     1      -6.056   1.519  24.939  0.00  0.00    +0.000 C 
ENDBRANCH   4   2
BRANCH   6   7
ATOM      7  C   UNL     1      -3.684   3.344  23.619  0.00  0.00    +0.091 C 
BRANCH   7   8
ATOM      8  C   UNL     1      -3.297   3.795  24.192  0.00  0.00    +0.242 C 
ATOM      9  O   UNL     1      -3.689   4.424  24.556  0.00  0.00    -0.273 OA
ATOM     10  N   UNL     1      -2.519   3.618  24.401  0.00  0.00    -0.201 NA
BRANCH  10  11
ATOM     11  C   UNL     1      -2.133   4.069  24.974  0.00  0.00    +0.141 C 
BRANCH  11  12
ATOM     12  C   UNL     1      -1.493   3.752  25.387  0.00  0.00    -0.001 A 
ATOM     13  C   UNL     1      -0.732   3.813  25.078  0.00  0.00    -0.002 A 
ATOM     14  C   UNL     1      -0.092   3.495  25.491  0.00  0.00    +0.010 A 
ATOM     15  C   UNL     1      -0.216   3.115  26.213  0.00  0.00    +0.068 A 
ATOM     16  C   UNL     1      -0.977   3.054  26.522  0.00  0.00    +0.010 A 
ATOM     17  C   UNL     1      -1.617   3.372  26.110  0.00  0.00    -0.002 A 
BRANCH  15  18
ATOM     18  C   UNL     1       0.424   2.797  26.627  0.00  0.00    +0.100 C 
ATOM     19  N   UNL     1       1.064   2.479  27.039  0.00  0.00    -0.191 NA
ENDBRANCH  15  18
ENDBRANCH  11  12
ENDBRANCH  10  11
ENDBRANCH   7   8
ENDBRANCH   6   7
BRANCH  23  24
ATOM     24  C   UNL     1      -4.571   0.238  24.294  0.00  0.00    +0.119 C 
BRANCH  24  25
ATOM     25  N   UNL     1      -4.025  -0.375  24.216  0.00  0.00    -0.205 NA
ATOM     26  C   UNL     1      -4.286  -1.153  24.135  0.00  0.00    +0.242 C 
ATOM     27  O   UNL     1      -5.095  -1.319  24.132  0.00  0.00    -0.273 OA
BRANCH  26  28
ATOM     28  C   UNL     1      -3.739  -1.766  24.057  0.00  0.00    +0.099 C 
BRANCH  28  29
ATOM     29  C   UNL     1      -3.572  -2.256  24.700  0.00  0.00    +0.124 C 
BRANCH  29  30
ATOM     30  C   UNL     1      -3.026  -2.868  24.621  0.00  0.00    +0.365 C 
ATOM     31  O   UNL     1      -3.286  -3.635  24.468  0.00  0.00    -0.246 OA
ATOM     32  O   UNL     1      -2.219  -2.713  24.697  0.00  0.00    -0.246 OA
ENDBRANCH  29  30
ENDBRANCH  28  29
ENDBRANCH  26  28
ENDBRANCH  24  25
ENDBRANCH  23  24
TORSDOF 11
ENDMDL
MODEL 8
REMARK VINA RESULT:      -8.5      2.236      3.395
REMARK  Name = 
REMARK  11 active torsions:
REMARK  status: ('A' for Active; 'I' for Inactive)
REMARK    1  A    between atoms: C_2  and  C_4
REMARK    2  A    between atoms: C_6  and  C_7
REMARK    3  A    between atoms: C_7  and  C_8
REMARK    4  A    between atoms: N_10  and  C_11
REMARK    5  A    between atoms: C_11  and  C_12
REMARK    6  A    between atoms: C_15  and  C_18
REMARK    7  A    between atoms: C_23  and  C_24
REMARK    8  A    between atoms: C_24  and  N_25
REMARK    9  A    between atoms: C_26  and  C_28
REMARK   10  A    between atoms: C_28  and  C_29
REMARK   11  A    between atoms: C_29  and  C_30
REMARK                            x       y       z     vdW  Elec       q    Type
REMARK                         _______ _______ _______ _____ _____    ______ ____
ROOT
ATOM      4  C   UNL     1      -0.822   2.377  25.136  0.00  0.00    +0.006 C 
ATOM      5  C   UNL     1      -1.541   2.504  24.753  0.00  0.00    +0.005 C 
ATOM      6  C   UNL     1      -2.126   2.959  25.117  0.00  0.00    +0.027 C 
ATOM     20  C   UNL     1      -1.991   3.286  25.863  0.00  0.00    -0.048 C 
ATOM     21  C   UNL     1      -2.575   3.740  26.226  0.00  0.00    +0.026 C 
ATOM     22  C   UNL     1      -1.270   3.158  26.244  0.00  0.00    -0.033 C 
ATOM     23  C   UNL     1      -0.686   2.703  25.881  0.00  0.00    +0.043 C 
ENDROOT
BRANCH   4   2
ATOM      1  C   UNL     1      -0.215   1.106  24.892  0.00  0.00    +0.000 C 
ATOM      2  C   UNL     1      -0.237   1.922  24.772  0.00  0.00    +0.000 C 
ATOM      3  C   UNL     1       0.325   2.283  24.288  0.00  0.00    +0.000 C 
ENDBRANCH   4   2
BRANCH   6   7
ATOM      7  C   UNL     1      -2.846   3.087  24.735  0.00  0.00    +0.091 C 
BRANCH   7   8
ATOM      8  C   UNL     1      -3.158   2.505  24.238  0.00  0.00    +0.242 C 
ATOM      9  O   UNL     1      -3.092   2.584  23.420  0.00  0.00    -0.273 OA
ATOM     10  N   UNL     1      -3.534   1.847  24.561  0.00  0.00    -0.201 NA
BRANCH  10  11
ATOM     11  C   UNL     1      -3.846   1.265  24.065  0.00  0.00    +0.141 C 
BRANCH  11  12
ATOM     12  C   UNL     1      -3.808   0.471  24.285  0.00  0.00    -0.001 A 
ATOM     13  C   UNL     1      -3.537  -0.093  23.750  0.00  0.00    -0.002 A 
ATOM     14  C   UNL     1      -3.499  -0.888  23.971  0.00  0.00    +0.010 A 
ATOM     15  C   UNL     1      -3.732  -1.116  24.729  0.00  0.00    +0.068 A 
ATOM     16  C   UNL     1      -4.004  -0.551  25.264  0.00  0.00    +0.010 A 
ATOM     17  C   UNL     1      -4.042   0.243  25.043  0.00  0.00    -0.002 A 
BRANCH  15  18
ATOM     18  C   UNL     1      -3.694  -1.910  24.950  0.00  0.00    +0.100 C 
ATOM     19  N   UNL     1      -3.657  -2.704  25.171  0.00  0.00    -0.191 NA
ENDBRANCH  15  18
ENDBRANCH  11  12
ENDBRANCH  10  11
ENDBRANCH   7   8
ENDBRANCH   6   7
BRANCH  23  24
ATOM     24  C   UNL     1       0.034   2.575  26.262  0.00  0.00    +0.119 C 
BRANCH  24  25
ATOM     25  N   UNL     1       0.053   2.439  27.075  0.00  0.00    -0.205 NA
ATOM     26  C   UNL     1       0.749   2.565  27.499  0.00  0.00    +0.242 C 
ATOM     27  O   UNL     1       1.428   2.828  27.109  0.00  0.00    -0.273 OA
BRANCH  26  28
ATOM     28  C   UNL     1       0.768   2.429  28.312  0.00  0.00    +0.099 C 
BRANCH  28  29
ATOM     29  C   UNL     1       1.451   2.596  28.744  0.00  0.00    +0.124 C 
BRANCH  29  30
ATOM     30  C   UNL     1       1.481   2.428  29.551  0.00  0.00    +0.365 C 
ATOM     31  O   UNL     1       0.899   2.720  30.055  0.00  0.00    -0.246 OA
ATOM     32  O   UNL     1       2.095   1.967  29.853  0.00  0.00    -0.246 OA
ENDBRANCH  29  30
ENDBRANCH  28  29
ENDBRANCH  26  28
ENDBRANCH  24  25
ENDBRANCH  23  24
TORSDOF 11
ENDMDL
MODEL 9
REMARK VINA RESULT:      -8.4      1.958      6.033
REMARK  Name = 
REMARK  11 active torsions:
REMARK  status: ('A' for Active; 'I' for Inactive)
REMARK    1  A    between atoms: C_2  and  C_4
REMARK    2  A    between atoms: C_6  and  C_7
REMARK    3  A    between atoms: C_7  and  C_8
REMARK    4  A    between atoms: N_10  and  C_11
REMARK    5  A    between atoms: C_11  and  C_12
REMARK    6  A    between atoms: C_15  and  C_18
REMARK    7  A    between atoms: C_23  and  C_24
REMARK    8  A    between atoms: C_24  and  N_25
REMARK    9  A    between atoms: C_26  and  C_28
REMARK   10  A    between atoms: C_28  and  C_29
REMARK   11  A    between atoms: C_29  and  C_30
REMARK                            x       y       z     vdW  Elec       q    Type
REMARK                         _______ _______ _______ _____ _____    ______ ____
ROOT
ATOM      4  C   UNL     1      -3.047  -0.404  24.673  0.00  0.00    +0.006 C 
ATOM      5  C   UNL     1      -2.254  -0.628  24.700  0.00  0.00    +0.005 C 
ATOM      6  C   UNL     1      -1.680  -0.085  24.939  0.00  0.00    +0.027 C 
ATOM     20  C   UNL     1      -1.900   0.681  25.150  0.00  0.00    -0.048 C 
ATOM     21  C   UNL     1      -1.327   1.224  25.389  0.00  0.00    +0.026 C 
ATOM     22  C   UNL     1      -2.694   0.904  25.123  0.00  0.00    -0.033 C 
ATOM     23  C   UNL     1      -3.267   0.362  24.884  0.00  0.00    +0.043 C 
ENDROOT
BRANCH   4   2
ATOM      1  C   UNL     1      -3.918  -1.497  24.973  0.00  0.00    +0.000 C 
ATOM      2  C   UNL     1      -3.621  -0.948  24.434  0.00  0.00    +0.000 C 
ATOM      3  C   UNL     1      -3.897  -0.941  23.657  0.00  0.00    +0.000 C 
ENDBRANCH   4   2
BRANCH   6   7
ATOM      7  C   UNL     1      -0.886  -0.309  24.966  0.00  0.00    +0.091 C 
BRANCH   7   8
ATOM      8  C   UNL     1      -0.504  -0.553  24.276  0.00  0.00    +0.242 C 
ATOM      9  O   UNL     1      -0.698  -1.277  23.930  0.00  0.00    -0.273 OA
ATOM     10  N   UNL     1       0.073  -0.074  23.933  0.00  0.00    -0.201 NA
BRANCH  10  11
ATOM     11  C   UNL     1       0.456  -0.318  23.244  0.00  0.00    +0.141 C 
BRANCH  11  12
ATOM     12  C   UNL     1       1.213  -0.039  23.072  0.00  0.00    -0.001 A 
ATOM     13  C   UNL     1       1.496   0.641  23.442  0.00  0.00    -0.002 A 
ATOM     14  C   UNL     1       2.254   0.920  23.270  0.00  0.00    +0.010 A 
ATOM     15  C   UNL     1       2.728   0.517  22.728  0.00  0.00    +0.068 A 
ATOM     16  C   UNL     1       2.445  -0.163  22.359  0.00  0.00    +0.010 A 
ATOM     17  C   UNL     1       1.688  -0.442  22.530  0.00  0.00    -0.002 A 
BRANCH  15  18
ATOM     18  C   UNL     1       3.485   0.796  22.556  0.00  0.00    +0.100 C 
ATOM     19  N   UNL     1       4.243   1.074  22.384  0.00  0.00    -0.191 NA
ENDBRANCH  15  18
ENDBRANCH  11  12
ENDBRANCH  10  11
ENDBRANCH   7   8
ENDBRANCH   6   7
BRANCH  23  24
ATOM     24  C   UNL     1      -4.061   0.585  24.857  0.00  0.00    +0.119 C 
BRANCH  24  25
ATOM     25  N   UNL     1      -4.264   1.379  24.771  0.00  0.00    -0.205 NA
ATOM     26  C   UNL     1      -5.003   1.646  25.023  0.00  0.00    +0.242 C 
ATOM     27  O   UNL     1      -5.539   1.117  25.362  0.00  0.00    -0.273 OA
BRANCH  26  28
ATOM     28  C   UNL     1      -5.206   2.441  24.937  0.00  0.00    +0.099 C 
BRANCH  28  29
ATOM     29  C   UNL     1      -5.419   2.888  25.597  0.00  0.00    +0.124 C 
BRANCH  29  30
ATOM     30  C   UNL     1      -5.421   3.711  25.555  0.00  0.00    +0.365 C 
ATOM     31  O   UNL     1      -6.112   4.130  25.719  0.00  0.00    -0.246 OA
ATOM     32  O   UNL     1      -4.733   4.116  25.350  0.00  0.00    -0.246 OA
ENDBRANCH  29  30
ENDBRANCH  28  29
ENDBRANCH  26  28
ENDBRANCH  24  25
ENDBRANCH  23  24
TORSDOF 11
ENDMDL
MODEL 10
REMARK VINA RESULT:      -8.2      2.189      3.142
REMARK  Name = 
REMARK  11 active torsions:
REMARK  status: ('A' for Active; 'I' for Inactive)
REMARK    1  A    between atoms: C_2  and  C_4
REMARK    2  A    between atoms: C_6  and  C_7
REMARK    3  A    between atoms: C_7  and  C_8
REMARK    4  A    between atoms: N_10  and  C_11
REMARK    5  A    between atoms: C_11  and  C_12
REMARK    6  A    between atoms: C_15  and  C_18
REMARK    7  A    between atoms: C_23  and  C_24
REMARK    8  A    between atoms: C_24  and  N_25
REMARK    9  A    between atoms: C_26  and  C_28
REMARK   10  A    between atoms: C_28  and  C_29
REMARK   11  A    between atoms: C_29  and  C_30
REMARK                            x       y       z     vdW  Elec       q    Type
REMARK                         _______ _______ _______ _____ _____    ______ ____
ROOT
ATOM      4  C   UNL     1      -3.707   3.091  24.132  0.00  0.00    +0.006 C 
ATOM      5  C   UNL     1      -4.415   2.710  24.315  0.00  0.00    +0.005 C 
ATOM      6  C   UNL     1      -4.692   2.707  25.093  0.00  0.00    +0.027 C 
ATOM     20  C   UNL     1      -4.259   3.084  25.686  0.00  0.00    -0.048 C 
ATOM     21  C   UNL     1      -4.536   3.080  26.463  0.00  0.00    +0.026 C 
ATOM     22  C   UNL     1      -3.551   3.464  25.501  0.00  0.00    -0.033 C 
ATOM     23  C   UNL     1      -3.274   3.467  24.725  0.00  0.00    +0.043 C 
ENDROOT
BRANCH   4   2
ATOM      1  C   UNL     1      -2.955   2.477  23.083  0.00  0.00    +0.000 C 
ATOM      2  C   UNL     1      -3.430   3.094  23.354  0.00  0.00    +0.000 C 
ATOM      3  C   UNL     1      -3.629   3.713  22.848  0.00  0.00    +0.000 C 
ENDBRANCH   4   2
BRANCH   6   7
ATOM      7  C   UNL     1      -5.401   2.327  25.277  0.00  0.00    +0.091 C 
BRANCH   7   8
ATOM      8  C   UNL     1      -5.553   1.572  24.979  0.00  0.00    +0.242 C 
ATOM      9  O   UNL     1      -6.206   1.445  24.492  0.00  0.00    -0.273 OA
ATOM     10  N   UNL     1      -5.050   0.946  25.168  0.00  0.00    -0.201 NA
BRANCH  10  11
ATOM     11  C   UNL     1      -5.202   0.191  24.870  0.00  0.00    +0.141 C 
BRANCH  11  12
ATOM     12  C   UNL     1      -4.594  -0.365  24.827  0.00  0.00    -0.001 A 
ATOM     13  C   UNL     1      -4.138  -0.529  25.493  0.00  0.00    -0.002 A 
ATOM     14  C   UNL     1      -3.529  -1.086  25.449  0.00  0.00    +0.010 A 
ATOM     15  C   UNL     1      -3.379  -1.476  24.738  0.00  0.00    +0.068 A 
ATOM     16  C   UNL     1      -3.835  -1.312  24.072  0.00  0.00    +0.010 A 
ATOM     17  C   UNL     1      -4.443  -0.756  24.115  0.00  0.00    -0.002 A 
BRANCH  15  18
ATOM     18  C   UNL     1      -2.770  -2.033  24.695  0.00  0.00    +0.100 C 
ATOM     19  N   UNL     1      -2.163  -2.589  24.651  0.00  0.00    -0.191 NA
ENDBRANCH  15  18
ENDBRANCH  11  12
ENDBRANCH  10  11
ENDBRANCH   7   8
ENDBRANCH   6   7
BRANCH  23  24
ATOM     24  C   UNL     1      -2.565   3.847  24.540  0.00  0.00    +0.119 C 
BRANCH  24  25
ATOM     25  N   UNL     1      -1.852   3.557  24.834  0.00  0.00    -0.205 NA
ATOM     26  C   UNL     1      -1.234   4.075  25.002  0.00  0.00    +0.242 C 
ATOM     27  O   UNL     1      -1.328   4.885  24.875  0.00  0.00    -0.273 OA
BRANCH  26  28
ATOM     28  C   UNL     1      -0.519   3.784  25.296  0.00  0.00    +0.099 C 
BRANCH  28  29
ATOM     29  C   UNL     1      -0.505   3.080  25.725  0.00  0.00    +0.124 C 
BRANCH  29  30
ATOM     30  C   UNL     1       0.212   2.700  25.871  0.00  0.00    +0.365 C 
ATOM     31  O   UNL     1       0.562   2.750  26.616  0.00  0.00    -0.246 OA
ATOM     32  O   UNL     1       0.580   2.269  25.271  0.00  0.00    -0.246 OA
ENDBRANCH  29  30
ENDBRANCH  28  29
ENDBRANCH  26  28
ENDBRANCH  24  25
ENDBRANCH  23  24
TORSDOF 11
ENDMDL
