MODEL 1
REMARK VINA RESULT:     -12.1      0.000      0.000
REMARK  Name = 
REMARK  4 active torsions:
REMARK  status: ('A' for Active; 'I' for Inactive)
REMARK    1  A    between atoms: C_6  and  C_9
REMARK    2  A    between atoms: C_12  and  C_14
REMARK    3  A    between atoms: N_19  and  C_20
REMARK    4  A    between atoms: C_20  and  C_21
REMARK                            x       y       z     vdW  Elec       q    Type
REMARK                         _______ _______ _______ _____ _____    ______ ____
ROOT
ATOM      9  C   UNL     1      -3.850   0.101  24.321  0.00  0.00    +0.203 A 
ATOM     10  N   UNL     1      -3.703   0.518  23.625  0.00  0.00    -0.056 NA
ATOM     11  O   UNL     1      -3.867   1.315  23.765  0.00  0.00    -0.336 OA
ATOM     12  C   UNL     1      -4.115   1.391  24.548  0.00  0.00    +0.251 A 
ATOM     13  N   UNL     1      -4.105   0.641  24.892  0.00  0.00    -0.190 NA
ENDROOT
BRANCH   9   6
ATOM      1  C   UNL     1      -3.486  -3.150  24.751  0.00  0.00    +0.033 C 
ATOM      2  C   UNL     1      -3.577  -2.337  24.644  0.00  0.00    +0.006 A 
ATOM      3  C   UNL     1      -4.091  -2.053  24.065  0.00  0.00    +0.136 A 
ATOM      4  F   UNL     1      -4.515  -2.581  23.594  0.00  0.00    -0.205 F 
ATOM      5  C   UNL     1      -4.182  -1.240  23.958  0.00  0.00    +0.032 A 
ATOM      6  C   UNL     1      -3.759  -0.711  24.429  0.00  0.00    +0.041 A 
ATOM      7  C   UNL     1      -3.244  -0.996  25.008  0.00  0.00    +0.003 A 
ATOM      8  C   UNL     1      -3.153  -1.809  25.115  0.00  0.00    -0.002 A 
ENDBRANCH   9   6
BRANCH  12  14
ATOM     14  C   UNL     1      -4.334   2.092  24.922  0.00  0.00    +0.141 C 
ATOM     15  C   UNL     1      -5.085   2.273  25.210  0.00  0.00    +0.060 C 
ATOM     16  C   UNL     1      -5.056   3.029  25.540  0.00  0.00    +0.170 C 
ATOM     17  O   UNL     1      -5.686   3.429  25.893  0.00  0.00    -0.222 OA
ATOM     18  C   UNL     1      -4.287   3.315  25.454  0.00  0.00    +0.106 C 
ATOM     19  N   UNL     1      -3.841   2.737  25.072  0.00  0.00    -0.258 NA
BRANCH  19  20
ATOM     20  C   UNL     1      -3.042   2.792  24.876  0.00  0.00    +0.139 C 
BRANCH  20  21
ATOM     21  C   UNL     1      -2.593   3.427  25.152  0.00  0.00    +0.155 A 
ATOM     22  N   UNL     1      -2.147   3.440  25.847  0.00  0.00    -0.226 NA
ATOM     23  C   UNL     1      -1.789   4.180  25.907  0.00  0.00    +0.121 A 
ATOM     24  C   UNL     1      -2.014   4.626  25.249  0.00  0.00    +0.121 A 
ATOM     25  N   UNL     1      -2.510   4.161  24.783  0.00  0.00    -0.226 NA
ENDBRANCH  20  21
ENDBRANCH  19  20
ENDBRANCH  12  14
TORSDOF 4
ENDMDL
MODEL 2
REMARK VINA RESULT:     -10.9      2.047      2.811
REMARK  Name = 
REMARK  4 active torsions:
REMARK  status: ('A' for Active; 'I' for Inactive)
REMARK    1  A    between atoms: C_6  and  C_9
REMARK    2  A    between atoms: C_12  and  C_14
REMARK    3  A    between atoms: N_19  and  C_20
REMARK    4  A    between atoms: C_20  and  C_21
REMARK                            x       y       z     vdW  Elec       q    Type
REMARK                         _______ _______ _______ _____ _____    ______ ____
ROOT
ATOM      9  C   UNL     1      -2.164  -0.607  25.051  0.00  0.00    +0.203 A 
ATOM     10  N   UNL     1      -1.871  -0.577  25.821  0.00  0.00    -0.056 NA
ATOM     11  O   UNL     1      -1.339   0.053  25.868  0.00  0.00    -0.336 OA
ATOM     12  C   UNL     1      -1.303   0.412  25.126  0.00  0.00    +0.251 A 
ATOM     13  N   UNL     1      -1.813   0.004  24.621  0.00  0.00    -0.190 NA
ENDROOT
BRANCH   9   6
ATOM      1  C   UNL     1      -4.352  -2.788  23.891  0.00  0.00    +0.033 C 
ATOM      2  C   UNL     1      -3.805  -2.243  24.181  0.00  0.00    +0.006 A 
ATOM      3  C   UNL     1      -3.990  -1.440  24.192  0.00  0.00    +0.136 A 
ATOM      4  F   UNL     1      -4.721  -1.181  23.913  0.00  0.00    -0.205 F 
ATOM      5  C   UNL     1      -3.443  -0.894  24.482  0.00  0.00    +0.032 A 
ATOM      6  C   UNL     1      -2.711  -1.152  24.761  0.00  0.00    +0.041 A 
ATOM      7  C   UNL     1      -2.525  -1.957  24.750  0.00  0.00    +0.003 A 
ATOM      8  C   UNL     1      -3.072  -2.502  24.460  0.00  0.00    -0.002 A 
ENDBRANCH   9   6
BRANCH  12  14
ATOM     14  C   UNL     1      -0.840   1.063  24.924  0.00  0.00    +0.141 C 
ATOM     15  C   UNL     1      -0.084   1.037  24.597  0.00  0.00    +0.060 C 
ATOM     16  C   UNL     1       0.172   1.813  24.484  0.00  0.00    +0.170 C 
ATOM     17  O   UNL     1       0.900   2.044  24.169  0.00  0.00    -0.222 OA
ATOM     18  C   UNL     1      -0.426   2.319  24.743  0.00  0.00    +0.106 C 
ATOM     19  N   UNL     1      -1.051   1.856  25.014  0.00  0.00    -0.258 NA
BRANCH  19  20
ATOM     20  C   UNL     1      -1.763   2.136  25.322  0.00  0.00    +0.139 C 
BRANCH  20  21
ATOM     21  C   UNL     1      -1.927   2.945  25.311  0.00  0.00    +0.155 A 
ATOM     22  N   UNL     1      -1.722   3.489  25.898  0.00  0.00    -0.226 NA
ATOM     23  C   UNL     1      -1.993   4.231  25.662  0.00  0.00    +0.121 A 
ATOM     24  C   UNL     1      -2.365   4.146  24.930  0.00  0.00    +0.121 A 
ATOM     25  N   UNL     1      -2.324   3.352  24.714  0.00  0.00    -0.226 NA
ENDBRANCH  20  21
ENDBRANCH  19  20
ENDBRANCH  12  14
TORSDOF 4
ENDMDL
MODEL 3
REMARK VINA RESULT:     -10.8      2.745      4.313
REMARK  Name = 
REMARK  4 active torsions:
REMARK  status: ('A' for Active; 'I' for Inactive)
REMARK    1  A    between atoms: C_6  and  C_9
REMARK    2  A    between atoms: C_12  and  C_14
REMARK    3  A    between atoms: N_19  and  C_20
REMARK    4  A    between atoms: C_20  and  C_21
REMARK                            x       y       z     vdW  Elec       q    Type
REMARK                         _______ _______ _______ _____ _____    ______ ____
ROOT
ATOM      9  C   UNL     1      -3.297   2.532  24.737  0.00  0.00    +0.203 A 
ATOM     10  N   UNL     1      -2.999   3.005  24.130  0.00  0.00    -0.056 NA
ATOM     11  O   UNL     1      -2.175   2.989  24.174  0.00  0.00    -0.336 OA
ATOM     12  C   UNL     1      -1.963   2.506  24.808  0.00  0.00    +0.251 A 
ATOM     13  N   UNL     1      -2.656   2.223  25.156  0.00  0.00    -0.190 NA
ENDROOT
BRANCH   9   6
ATOM      1  C   UNL     1      -6.485   1.970  25.375  0.00  0.00    +0.033 C 
ATOM      2  C   UNL     1      -5.688   2.111  25.215  0.00  0.00    +0.006 A 
ATOM      3  C   UNL     1      -5.349   2.835  25.415  0.00  0.00    +0.136 A 
ATOM      4  F   UNL     1      -5.807   3.420  25.774  0.00  0.00    -0.205 F 
ATOM      5  C   UNL     1      -4.552   2.976  25.255  0.00  0.00    +0.032 A 
ATOM      6  C   UNL     1      -4.094   2.391  24.896  0.00  0.00    +0.041 A 
ATOM      7  C   UNL     1      -4.433   1.666  24.697  0.00  0.00    +0.003 A 
ATOM      8  C   UNL     1      -5.231   1.525  24.856  0.00  0.00    -0.002 A 
ENDBRANCH   9   6
BRANCH  12  14
ATOM     14  C   UNL     1      -1.194   2.335  25.052  0.00  0.00    +0.141 C 
ATOM     15  C   UNL     1      -0.786   2.708  25.663  0.00  0.00    +0.060 C 
ATOM     16  C   UNL     1      -0.037   2.365  25.717  0.00  0.00    +0.170 C 
ATOM     17  O   UNL     1       0.554   2.571  26.255  0.00  0.00    -0.222 OA
ATOM     18  C   UNL     1       0.016   1.780  25.138  0.00  0.00    +0.106 C 
ATOM     19  N   UNL     1      -0.698   1.761  24.727  0.00  0.00    -0.258 NA
BRANCH  19  20
ATOM     20  C   UNL     1      -0.885   1.257  24.102  0.00  0.00    +0.139 C 
BRANCH  20  21
ATOM     21  C   UNL     1      -0.411   0.599  23.948  0.00  0.00    +0.155 A 
ATOM     22  N   UNL     1      -0.504  -0.153  24.278  0.00  0.00    -0.226 NA
ATOM     23  C   UNL     1       0.087  -0.640  23.972  0.00  0.00    +0.121 A 
ATOM     24  C   UNL     1       0.545  -0.190  23.453  0.00  0.00    +0.121 A 
ATOM     25  N   UNL     1       0.237   0.575  23.438  0.00  0.00    -0.226 NA
ENDBRANCH  20  21
ENDBRANCH  19  20
ENDBRANCH  12  14
TORSDOF 4
ENDMDL
MODEL 4
REMARK VINA RESULT:     -10.7      2.189      4.645
REMARK  Name = 
REMARK  4 active torsions:
REMARK  status: ('A' for Active; 'I' for Inactive)
REMARK    1  A    between atoms: C_6  and  C_9
REMARK    2  A    between atoms: C_12  and  C_14
REMARK    3  A    between atoms: N_19  and  C_20
REMARK    4  A    between atoms: C_20  and  C_21
REMARK                            x       y       z     vdW  Elec       q    Type
REMARK                         _______ _______ _______ _____ _____    ______ ____
ROOT
ATOM      9  C   UNL     1      -4.201   1.238  24.376  0.00  0.00    +0.203 A 
ATOM     10  N   UNL     1      -3.836   1.215  23.636  0.00  0.00    -0.056 NA
ATOM     11  O   UNL     1      -3.549   0.450  23.517  0.00  0.00    -0.336 OA
ATOM     12  C   UNL     1      -3.737   0.001  24.183  0.00  0.00    +0.251 A 
ATOM     13  N   UNL     1      -4.140   0.488  24.714  0.00  0.00    -0.190 NA
ENDROOT
BRANCH   9   6
ATOM      1  C   UNL     1      -5.649   3.870  25.742  0.00  0.00    +0.033 C 
ATOM      2  C   UNL     1      -5.287   3.212  25.401  0.00  0.00    +0.006 A 
ATOM      3  C   UNL     1      -4.499   3.253  25.163  0.00  0.00    +0.136 A 
ATOM      4  F   UNL     1      -4.073   3.951  25.266  0.00  0.00    -0.205 F 
ATOM      5  C   UNL     1      -4.137   2.595  24.821  0.00  0.00    +0.032 A 
ATOM      6  C   UNL     1      -4.563   1.896  24.717  0.00  0.00    +0.041 A 
ATOM      7  C   UNL     1      -5.352   1.856  24.956  0.00  0.00    +0.003 A 
ATOM      8  C   UNL     1      -5.714   2.513  25.298  0.00  0.00    -0.002 A 
ENDBRANCH   9   6
BRANCH  12  14
ATOM     14  C   UNL     1      -3.555  -0.795  24.299  0.00  0.00    +0.141 C 
ATOM     15  C   UNL     1      -4.035  -1.435  24.102  0.00  0.00    +0.060 C 
ATOM     16  C   UNL     1      -3.637  -2.127  24.313  0.00  0.00    +0.170 C 
ATOM     17  O   UNL     1      -3.917  -2.898  24.214  0.00  0.00    -0.222 OA
ATOM     18  C   UNL     1      -2.910  -1.913  24.640  0.00  0.00    +0.106 C 
ATOM     19  N   UNL     1      -2.860  -1.090  24.631  0.00  0.00    -0.258 NA
BRANCH  19  20
ATOM     20  C   UNL     1      -2.225  -0.641  24.906  0.00  0.00    +0.139 C 
BRANCH  20  21
ATOM     21  C   UNL     1      -1.473  -0.978  24.957  0.00  0.00    +0.155 A 
ATOM     22  N   UNL     1      -1.161  -1.372  25.613  0.00  0.00    -0.226 NA
ATOM     23  C   UNL     1      -0.397  -1.618  25.422  0.00  0.00    +0.121 A 
ATOM     24  C   UNL     1      -0.237  -1.376  24.649  0.00  0.00    +0.121 A 
ATOM     25  N   UNL     1      -0.901  -0.982  24.362  0.00  0.00    -0.226 NA
ENDBRANCH  20  21
ENDBRANCH  19  20
ENDBRANCH  12  14
TORSDOF 4
ENDMDL
MODEL 5
REMARK VINA RESULT:     -10.6      2.856      5.638
REMARK  Name = 
REMARK  4 active torsions:
REMARK  status: ('A' for Active; 'I' for Inactive)
REMARK    1  A    between atoms: C_6  and  C_9
REMARK    2  A    between atoms: C_12  and  C_14
REMARK    3  A    between atoms: N_19  and  C_20
REMARK    4  A    between atoms: C_20  and  C_21
REMARK                            x       y       z     vdW  Elec       q    Type
REMARK                         _______ _______ _______ _____ _____    ______ ____
ROOT
ATOM      9  C   UNL     1      -1.005   2.588  25.518  0.00  0.00    +0.203 A 
ATOM     10  N   UNL     1      -0.665   2.260  26.194  0.00  0.00    -0.056 NA
ATOM     11  O   UNL     1      -0.550   1.454  26.057  0.00  0.00    -0.336 OA
ATOM     12  C   UNL     1      -0.819   1.284  25.296  0.00  0.00    +0.251 A 
ATOM     13  N   UNL     1      -1.101   1.985  24.962  0.00  0.00    -0.190 NA
ENDROOT
BRANCH   9   6
ATOM      1  C   UNL     1      -1.839   5.754  25.105  0.00  0.00    +0.033 C 
ATOM      2  C   UNL     1      -1.630   4.962  25.208  0.00  0.00    +0.006 A 
ATOM      3  C   UNL     1      -0.889   4.697  24.966  0.00  0.00    +0.136 A 
ATOM      4  F   UNL     1      -0.355   5.222  24.621  0.00  0.00    -0.205 F 
ATOM      5  C   UNL     1      -0.680   3.905  25.069  0.00  0.00    +0.032 A 
ATOM      6  C   UNL     1      -1.214   3.379  25.415  0.00  0.00    +0.041 A 
ATOM      7  C   UNL     1      -1.957   3.646  25.657  0.00  0.00    +0.003 A 
ATOM      8  C   UNL     1      -2.165   4.437  25.554  0.00  0.00    -0.002 A 
ENDBRANCH   9   6
BRANCH  12  14
ATOM     14  C   UNL     1      -0.809   0.544  24.932  0.00  0.00    +0.141 C 
ATOM     15  C   UNL     1      -0.198   0.241  24.468  0.00  0.00    +0.060 C 
ATOM     16  C   UNL     1      -0.420  -0.514  24.217  0.00  0.00    +0.170 C 
ATOM     17  O   UNL     1       0.029  -1.018  23.741  0.00  0.00    -0.222 OA
ATOM     18  C   UNL     1      -1.167  -0.676  24.526  0.00  0.00    +0.106 C 
ATOM     19  N   UNL     1      -1.408  -0.022  24.968  0.00  0.00    -0.258 NA
BRANCH  19  20
ATOM     20  C   UNL     1      -2.122   0.051  25.374  0.00  0.00    +0.139 C 
BRANCH  20  21
ATOM     21  C   UNL     1      -2.714  -0.515  25.272  0.00  0.00    +0.155 A 
ATOM     22  N   UNL     1      -2.834  -1.181  25.746  0.00  0.00    -0.226 NA
ATOM     23  C   UNL     1      -3.484  -1.592  25.447  0.00  0.00    +0.121 A 
ATOM     24  C   UNL     1      -3.765  -1.180  24.789  0.00  0.00    +0.121 A 
ATOM     25  N   UNL     1      -3.289  -0.515  24.681  0.00  0.00    -0.226 NA
ENDBRANCH  20  21
ENDBRANCH  19  20
ENDBRANCH  12  14
TORSDOF 4
ENDMDL
MODEL 6
REMARK VINA RESULT:     -10.5      1.215      1.973
REMARK  Name = 
REMARK  4 active torsions:
REMARK  status: ('A' for Active; 'I' for Inactive)
REMARK    1  A    between atoms: C_6  and  C_9
REMARK    2  A    between atoms: C_12  and  C_14
REMARK    3  A    between atoms: N_19  and  C_20
REMARK    4  A    between atoms: C_20  and  C_21
REMARK                            x       y       z     vdW  Elec       q    Type
REMARK                         _______ _______ _______ _____ _____    ______ ____
ROOT
ATOM      9  C   UNL     1      -2.965   0.095  24.182  0.00  0.00    +0.203 A 
ATOM     10  N   UNL     1      -2.800   0.466  23.464  0.00  0.00    -0.056 NA
ATOM     11  O   UNL     1      -2.662   1.266  23.616  0.00  0.00    -0.336 OA
ATOM     12  C   UNL     1      -2.742   1.388  24.428  0.00  0.00    +0.251 A 
ATOM     13  N   UNL     1      -2.929   0.665  24.778  0.00  0.00    -0.190 NA
ENDROOT
BRANCH   9   6
ATOM      1  C   UNL     1      -3.648  -3.107  24.599  0.00  0.00    +0.033 C 
ATOM      2  C   UNL     1      -3.477  -2.306  24.494  0.00  0.00    +0.006 A 
ATOM      3  C   UNL     1      -4.013  -1.818  24.102  0.00  0.00    +0.136 A 
ATOM      4  F   UNL     1      -4.720  -2.130  23.814  0.00  0.00    -0.205 F 
ATOM      5  C   UNL     1      -3.843  -1.018  23.998  0.00  0.00    +0.032 A 
ATOM      6  C   UNL     1      -3.136  -0.705  24.286  0.00  0.00    +0.041 A 
ATOM      7  C   UNL     1      -2.599  -1.195  24.679  0.00  0.00    +0.003 A 
ATOM      8  C   UNL     1      -2.770  -1.995  24.783  0.00  0.00    -0.002 A 
ENDBRANCH   9   6
BRANCH  12  14
ATOM     14  C   UNL     1      -2.651   2.108  24.821  0.00  0.00    +0.141 C 
ATOM     15  C   UNL     1      -1.960   2.379  25.180  0.00  0.00    +0.060 C 
ATOM     16  C   UNL     1      -2.117   3.121  25.505  0.00  0.00    +0.170 C 
ATOM     17  O   UNL     1      -1.579   3.594  25.917  0.00  0.00    -0.222 OA
ATOM     18  C   UNL     1      -2.904   3.308  25.346  0.00  0.00    +0.106 C 
ATOM     19  N   UNL     1      -3.234   2.682  24.923  0.00  0.00    -0.258 NA
BRANCH  19  20
ATOM     20  C   UNL     1      -4.011   2.638  24.651  0.00  0.00    +0.139 C 
BRANCH  20  21
ATOM     21  C   UNL     1      -4.617   3.008  25.072  0.00  0.00    +0.155 A 
ATOM     22  N   UNL     1      -5.112   2.649  25.626  0.00  0.00    -0.226 NA
ATOM     23  C   UNL     1      -5.635   3.220  25.909  0.00  0.00    +0.121 A 
ATOM     24  C   UNL     1      -5.464   3.933  25.529  0.00  0.00    +0.121 A 
ATOM     25  N   UNL     1      -4.835   3.802  25.012  0.00  0.00    -0.226 NA
ENDBRANCH  20  21
ENDBRANCH  19  20
ENDBRANCH  12  14
TORSDOF 4
ENDMDL
