MODEL 1
REMARK VINA RESULT:      -8.1      0.000      0.000
REMARK  Name = 
REMARK  4 active torsions:
REMARK  status: ('A' for Active; 'I' for Inactive)
REMARK    1  A    between atoms: O_2  and  C_3
REMARK    2  A    between atoms: C_3  and  C_4
REMARK    3  A    between atoms: C_4  and  N_5
REMARK    4  A    between atoms: C_15  and  C_17
REMARK                            x       y       z     vdW  Elec       q    Type
REMARK                         _______ _______ _______ _____ _____    ______ ____
ROOT
ATOM      5  N   UNL     1      -3.049   2.699  24.929  0.00  0.00    -0.260 N 
ATOM      6  C   UNL     1      -2.436   2.154  24.840  0.00  0.00    +0.117 C 
ATOM      7  C   UNL     1      -2.770   1.402  24.786  0.00  0.00    +0.116 C 
ATOM      8  C   UNL     1      -2.436   0.654  24.693  0.00  0.00    +0.115 C 
ATOM      9  N   UNL     1      -2.919  -0.013  24.655  0.00  0.00    -0.270 N 
ATOM     10  C   UNL     1      -3.738   0.068  24.710  0.00  0.00    +0.115 C 
ATOM     11  C   UNL     1      -4.074   0.815  24.803  0.00  0.00    +0.116 C 
ATOM     12  N   UNL     1      -3.590   1.483  24.841  0.00  0.00    -0.261 N 
ATOM     13  C   UNL     1      -3.761   2.284  24.930  0.00  0.00    +0.307 C 
ATOM     14  O   UNL     1      -4.514   2.614  25.005  0.00  0.00    -0.252 OA
ATOM     15  C   UNL     1      -2.584  -0.762  24.562  0.00  0.00    +0.287 C 
ATOM     16  O   UNL     1      -1.765  -0.842  24.507  0.00  0.00    -0.266 OA
ENDROOT
BRANCH  15  17
ATOM     17  C   UNL     1      -3.067  -1.428  24.524  0.00  0.00    +0.230 A 
ATOM     18  C   UNL     1      -3.163  -1.993  25.119  0.00  0.00    +0.069 A 
ATOM     19  C   UNL     1      -3.695  -2.562  24.847  0.00  0.00    +0.144 A 
ATOM     20  N   UNL     1      -3.928  -2.349  24.084  0.00  0.00    -0.075 NA
ATOM     21  O   UNL     1      -3.540  -1.649  23.885  0.00  0.00    -0.349 OA
ENDBRANCH  15  17
BRANCH   5   4
ATOM      4  C   UNL     1      -2.963   3.516  25.005  0.00  0.00    +0.127 C 
BRANCH   4   3
ATOM      3  C   UNL     1      -2.213   3.846  25.099  0.00  0.00    +0.164 C 
BRANCH   3   2
ATOM      1  C   UNL     1      -1.404   5.023  25.141  0.00  0.00    +0.174 C 
ATOM      2  O   UNL     1      -2.133   4.652  25.254  0.00  0.00    -0.349 OA
ENDBRANCH   3   2
ENDBRANCH   4   3
ENDBRANCH   5   4
TORSDOF 4
ENDMDL
MODEL 2
REMARK VINA RESULT:      -8.1      1.273      1.836
REMARK  Name = 
REMARK  4 active torsions:
REMARK  status: ('A' for Active; 'I' for Inactive)
REMARK    1  A    between atoms: O_2  and  C_3
REMARK    2  A    between atoms: C_3  and  C_4
REMARK    3  A    between atoms: C_4  and  N_5
REMARK    4  A    between atoms: C_15  and  C_17
REMARK                            x       y       z     vdW  Elec       q    Type
REMARK                         _______ _______ _______ _____ _____    ______ ____
ROOT
ATOM      5  N   UNL     1      -1.278   2.162  24.907  0.00  0.00    -0.260 N 
ATOM      6  C   UNL     1      -2.092   2.061  25.000  0.00  0.00    +0.117 C 
ATOM      7  C   UNL     1      -2.258   1.257  24.933  0.00  0.00    +0.116 C 
ATOM      8  C   UNL     1      -2.964   0.832  24.976  0.00  0.00    +0.115 C 
ATOM      9  N   UNL     1      -2.960   0.013  24.886  0.00  0.00    -0.270 N 
ATOM     10  C   UNL     1      -2.249  -0.384  24.752  0.00  0.00    +0.115 C 
ATOM     11  C   UNL     1      -1.542   0.039  24.708  0.00  0.00    +0.116 C 
ATOM     12  N   UNL     1      -1.547   0.860  24.798  0.00  0.00    -0.261 N 
ATOM     13  C   UNL     1      -0.942   1.420  24.782  0.00  0.00    +0.307 C 
ATOM     14  O   UNL     1      -0.140   1.264  24.663  0.00  0.00    -0.252 OA
ATOM     15  C   UNL     1      -3.667  -0.411  24.930  0.00  0.00    +0.287 C 
ATOM     16  O   UNL     1      -4.378  -0.015  25.064  0.00  0.00    -0.266 OA
ENDROOT
BRANCH  15  17
ATOM     17  C   UNL     1      -3.663  -1.230  24.839  0.00  0.00    +0.230 A 
ATOM     18  C   UNL     1      -3.874  -1.645  24.158  0.00  0.00    +0.069 A 
ATOM     19  C   UNL     1      -3.789  -2.451  24.312  0.00  0.00    +0.144 A 
ATOM     20  N   UNL     1      -3.524  -2.535  25.090  0.00  0.00    -0.075 NA
ATOM     21  O   UNL     1      -3.446  -1.781  25.415  0.00  0.00    -0.349 OA
ENDBRANCH  15  17
BRANCH   5   4
ATOM      4  C   UNL     1      -0.872   2.880  24.934  0.00  0.00    +0.127 C 
BRANCH   4   3
ATOM      3  C   UNL     1      -1.289   3.587  25.012  0.00  0.00    +0.164 C 
BRANCH   3   2
ATOM      1  C   UNL     1      -1.302   5.015  25.077  0.00  0.00    +0.174 C 
ATOM      2  O   UNL     1      -0.883   4.304  25.054  0.00  0.00    -0.349 OA
ENDBRANCH   3   2
ENDBRANCH   4   3
ENDBRANCH   5   4
TORSDOF 4
ENDMDL
MODEL 3
REMARK VINA RESULT:      -7.7      1.167      4.614
REMARK  Name = 
REMARK  4 active torsions:
REMARK  status: ('A' for Active; 'I' for Inactive)
REMARK    1  A    between atoms: O_2  and  C_3
REMARK    2  A    between atoms: C_3  and  C_4
REMARK    3  A    between atoms: C_4  and  N_5
REMARK    4  A    between atoms: C_15  and  C_17
REMARK                            x       y       z     vdW  Elec       q    Type
REMARK                         _______ _______ _______ _____ _____    ______ ____
ROOT
ATOM      5  N   UNL     1      -3.904   0.316  24.638  0.00  0.00    -0.260 N 
ATOM      6  C   UNL     1      -3.091   0.386  24.764  0.00  0.00    +0.117 C 
ATOM      7  C   UNL     1      -2.914   1.187  24.842  0.00  0.00    +0.116 C 
ATOM      8  C   UNL     1      -2.204   1.586  24.974  0.00  0.00    +0.115 C 
ATOM      9  N   UNL     1      -2.196   2.409  25.028  0.00  0.00    -0.270 N 
ATOM     10  C   UNL     1      -2.899   2.834  24.950  0.00  0.00    +0.115 C 
ATOM     11  C   UNL     1      -3.610   2.436  24.818  0.00  0.00    +0.116 C 
ATOM     12  N   UNL     1      -3.617   1.612  24.764  0.00  0.00    -0.261 N 
ATOM     13  C   UNL     1      -4.228   1.074  24.638  0.00  0.00    +0.307 C 
ATOM     14  O   UNL     1      -5.025   1.260  24.530  0.00  0.00    -0.252 OA
ATOM     15  C   UNL     1      -1.486   2.807  25.160  0.00  0.00    +0.287 C 
ATOM     16  O   UNL     1      -0.783   2.382  25.238  0.00  0.00    -0.266 OA
ENDROOT
BRANCH  15  17
ATOM     17  C   UNL     1      -1.478   3.630  25.215  0.00  0.00    +0.230 A 
ATOM     18  C   UNL     1      -1.068   4.146  24.718  0.00  0.00    +0.069 A 
ATOM     19  C   UNL     1      -1.216   4.916  24.971  0.00  0.00    +0.144 A 
ATOM     20  N   UNL     1      -1.717   4.878  25.626  0.00  0.00    -0.075 NA
ATOM     21  O   UNL     1      -1.879   4.083  25.776  0.00  0.00    -0.349 OA
ENDBRANCH  15  17
BRANCH   5   4
ATOM      4  C   UNL     1      -4.318  -0.390  24.530  0.00  0.00    +0.127 C 
BRANCH   4   3
ATOM      3  C   UNL     1      -3.917  -1.075  24.309  0.00  0.00    +0.164 C 
BRANCH   3   2
ATOM      1  C   UNL     1      -3.983  -2.485  24.088  0.00  0.00    +0.174 C 
ATOM      2  O   UNL     1      -4.339  -1.741  24.066  0.00  0.00    -0.349 OA
ENDBRANCH   3   2
ENDBRANCH   4   3
ENDBRANCH   5   4
TORSDOF 4
ENDMDL
MODEL 4
REMARK VINA RESULT:      -7.7      1.897      3.878
REMARK  Name = 
REMARK  4 active torsions:
REMARK  status: ('A' for Active; 'I' for Inactive)
REMARK    1  A    between atoms: O_2  and  C_3
REMARK    2  A    between atoms: C_3  and  C_4
REMARK    3  A    between atoms: C_4  and  N_5
REMARK    4  A    between atoms: C_15  and  C_17
REMARK                            x       y       z     vdW  Elec       q    Type
REMARK                         _______ _______ _______ _____ _____    ______ ____
ROOT
ATOM      5  N   UNL     1      -1.067   0.258  24.241  0.00  0.00    -0.260 N 
ATOM      6  C   UNL     1      -1.332   0.967  23.912  0.00  0.00    +0.117 C 
ATOM      7  C   UNL     1      -2.089   1.116  24.203  0.00  0.00    +0.116 C 
ATOM      8  C   UNL     1      -2.621   1.733  24.071  0.00  0.00    +0.115 C 
ATOM      9  N   UNL     1      -3.354   1.734  24.446  0.00  0.00    -0.270 N 
ATOM     10  C   UNL     1      -3.558   1.117  24.955  0.00  0.00    +0.115 C 
ATOM     11  C   UNL     1      -3.027   0.499  25.088  0.00  0.00    +0.116 C 
ATOM     12  N   UNL     1      -2.292   0.499  24.712  0.00  0.00    -0.261 N 
ATOM     13  C   UNL     1      -1.661  -0.031  24.735  0.00  0.00    +0.307 C 
ATOM     14  O   UNL     1      -1.629  -0.728  25.176  0.00  0.00    -0.252 OA
ATOM     15  C   UNL     1      -3.886   2.351  24.314  0.00  0.00    +0.287 C 
ATOM     16  O   UNL     1      -3.683   2.968  23.805  0.00  0.00    -0.266 OA
ENDROOT
BRANCH  15  17
ATOM     17  C   UNL     1      -4.620   2.352  24.690  0.00  0.00    +0.230 A 
ATOM     18  C   UNL     1      -4.828   2.805  25.347  0.00  0.00    +0.069 A 
ATOM     19  C   UNL     1      -5.612   2.632  25.538  0.00  0.00    +0.144 A 
ATOM     20  N   UNL     1      -5.889   2.072  24.998  0.00  0.00    -0.075 NA
ATOM     21  O   UNL     1      -5.275   1.899  24.474  0.00  0.00    -0.349 OA
ENDBRANCH  15  17
BRANCH   5   4
ATOM      4  C   UNL     1      -0.337  -0.099  24.101  0.00  0.00    +0.127 C 
BRANCH   4   3
ATOM      3  C   UNL     1       0.137   0.163  23.479  0.00  0.00    +0.164 C 
BRANCH   3   2
ATOM      1  C   UNL     1       1.376   0.037  22.778  0.00  0.00    +0.174 C 
ATOM      2  O   UNL     1       0.763  -0.304  23.212  0.00  0.00    -0.349 OA
ENDBRANCH   3   2
ENDBRANCH   4   3
ENDBRANCH   5   4
TORSDOF 4
ENDMDL
MODEL 5
REMARK VINA RESULT:      -7.4      1.647      1.959
REMARK  Name = 
REMARK  4 active torsions:
REMARK  status: ('A' for Active; 'I' for Inactive)
REMARK    1  A    between atoms: O_2  and  C_3
REMARK    2  A    between atoms: C_3  and  C_4
REMARK    3  A    between atoms: C_4  and  N_5
REMARK    4  A    between atoms: C_15  and  C_17
REMARK                            x       y       z     vdW  Elec       q    Type
REMARK                         _______ _______ _______ _____ _____    ______ ____
ROOT
ATOM      5  N   UNL     1      -4.227   2.115  24.576  0.00  0.00    -0.260 N 
ATOM      6  C   UNL     1      -4.378   1.525  25.134  0.00  0.00    +0.117 C 
ATOM      7  C   UNL     1      -3.932   0.862  24.930  0.00  0.00    +0.116 C 
ATOM      8  C   UNL     1      -3.859   0.117  25.278  0.00  0.00    +0.115 C 
ATOM      9  N   UNL     1      -3.360  -0.447  24.943  0.00  0.00    -0.270 N 
ATOM     10  C   UNL     1      -2.934  -0.268  24.260  0.00  0.00    +0.115 C 
ATOM     11  C   UNL     1      -3.006   0.476  23.911  0.00  0.00    +0.116 C 
ATOM     12  N   UNL     1      -3.506   1.041  24.247  0.00  0.00    -0.261 N 
ATOM     13  C   UNL     1      -3.688   1.815  24.028  0.00  0.00    +0.307 C 
ATOM     14  O   UNL     1      -3.384   2.220  23.376  0.00  0.00    -0.252 OA
ATOM     15  C   UNL     1      -3.287  -1.192  25.291  0.00  0.00    +0.287 C 
ATOM     16  O   UNL     1      -3.713  -1.371  25.974  0.00  0.00    -0.266 OA
ENDROOT
BRANCH  15  17
ATOM     17  C   UNL     1      -2.788  -1.757  24.957  0.00  0.00    +0.230 A 
ATOM     18  C   UNL     1      -3.023  -2.403  24.501  0.00  0.00    +0.069 A 
ATOM     19  C   UNL     1      -2.346  -2.821  24.281  0.00  0.00    +0.144 A 
ATOM     20  N   UNL     1      -1.692  -2.432  24.602  0.00  0.00    -0.075 NA
ATOM     21  O   UNL     1      -1.965  -1.775  25.019  0.00  0.00    -0.349 OA
ENDBRANCH  15  17
BRANCH   5   4
ATOM      4  C   UNL     1      -4.557   2.871  24.569  0.00  0.00    +0.127 C 
BRANCH   4   3
ATOM      3  C   UNL     1      -4.976   3.145  25.224  0.00  0.00    +0.164 C 
BRANCH   3   2
ATOM      1  C   UNL     1      -5.837   4.203  25.650  0.00  0.00    +0.174 C 
ATOM      2  O   UNL     1      -5.129   3.951  25.309  0.00  0.00    -0.349 OA
ENDBRANCH   3   2
ENDBRANCH   4   3
ENDBRANCH   5   4
TORSDOF 4
ENDMDL
MODEL 6
REMARK VINA RESULT:      -7.2     17.863     19.094
REMARK  Name = 
REMARK  4 active torsions:
REMARK  status: ('A' for Active; 'I' for Inactive)
REMARK    1  A    between atoms: O_2  and  C_3
REMARK    2  A    between atoms: C_3  and  C_4
REMARK    3  A    between atoms: C_4  and  N_5
REMARK    4  A    between atoms: C_15  and  C_17
REMARK                            x       y       z     vdW  Elec       q    Type
REMARK                         _______ _______ _______ _____ _____    ______ ____
ROOT
ATOM      5  N   UNL     1      14.685   6.819  20.230  0.00  0.00    -0.260 N 
ATOM      6  C   UNL     1      14.815   6.981  19.431  0.00  0.00    +0.117 C 
ATOM      7  C   UNL     1      14.096   7.206  19.097  0.00  0.00    +0.116 C 
ATOM      8  C   UNL     1      13.888   7.429  18.330  0.00  0.00    +0.115 C 
ATOM      9  N   UNL     1      13.108   7.629  18.155  0.00  0.00    -0.270 N 
ATOM     10  C   UNL     1      12.534   7.607  18.746  0.00  0.00    +0.115 C 
ATOM     11  C   UNL     1      12.740   7.384  19.514  0.00  0.00    +0.116 C 
ATOM     12  N   UNL     1      13.521   7.184  19.689  0.00  0.00    -0.261 N 
ATOM     13  C   UNL     1      13.885   6.945  20.389  0.00  0.00    +0.307 C 
ATOM     14  O   UNL     1      13.515   6.848  21.120  0.00  0.00    -0.252 OA
ATOM     15  C   UNL     1      12.901   7.852  17.388  0.00  0.00    +0.287 C 
ATOM     16  O   UNL     1      13.476   7.874  16.796  0.00  0.00    -0.266 OA
ENDROOT
BRANCH  15  17
ATOM     17  C   UNL     1      12.121   8.052  17.212  0.00  0.00    +0.230 A 
ATOM     18  C   UNL     1      11.831   8.815  17.093  0.00  0.00    +0.069 A 
ATOM     19  C   UNL     1      11.023   8.759  16.932  0.00  0.00    +0.144 A 
ATOM     20  N   UNL     1      10.814   7.961  16.952  0.00  0.00    -0.075 NA
ATOM     21  O   UNL     1      11.493   7.524  17.126  0.00  0.00    -0.349 OA
ENDBRANCH  15  17
BRANCH   5   4
ATOM      4  C   UNL     1      15.255   6.575  20.774  0.00  0.00    +0.127 C 
BRANCH   4   3
ATOM      3  C   UNL     1      16.056   6.647  20.593  0.00  0.00    +0.164 C 
BRANCH   3   2
ATOM      1  C   UNL     1      17.405   6.632  21.064  0.00  0.00    +0.174 C 
ATOM      2  O   UNL     1      16.626   6.368  21.121  0.00  0.00    -0.349 OA
ENDBRANCH   3   2
ENDBRANCH   4   3
ENDBRANCH   5   4
TORSDOF 4
ENDMDL
MODEL 7
REMARK VINA RESULT:      -7.2     16.481     18.531
REMARK  Name = 
REMARK  4 active torsions:
REMARK  status: ('A' for Active; 'I' for Inactive)
REMARK    1  A    between atoms: O_2  and  C_3
REMARK    2  A    between atoms: C_3  and  C_4
REMARK    3  A    between atoms: C_4  and  N_5
REMARK    4  A    between atoms: C_15  and  C_17
REMARK                            x       y       z     vdW  Elec       q    Type
REMARK                         _______ _______ _______ _____ _____    ______ ____
ROOT
ATOM      5  N   UNL     1      15.360   6.969  20.528  0.00  0.00    -0.260 N 
ATOM      6  C   UNL     1      14.706   6.688  20.111  0.00  0.00    +0.117 C 
ATOM      7  C   UNL     1      14.027   6.924  20.513  0.00  0.00    +0.116 C 
ATOM      8  C   UNL     1      13.224   6.806  20.360  0.00  0.00    +0.115 C 
ATOM      9  N   UNL     1      12.656   7.115  20.871  0.00  0.00    -0.270 N 
ATOM     10  C   UNL     1      12.890   7.543  21.537  0.00  0.00    +0.115 C 
ATOM     11  C   UNL     1      13.692   7.662  21.691  0.00  0.00    +0.116 C 
ATOM     12  N   UNL     1      14.260   7.352  21.179  0.00  0.00    -0.261 N 
ATOM     13  C   UNL     1      15.084   7.380  21.188  0.00  0.00    +0.307 C 
ATOM     14  O   UNL     1      15.551   7.753  21.757  0.00  0.00    -0.252 OA
ATOM     15  C   UNL     1      11.854   6.997  20.718  0.00  0.00    +0.287 C 
ATOM     16  O   UNL     1      11.620   6.569  20.053  0.00  0.00    -0.266 OA
ENDROOT
BRANCH  15  17
ATOM     17  C   UNL     1      11.286   7.306  21.230  0.00  0.00    +0.230 A 
ATOM     18  C   UNL     1      10.886   8.022  21.136  0.00  0.00    +0.069 A 
ATOM     19  C   UNL     1      10.371   8.111  21.774  0.00  0.00    +0.144 A 
ATOM     20  N   UNL     1      10.452   7.451  22.263  0.00  0.00    -0.075 NA
ATOM     21  O   UNL     1      11.018   6.953  21.926  0.00  0.00    -0.349 OA
ENDBRANCH  15  17
BRANCH   5   4
ATOM      4  C   UNL     1      16.151   6.859  20.321  0.00  0.00    +0.127 C 
BRANCH   4   3
ATOM      3  C   UNL     1      16.345   6.431  19.643  0.00  0.00    +0.164 C 
BRANCH   3   2
ATOM      1  C   UNL     1      17.405   5.768  18.952  0.00  0.00    +0.174 C 
ATOM      2  O   UNL     1      17.123   6.422  19.368  0.00  0.00    -0.349 OA
ENDBRANCH   3   2
ENDBRANCH   4   3
ENDBRANCH   5   4
TORSDOF 4
ENDMDL
MODEL 8
REMARK VINA RESULT:      -7.1     16.063     18.198
REMARK  Name = 
REMARK  4 active torsions:
REMARK  status: ('A' for Active; 'I' for Inactive)
REMARK    1  A    between atoms: O_2  and  C_3
REMARK    2  A    between atoms: C_3  and  C_4
REMARK    3  A    between atoms: C_4  and  N_5
REMARK    4  A    between atoms: C_15  and  C_17
REMARK                            x       y       z     vdW  Elec       q    Type
REMARK                         _______ _______ _______ _____ _____    ______ ____
ROOT
ATOM      5  N   UNL     1      13.559   7.886  17.779  0.00  0.00    -0.260 N 
ATOM      6  C   UNL     1      12.799   8.202  17.848  0.00  0.00    +0.117 C 
ATOM      7  C   UNL     1      12.525   8.043  18.609  0.00  0.00    +0.116 C 
ATOM      8  C   UNL     1      11.815   8.220  18.989  0.00  0.00    +0.115 C 
ATOM      9  N   UNL     1      11.694   7.985  19.770  0.00  0.00    -0.270 N 
ATOM     10  C   UNL     1      12.284   7.571  20.172  0.00  0.00    +0.115 C 
ATOM     11  C   UNL     1      12.994   7.393  19.793  0.00  0.00    +0.116 C 
ATOM     12  N   UNL     1      13.115   7.629  19.011  0.00  0.00    -0.261 N 
ATOM     13  C   UNL     1      13.753   7.532  18.498  0.00  0.00    +0.307 C 
ATOM     14  O   UNL     1      14.463   7.149  18.673  0.00  0.00    -0.252 OA
ATOM     15  C   UNL     1      10.984   8.163  20.150  0.00  0.00    +0.287 C 
ATOM     16  O   UNL     1      10.394   8.577  19.748  0.00  0.00    -0.266 OA
ENDROOT
BRANCH  15  17
ATOM     17  C   UNL     1      10.863   7.928  20.931  0.00  0.00    +0.230 A 
ATOM     18  C   UNL     1      10.918   8.411  21.598  0.00  0.00    +0.069 A 
ATOM     19  C   UNL     1      10.755   7.949  22.262  0.00  0.00    +0.144 A 
ATOM     20  N   UNL     1      10.598   7.180  22.005  0.00  0.00    -0.075 NA
ATOM     21  O   UNL     1      10.665   7.167  21.183  0.00  0.00    -0.349 OA
ENDBRANCH  15  17
BRANCH   5   4
ATOM      4  C   UNL     1      14.039   7.919  17.109  0.00  0.00    +0.127 C 
BRANCH   4   3
ATOM      3  C   UNL     1      13.847   8.429  16.489  0.00  0.00    +0.164 C 
BRANCH   3   2
ATOM      1  C   UNL     1      14.438   8.969  15.305  0.00  0.00    +0.174 C 
ATOM      2  O   UNL     1      14.184   8.317  15.744  0.00  0.00    -0.349 OA
ENDBRANCH   3   2
ENDBRANCH   4   3
ENDBRANCH   5   4
TORSDOF 4
ENDMDL
MODEL 9
REMARK VINA RESULT:      -7.0      2.352      3.173
REMARK  Name = 
REMARK  4 active torsions:
REMARK  status: ('A' for Active; 'I' for Inactive)
REMARK    1  A    between atoms: O_2  and  C_3
REMARK    2  A    between atoms: C_3  and  C_4
REMARK    3  A    between atoms: C_4  and  N_5
REMARK    4  A    between atoms: C_15  and  C_17
REMARK                            x       y       z     vdW  Elec       q    Type
REMARK                         _______ _______ _______ _____ _____    ______ ____
ROOT
ATOM      5  N   UNL     1      -3.799   2.254  24.443  0.00  0.00    -0.260 N 
ATOM      6  C   UNL     1      -3.365   1.774  24.956  0.00  0.00    +0.117 C 
ATOM      7  C   UNL     1      -2.668   1.557  24.573  0.00  0.00    +0.116 C 
ATOM      8  C   UNL     1      -2.030   1.090  24.809  0.00  0.00    +0.115 C 
ATOM      9  N   UNL     1      -1.396   0.968  24.297  0.00  0.00    -0.270 N 
ATOM     10  C   UNL     1      -1.398   1.313  23.547  0.00  0.00    +0.115 C 
ATOM     11  C   UNL     1      -2.035   1.781  23.310  0.00  0.00    +0.116 C 
ATOM     12  N   UNL     1      -2.670   1.903  23.824  0.00  0.00    -0.261 N 
ATOM     13  C   UNL     1      -3.369   2.333  23.744  0.00  0.00    +0.307 C 
ATOM     14  O   UNL     1      -3.599   2.767  23.080  0.00  0.00    -0.252 OA
ATOM     15  C   UNL     1      -0.758   0.500  24.532  0.00  0.00    +0.287 C 
ATOM     16  O   UNL     1      -0.755   0.155  25.282  0.00  0.00    -0.266 OA
ENDROOT
BRANCH  15  17
ATOM     17  C   UNL     1      -0.124   0.378  24.020  0.00  0.00    +0.230 A 
ATOM     18  C   UNL     1       0.032  -0.313  23.597  0.00  0.00    +0.069 A 
ATOM     19  C   UNL     1       0.719  -0.192  23.156  0.00  0.00    +0.144 A 
ATOM     20  N   UNL     1       0.988   0.574  23.306  0.00  0.00    -0.075 NA
ATOM     21  O   UNL     1       0.467   0.926  23.841  0.00  0.00    -0.349 OA
ENDBRANCH  15  17
BRANCH   5   4
ATOM      4  C   UNL     1      -4.533   2.594  24.603  0.00  0.00    +0.127 C 
BRANCH   4   3
ATOM      3  C   UNL     1      -5.016   2.278  25.192  0.00  0.00    +0.164 C 
BRANCH   3   2
ATOM      1  C   UNL     1      -6.246   2.280  25.919  0.00  0.00    +0.174 C 
ATOM      2  O   UNL     1      -5.757   2.608  25.340  0.00  0.00    -0.349 OA
ENDBRANCH   3   2
ENDBRANCH   4   3
ENDBRANCH   5   4
TORSDOF 4
ENDMDL
MODEL 10
REMARK VINA RESULT:      -7.0     16.951     18.851
REMARK  Name = 
REMARK  4 active torsions:
REMARK  status: ('A' for Active; 'I' for Inactive)
REMARK    1  A    between atoms: O_2  and  C_3
REMARK    2  A    between atoms: C_3  and  C_4
REMARK    3  A    between atoms: C_4  and  N_5
REMARK    4  A    between atoms: C_15  and  C_17
REMARK                            x       y       z     vdW  Elec       q    Type
REMARK                         _______ _______ _______ _____ _____    ______ ____
ROOT
ATOM      5  N   UNL     1      12.279   7.317  20.444  0.00  0.00    -0.260 N 
ATOM      6  C   UNL     1      12.884   7.144  20.979  0.00  0.00    +0.117 C 
ATOM      7  C   UNL     1      13.563   6.969  20.546  0.00  0.00    +0.116 C 
ATOM      8  C   UNL     1      14.327   6.758  20.778  0.00  0.00    +0.115 C 
ATOM      9  N   UNL     1      14.906   6.613  20.209  0.00  0.00    -0.270 N 
ATOM     10  C   UNL     1      14.722   6.679  19.408  0.00  0.00    +0.115 C 
ATOM     11  C   UNL     1      13.959   6.889  19.175  0.00  0.00    +0.116 C 
ATOM     12  N   UNL     1      13.379   7.034  19.744  0.00  0.00    -0.261 N 
ATOM     13  C   UNL     1      12.586   7.250  19.682  0.00  0.00    +0.307 C 
ATOM     14  O   UNL     1      12.172   7.376  18.979  0.00  0.00    -0.252 OA
ATOM     15  C   UNL     1      15.669   6.402  20.441  0.00  0.00    +0.287 C 
ATOM     16  O   UNL     1      15.853   6.337  21.242  0.00  0.00    -0.266 OA
ENDROOT
BRANCH  15  17
ATOM     17  C   UNL     1      16.248   6.257  19.872  0.00  0.00    +0.230 A 
ATOM     18  C   UNL     1      16.944   6.688  19.766  0.00  0.00    +0.069 A 
ATOM     19  C   UNL     1      17.359   6.353  19.138  0.00  0.00    +0.144 A 
ATOM     20  N   UNL     1      16.920   5.714  18.854  0.00  0.00    -0.075 NA
ATOM     21  O   UNL     1      16.233   5.655  19.308  0.00  0.00    -0.349 OA
ENDBRANCH  15  17
BRANCH   5   4
ATOM      4  C   UNL     1      11.504   7.523  20.638  0.00  0.00    +0.127 C 
BRANCH   4   3
ATOM      3  C   UNL     1      11.273   7.559  21.429  0.00  0.00    +0.164 C 
BRANCH   3   2
ATOM      1  C   UNL     1      10.305   7.932  22.412  0.00  0.00    +0.174 C 
ATOM      2  O   UNL     1      10.504   7.786  21.625  0.00  0.00    -0.349 OA
ENDBRANCH   3   2
ENDBRANCH   4   3
ENDBRANCH   5   4
TORSDOF 4
ENDMDL
