MODEL 1
REMARK VINA RESULT:     -12.2      0.000      0.000
REMARK  Name = 
REMARK  8 active torsions:
REMARK  status: ('A' for Active; 'I' for Inactive)
REMARK    1  A    between atoms: O_2  and  C_3
REMARK    2  A    between atoms: C_3  and  C_5
REMARK    3  A    between atoms: C_18  and  N_30
REMARK    4  A    between atoms: C_20  and  C_22
REMARK    5  A    between atoms: N_30  and  C_31
REMARK    6  A    between atoms: C_31  and  C_32
REMARK    7  A    between atoms: C_32  and  C_33
REMARK    8  A    between atoms: C_33  and  N_34
REMARK                            x       y       z     vdW  Elec       q    Type
REMARK                         _______ _______ _______ _____ _____    ______ ____
ROOT
ATOM      5  C   UNL     1      -2.900   1.199  24.753  0.00  0.00    +0.162 C 
ATOM      6  C   UNL     1      -2.971   2.003  24.924  0.00  0.00    +0.055 C 
ATOM      7  C   UNL     1      -2.299   2.481  24.941  0.00  0.00    -0.004 A 
ATOM      8  C   UNL     1      -1.556   2.156  24.789  0.00  0.00    +0.070 A 
ATOM      9  N   UNL     1      -0.997   2.759  24.845  0.00  0.00    -0.249 NA
ATOM     10  C   UNL     1      -1.392   3.459  25.032  0.00  0.00    +0.081 A 
ATOM     11  C   UNL     1      -2.198   3.286  25.092  0.00  0.00    +0.015 A 
ATOM     12  C   UNL     1      -2.735   3.885  25.276  0.00  0.00    +0.001 A 
ATOM     13  C   UNL     1      -2.467   4.656  25.400  0.00  0.00    +0.000 A 
ATOM     14  C   UNL     1      -1.662   4.828  25.340  0.00  0.00    +0.002 A 
ATOM     15  C   UNL     1      -1.125   4.229  25.156  0.00  0.00    +0.019 A 
ATOM     16  C   UNL     1      -1.485   1.352  24.618  0.00  0.00    +0.100 C 
ATOM     17  C   UNL     1      -0.744   1.025  24.466  0.00  0.00    +0.040 C 
ATOM     18  C   UNL     1      -0.673   0.222  24.295  0.00  0.00    +0.076 C 
ATOM     19  C   UNL     1      -1.345  -0.256  24.277  0.00  0.00    +0.038 C 
ATOM     20  C   UNL     1      -2.087   0.070  24.430  0.00  0.00    +0.082 C 
ATOM     21  N   UNL     1      -2.157   0.873  24.600  0.00  0.00    -0.258 NA
ENDROOT
BRANCH  20  22
ATOM     22  C   UNL     1      -2.759  -0.409  24.412  0.00  0.00    -0.005 A 
ATOM     23  C   UNL     1      -2.948  -0.880  25.062  0.00  0.00    +0.029 A 
ATOM     24  C   UNL     1      -3.619  -1.359  25.043  0.00  0.00    +0.167 A 
ATOM     25  F   UNL     1      -3.808  -1.830  25.694  0.00  0.00    -0.202 F 
ATOM     26  C   UNL     1      -4.102  -1.366  24.374  0.00  0.00    +0.167 A 
ATOM     27  F   UNL     1      -4.774  -1.846  24.356  0.00  0.00    -0.202 F 
ATOM     28  C   UNL     1      -3.913  -0.896  23.724  0.00  0.00    +0.032 A 
ATOM     29  C   UNL     1      -3.242  -0.417  23.743  0.00  0.00    -0.001 A 
ENDBRANCH  20  22
BRANCH   5   3
ATOM      3  C   UNL     1      -3.572   0.721  24.735  0.00  0.00    +0.332 C 
ATOM      4  O   UNL     1      -4.062   0.120  24.454  0.00  0.00    -0.249 OA
BRANCH   3   2
ATOM      1  C   UNL     1      -4.849   1.256  25.088  0.00  0.00    +0.256 C 
ATOM      2  O   UNL     1      -4.172   0.831  25.291  0.00  0.00    -0.443 OA
ENDBRANCH   3   2
ENDBRANCH   5   3
BRANCH  18  30
ATOM     30  N   UNL     1       0.070  -0.104  24.142  0.00  0.00    -0.219 NA
BRANCH  30  31
ATOM     31  C   UNL     1       0.455   0.063  23.432  0.00  0.00    +0.091 C 
BRANCH  31  32
ATOM     32  C   UNL     1       1.268  -0.068  23.363  0.00  0.00    +0.043 C 
BRANCH  32  33
ATOM     33  C   UNL     1       1.666   0.174  22.683  0.00  0.00    +0.109 C 
BRANCH  33  34
ATOM     34  N   UNL     1       2.487   0.262  22.697  0.00  0.00    -0.308 N 
ATOM     35  C   UNL     1       2.897   0.971  22.798  0.00  0.00    +0.098 A 
ATOM     36  C   UNL     1       3.705   0.804  22.775  0.00  0.00    +0.119 A 
ATOM     37  N   UNL     1       3.794  -0.008  22.660  0.00  0.00    -0.222 NA
ATOM     38  C   UNL     1       3.041  -0.343  22.612  0.00  0.00    +0.179 A 
ENDBRANCH  33  34
ENDBRANCH  32  33
ENDBRANCH  31  32
ENDBRANCH  30  31
ENDBRANCH  18  30
TORSDOF 8
ENDMDL
MODEL 2
REMARK VINA RESULT:     -11.8      1.662      3.592
REMARK  Name = 
REMARK  8 active torsions:
REMARK  status: ('A' for Active; 'I' for Inactive)
REMARK    1  A    between atoms: O_2  and  C_3
REMARK    2  A    between atoms: C_3  and  C_5
REMARK    3  A    between atoms: C_18  and  N_30
REMARK    4  A    between atoms: C_20  and  C_22
REMARK    5  A    between atoms: N_30  and  C_31
REMARK    6  A    between atoms: C_31  and  C_32
REMARK    7  A    between atoms: C_32  and  C_33
REMARK    8  A    between atoms: C_33  and  N_34
REMARK                            x       y       z     vdW  Elec       q    Type
REMARK                         _______ _______ _______ _____ _____    ______ ____
ROOT
ATOM      5  C   UNL     1      -3.323   0.837  24.534  0.00  0.00    +0.162 C 
ATOM      6  C   UNL     1      -3.651   0.082  24.577  0.00  0.00    +0.055 C 
ATOM      7  C   UNL     1      -3.164  -0.583  24.533  0.00  0.00    -0.004 A 
ATOM      8  C   UNL     1      -2.349  -0.493  24.447  0.00  0.00    +0.070 A 
ATOM      9  N   UNL     1      -2.011  -1.244  24.420  0.00  0.00    -0.249 NA
ATOM     10  C   UNL     1      -2.617  -1.801  24.489  0.00  0.00    +0.081 A 
ATOM     11  C   UNL     1      -3.330  -1.391  24.559  0.00  0.00    +0.015 A 
ATOM     12  C   UNL     1      -4.038  -1.807  24.638  0.00  0.00    +0.001 A 
ATOM     13  C   UNL     1      -4.033  -2.633  24.646  0.00  0.00    +0.000 A 
ATOM     14  C   UNL     1      -3.319  -3.041  24.576  0.00  0.00    +0.002 A 
ATOM     15  C   UNL     1      -2.611  -2.625  24.497  0.00  0.00    +0.019 A 
ATOM     16  C   UNL     1      -2.020   0.263  24.404  0.00  0.00    +0.100 C 
ATOM     17  C   UNL     1      -1.205   0.354  24.318  0.00  0.00    +0.040 C 
ATOM     18  C   UNL     1      -0.876   1.109  24.275  0.00  0.00    +0.076 C 
ATOM     19  C   UNL     1      -1.363   1.774  24.319  0.00  0.00    +0.038 C 
ATOM     20  C   UNL     1      -2.178   1.682  24.405  0.00  0.00    +0.082 C 
ATOM     21  N   UNL     1      -2.507   0.928  24.448  0.00  0.00    -0.258 NA
ENDROOT
BRANCH  20  22
ATOM     22  C   UNL     1      -2.664   2.348  24.449  0.00  0.00    -0.005 A 
ATOM     23  C   UNL     1      -2.738   2.759  25.159  0.00  0.00    +0.029 A 
ATOM     24  C   UNL     1      -3.224   3.425  25.202  0.00  0.00    +0.167 A 
ATOM     25  F   UNL     1      -3.298   3.837  25.913  0.00  0.00    -0.202 F 
ATOM     26  C   UNL     1      -3.637   3.678  24.533  0.00  0.00    +0.167 A 
ATOM     27  F   UNL     1      -4.123   4.344  24.577  0.00  0.00    -0.202 F 
ATOM     28  C   UNL     1      -3.563   3.267  23.823  0.00  0.00    +0.032 A 
ATOM     29  C   UNL     1      -3.077   2.601  23.780  0.00  0.00    -0.001 A 
ENDBRANCH  20  22
BRANCH   5   3
ATOM      3  C   UNL     1      -3.809   1.502  24.578  0.00  0.00    +0.332 C 
ATOM      4  O   UNL     1      -4.073   2.257  24.376  0.00  0.00    -0.249 OA
BRANCH   3   2
ATOM      1  C   UNL     1      -5.205   1.371  24.852  0.00  0.00    +0.256 C 
ATOM      2  O   UNL     1      -4.437   1.519  25.113  0.00  0.00    -0.443 OA
ENDBRANCH   3   2
ENDBRANCH   5   3
BRANCH  18  30
ATOM     30  N   UNL     1      -0.061   1.200  24.189  0.00  0.00    -0.219 NA
BRANCH  30  31
ATOM     31  C   UNL     1       0.334   0.818  23.573  0.00  0.00    +0.091 C 
BRANCH  31  32
ATOM     32  C   UNL     1       1.153   0.888  23.501  0.00  0.00    +0.043 C 
BRANCH  32  33
ATOM     33  C   UNL     1       1.566   0.390  22.990  0.00  0.00    +0.109 C 
BRANCH  33  34
ATOM     34  N   UNL     1       2.369   0.517  22.850  0.00  0.00    -0.308 N 
ATOM     35  C   UNL     1       2.855   0.061  22.363  0.00  0.00    +0.098 A 
ATOM     36  C   UNL     1       3.614   0.385  22.385  0.00  0.00    +0.119 A 
ATOM     37  N   UNL     1       3.597   1.040  22.886  0.00  0.00    -0.222 NA
ATOM     38  C   UNL     1       2.828   1.122  23.173  0.00  0.00    +0.179 A 
ENDBRANCH  33  34
ENDBRANCH  32  33
ENDBRANCH  31  32
ENDBRANCH  30  31
ENDBRANCH  18  30
TORSDOF 8
ENDMDL
MODEL 3
REMARK VINA RESULT:     -10.3      2.702      3.652
REMARK  Name = 
REMARK  8 active torsions:
REMARK  status: ('A' for Active; 'I' for Inactive)
REMARK    1  A    between atoms: O_2  and  C_3
REMARK    2  A    between atoms: C_3  and  C_5
REMARK    3  A    between atoms: C_18  and  N_30
REMARK    4  A    between atoms: C_20  and  C_22
REMARK    5  A    between atoms: N_30  and  C_31
REMARK    6  A    between atoms: C_31  and  C_32
REMARK    7  A    between atoms: C_32  and  C_33
REMARK    8  A    between atoms: C_33  and  N_34
REMARK                            x       y       z     vdW  Elec       q    Type
REMARK                         _______ _______ _______ _____ _____    ______ ____
ROOT
ATOM      5  C   UNL     1      -3.730   3.164  25.019  0.00  0.00    +0.162 C 
ATOM      6  C   UNL     1      -3.291   3.858  25.079  0.00  0.00    +0.055 C 
ATOM      7  C   UNL     1      -2.476   3.843  24.949  0.00  0.00    -0.004 A 
ATOM      8  C   UNL     1      -2.101   3.133  24.759  0.00  0.00    +0.070 A 
ATOM      9  N   UNL     1      -1.297   3.287  24.662  0.00  0.00    -0.249 NA
ATOM     10  C   UNL     1      -1.173   4.093  24.791  0.00  0.00    +0.081 A 
ATOM     11  C   UNL     1      -1.903   4.436  24.969  0.00  0.00    +0.015 A 
ATOM     12  C   UNL     1      -1.950   5.245  25.126  0.00  0.00    +0.001 A 
ATOM     13  C   UNL     1      -1.268   5.710  25.105  0.00  0.00    +0.000 A 
ATOM     14  C   UNL     1      -0.539   5.366  24.928  0.00  0.00    +0.002 A 
ATOM     15  C   UNL     1      -0.492   4.557  24.771  0.00  0.00    +0.019 A 
ATOM     16  C   UNL     1      -2.541   2.438  24.699  0.00  0.00    +0.100 C 
ATOM     17  C   UNL     1      -2.168   1.728  24.510  0.00  0.00    +0.040 C 
ATOM     18  C   UNL     1      -2.608   1.033  24.450  0.00  0.00    +0.076 C 
ATOM     19  C   UNL     1      -3.422   1.048  24.580  0.00  0.00    +0.038 C 
ATOM     20  C   UNL     1      -3.796   1.758  24.770  0.00  0.00    +0.082 C 
ATOM     21  N   UNL     1      -3.356   2.453  24.829  0.00  0.00    -0.258 NA
ENDROOT
BRANCH  20  22
ATOM     22  C   UNL     1      -4.611   1.773  24.900  0.00  0.00    -0.005 A 
ATOM     23  C   UNL     1      -4.915   1.562  25.636  0.00  0.00    +0.029 A 
ATOM     24  C   UNL     1      -5.730   1.577  25.766  0.00  0.00    +0.167 A 
ATOM     25  F   UNL     1      -6.035   1.366  26.503  0.00  0.00    -0.202 F 
ATOM     26  C   UNL     1      -6.240   1.802  25.157  0.00  0.00    +0.167 A 
ATOM     27  F   UNL     1      -7.055   1.817  25.287  0.00  0.00    -0.202 F 
ATOM     28  C   UNL     1      -5.936   2.013  24.421  0.00  0.00    +0.032 A 
ATOM     29  C   UNL     1      -5.121   1.998  24.291  0.00  0.00    -0.001 A 
ENDBRANCH  20  22
BRANCH   5   3
ATOM      3  C   UNL     1      -4.545   3.179  25.150  0.00  0.00    +0.332 C 
ATOM      4  O   UNL     1      -5.333   2.975  25.016  0.00  0.00    -0.249 OA
BRANCH   3   2
ATOM      1  C   UNL     1      -5.227   4.363  25.567  0.00  0.00    +0.256 C 
ATOM      2  O   UNL     1      -4.859   3.649  25.751  0.00  0.00    -0.443 OA
ENDBRANCH   3   2
ENDBRANCH   5   3
BRANCH  18  30
ATOM     30  N   UNL     1      -2.233   0.322  24.260  0.00  0.00    -0.219 NA
BRANCH  30  31
ATOM     31  C   UNL     1      -2.166  -0.273  24.827  0.00  0.00    +0.091 C 
BRANCH  31  32
ATOM     32  C   UNL     1      -2.063  -1.057  24.592  0.00  0.00    +0.043 C 
BRANCH  32  33
ATOM     33  C   UNL     1      -2.256  -1.670  25.109  0.00  0.00    +0.109 C 
BRANCH  33  34
ATOM     34  N   UNL     1      -2.656  -2.335  24.828  0.00  0.00    -0.308 N 
ATOM     35  C   UNL     1      -3.420  -2.567  25.037  0.00  0.00    +0.098 A 
ATOM     36  C   UNL     1      -3.598  -3.260  24.626  0.00  0.00    +0.119 A 
ATOM     37  N   UNL     1      -2.944  -3.457  24.162  0.00  0.00    -0.222 NA
ATOM     38  C   UNL     1      -2.362  -2.885  24.287  0.00  0.00    +0.179 A 
ENDBRANCH  33  34
ENDBRANCH  32  33
ENDBRANCH  31  32
ENDBRANCH  30  31
ENDBRANCH  18  30
TORSDOF 8
ENDMDL
MODEL 4
REMARK VINA RESULT:     -10.0      2.231      4.872
REMARK  Name = 
REMARK  8 active torsions:
REMARK  status: ('A' for Active; 'I' for Inactive)
REMARK    1  A    between atoms: O_2  and  C_3
REMARK    2  A    between atoms: C_3  and  C_5
REMARK    3  A    between atoms: C_18  and  N_30
REMARK    4  A    between atoms: C_20  and  C_22
REMARK    5  A    between atoms: N_30  and  C_31
REMARK    6  A    between atoms: C_31  and  C_32
REMARK    7  A    between atoms: C_32  and  C_33
REMARK    8  A    between atoms: C_33  and  N_34
REMARK                            x       y       z     vdW  Elec       q    Type
REMARK                         _______ _______ _______ _____ _____    ______ ____
ROOT
ATOM      5  C   UNL     1      -2.088  -0.528  24.655  0.00  0.00    +0.162 C 
ATOM      6  C   UNL     1      -1.374  -0.122  24.596  0.00  0.00    +0.055 C 
ATOM      7  C   UNL     1      -1.372   0.699  24.506  0.00  0.00    -0.004 A 
ATOM      8  C   UNL     1      -2.085   1.112  24.475  0.00  0.00    +0.070 A 
ATOM      9  N   UNL     1      -1.912   1.913  24.383  0.00  0.00    -0.249 NA
ATOM     10  C   UNL     1      -1.091   1.996  24.358  0.00  0.00    +0.081 A 
ATOM     11  C   UNL     1      -0.758   1.244  24.434  0.00  0.00    +0.015 A 
ATOM     12  C   UNL     1       0.062   1.155  24.427  0.00  0.00    +0.001 A 
ATOM     13  C   UNL     1       0.549   1.817  24.345  0.00  0.00    +0.000 A 
ATOM     14  C   UNL     1       0.215   2.568  24.269  0.00  0.00    +0.002 A 
ATOM     15  C   UNL     1      -0.606   2.657  24.275  0.00  0.00    +0.019 A 
ATOM     16  C   UNL     1      -2.801   0.705  24.534  0.00  0.00    +0.100 C 
ATOM     17  C   UNL     1      -3.514   1.117  24.502  0.00  0.00    +0.040 C 
ATOM     18  C   UNL     1      -4.229   0.710  24.561  0.00  0.00    +0.076 C 
ATOM     19  C   UNL     1      -4.230  -0.110  24.651  0.00  0.00    +0.038 C 
ATOM     20  C   UNL     1      -3.517  -0.522  24.683  0.00  0.00    +0.082 C 
ATOM     21  N   UNL     1      -2.802  -0.115  24.624  0.00  0.00    -0.258 NA
ENDROOT
BRANCH  20  22
ATOM     22  C   UNL     1      -3.519  -1.343  24.773  0.00  0.00    -0.005 A 
ATOM     23  C   UNL     1      -3.663  -1.829  24.123  0.00  0.00    +0.029 A 
ATOM     24  C   UNL     1      -3.665  -2.649  24.214  0.00  0.00    +0.167 A 
ATOM     25  F   UNL     1      -3.809  -3.136  23.563  0.00  0.00    -0.202 F 
ATOM     26  C   UNL     1      -3.524  -2.982  24.956  0.00  0.00    +0.167 A 
ATOM     27  F   UNL     1      -3.526  -3.803  25.046  0.00  0.00    -0.202 F 
ATOM     28  C   UNL     1      -3.380  -2.496  25.606  0.00  0.00    +0.032 A 
ATOM     29  C   UNL     1      -3.378  -1.676  25.515  0.00  0.00    -0.001 A 
ENDBRANCH  20  22
BRANCH   5   3
ATOM      3  C   UNL     1      -2.090  -1.348  24.745  0.00  0.00    +0.332 C 
ATOM      4  O   UNL     1      -2.352  -2.074  25.038  0.00  0.00    -0.249 OA
BRANCH   3   2
ATOM      1  C   UNL     1      -0.862  -2.078  24.735  0.00  0.00    +0.256 C 
ATOM      2  O   UNL     1      -1.536  -1.809  24.344  0.00  0.00    -0.443 OA
ENDBRANCH   3   2
ENDBRANCH   5   3
BRANCH  18  30
ATOM     30  N   UNL     1      -4.943   1.123  24.530  0.00  0.00    -0.219 NA
BRANCH  30  31
ATOM     31  C   UNL     1      -5.230   1.503  25.204  0.00  0.00    +0.091 C 
BRANCH  31  32
ATOM     32  C   UNL     1      -5.604   2.235  25.138  0.00  0.00    +0.043 C 
BRANCH  32  33
ATOM     33  C   UNL     1      -5.682   2.719  25.801  0.00  0.00    +0.109 C 
BRANCH  33  34
ATOM     34  N   UNL     1      -5.650   3.539  25.719  0.00  0.00    -0.308 N 
ATOM     35  C   UNL     1      -4.964   3.993  25.645  0.00  0.00    +0.098 A 
ATOM     36  C   UNL     1      -5.189   4.784  25.576  0.00  0.00    +0.119 A 
ATOM     37  N   UNL     1      -6.013   4.819  25.607  0.00  0.00    -0.222 NA
ATOM     38  C   UNL     1      -6.297   4.050  25.695  0.00  0.00    +0.179 A 
ENDBRANCH  33  34
ENDBRANCH  32  33
ENDBRANCH  31  32
ENDBRANCH  30  31
ENDBRANCH  18  30
TORSDOF 8
ENDMDL
