MODEL 1
REMARK VINA RESULT:      -7.6      0.000      0.000
REMARK  Name = 
REMARK  5 active torsions:
REMARK  status: ('A' for Active; 'I' for Inactive)
REMARK    1  A    between atoms: C_3  and  C_4
REMARK    2  A    between atoms: C_4  and  N_5
REMARK    3  A    between atoms: C_6  and  C_8
REMARK    4  A    between atoms: C_13  and  N_14
REMARK    5  A    between atoms: N_14  and  C_15
REMARK                            x       y       z     vdW  Elec       q    Type
REMARK                         _______ _______ _______ _____ _____    ______ ____
ROOT
ATOM      1  O   UNL     1      -4.684   2.022  24.280  0.00  0.00    -0.219 OA
ATOM      2  C   UNL     1      -3.909   1.845  24.501  0.00  0.00    +0.199 C 
ATOM      3  C   UNL     1      -3.581   1.089  24.554  0.00  0.00    +0.169 C 
ATOM     11  O   UNL     1      -2.795   1.169  24.793  0.00  0.00    -0.350 OA
ATOM     12  C   UNL     1      -2.638   1.974  24.887  0.00  0.00    +0.162 C 
ATOM     13  C   UNL     1      -3.326   2.390  24.706  0.00  0.00    +0.135 C 
ENDROOT
BRANCH   3   4
ATOM      4  C   UNL     1      -3.970   0.380  24.397  0.00  0.00    +0.147 C 
BRANCH   4   5
ATOM      5  N   UNL     1      -3.638  -0.336  24.639  0.00  0.00    -0.203 NA
ATOM      6  C   UNL     1      -4.004  -1.049  24.443  0.00  0.00    +0.241 C 
ATOM      7  O   UNL     1      -4.702  -1.046  24.004  0.00  0.00    -0.273 OA
BRANCH   6   8
ATOM      8  C   UNL     1      -3.672  -1.764  24.685  0.00  0.00    +0.078 C 
ATOM      9  C   UNL     1      -3.457  -2.543  24.523  0.00  0.00    +0.010 C 
ATOM     10  C   UNL     1      -3.311  -2.222  25.269  0.00  0.00    +0.010 C 
ENDBRANCH   6   8
ENDBRANCH   4   5
ENDBRANCH   3   4
BRANCH  13  14
ATOM     14  N   UNL     1      -3.416   3.211  24.727  0.00  0.00    -0.211 NA
BRANCH  14  15
ATOM     15  C   UNL     1      -2.920   3.667  25.203  0.00  0.00    +0.132 C 
ATOM     16  C   UNL     1      -2.197   4.051  25.093  0.00  0.00    +0.162 C 
ATOM     17  O   UNL     1      -2.218   4.312  25.875  0.00  0.00    -0.351 OA
ATOM     18  C   UNL     1      -2.940   3.929  25.985  0.00  0.00    +0.162 C 
ENDBRANCH  14  15
ENDBRANCH  13  14
TORSDOF 5
ENDMDL
MODEL 2
REMARK VINA RESULT:      -7.4      0.820      4.507
REMARK  Name = 
REMARK  5 active torsions:
REMARK  status: ('A' for Active; 'I' for Inactive)
REMARK    1  A    between atoms: C_3  and  C_4
REMARK    2  A    between atoms: C_4  and  N_5
REMARK    3  A    between atoms: C_6  and  C_8
REMARK    4  A    between atoms: C_13  and  N_14
REMARK    5  A    between atoms: N_14  and  C_15
REMARK                            x       y       z     vdW  Elec       q    Type
REMARK                         _______ _______ _______ _____ _____    ______ ____
ROOT
ATOM      1  O   UNL     1      -4.907   1.347  25.010  0.00  0.00    -0.219 OA
ATOM      2  C   UNL     1      -4.151   1.102  24.787  0.00  0.00    +0.199 C 
ATOM      3  C   UNL     1      -3.497   1.593  24.673  0.00  0.00    +0.169 C 
ATOM     11  O   UNL     1      -2.858   1.118  24.454  0.00  0.00    -0.350 OA
ATOM     12  C   UNL     1      -3.118   0.335  24.432  0.00  0.00    +0.162 C 
ATOM     13  C   UNL     1      -3.916   0.326  24.638  0.00  0.00    +0.135 C 
ENDROOT
BRANCH   3   4
ATOM      4  C   UNL     1      -3.484   2.412  24.762  0.00  0.00    +0.147 C 
BRANCH   4   5
ATOM      5  N   UNL     1      -2.775   2.797  24.937  0.00  0.00    -0.203 NA
ATOM      6  C   UNL     1      -2.744   3.622  24.947  0.00  0.00    +0.241 C 
ATOM      7  O   UNL     1      -3.423   4.061  24.781  0.00  0.00    -0.273 OA
BRANCH   6   8
ATOM      8  C   UNL     1      -2.036   4.007  25.121  0.00  0.00    +0.078 C 
ATOM      9  C   UNL     1      -1.234   3.975  25.309  0.00  0.00    +0.010 C 
ATOM     10  C   UNL     1      -1.612   4.705  25.236  0.00  0.00    +0.010 C 
ENDBRANCH   6   8
ENDBRANCH   4   5
ENDBRANCH   3   4
BRANCH  13  14
ATOM     14  N   UNL     1      -4.397  -0.343  24.687  0.00  0.00    -0.211 NA
BRANCH  14  15
ATOM     15  C   UNL     1      -4.081  -1.089  24.529  0.00  0.00    +0.132 C 
ATOM     16  C   UNL     1      -4.081  -1.597  23.879  0.00  0.00    +0.162 C 
ATOM     17  O   UNL     1      -3.635  -2.143  24.306  0.00  0.00    -0.351 OA
ATOM     18  C   UNL     1      -3.635  -1.635  24.957  0.00  0.00    +0.162 C 
ENDBRANCH  14  15
ENDBRANCH  13  14
TORSDOF 5
ENDMDL
MODEL 3
REMARK VINA RESULT:      -7.4      1.655      1.885
REMARK  Name = 
REMARK  5 active torsions:
REMARK  status: ('A' for Active; 'I' for Inactive)
REMARK    1  A    between atoms: C_3  and  C_4
REMARK    2  A    between atoms: C_4  and  N_5
REMARK    3  A    between atoms: C_6  and  C_8
REMARK    4  A    between atoms: C_13  and  N_14
REMARK    5  A    between atoms: N_14  and  C_15
REMARK                            x       y       z     vdW  Elec       q    Type
REMARK                         _______ _______ _______ _____ _____    ______ ____
ROOT
ATOM      1  O   UNL     1      -3.031   1.937  24.940  0.00  0.00    -0.219 OA
ATOM      2  C   UNL     1      -2.407   1.397  24.943  0.00  0.00    +0.199 C 
ATOM      3  C   UNL     1      -2.468   0.587  24.796  0.00  0.00    +0.169 C 
ATOM     11  O   UNL     1      -1.712   0.261  24.855  0.00  0.00    -0.350 OA
ATOM     12  C   UNL     1      -1.185   0.869  25.036  0.00  0.00    +0.162 C 
ATOM     13  C   UNL     1      -1.615   1.571  25.090  0.00  0.00    +0.135 C 
ENDROOT
BRANCH   3   4
ATOM      4  C   UNL     1      -3.161   0.176  24.623  0.00  0.00    +0.147 C 
BRANCH   4   5
ATOM      5  N   UNL     1      -3.151  -0.648  24.573  0.00  0.00    -0.203 NA
ATOM      6  C   UNL     1      -3.836  -1.057  24.362  0.00  0.00    +0.241 C 
ATOM      7  O   UNL     1      -4.531  -0.643  24.202  0.00  0.00    -0.273 OA
BRANCH   6   8
ATOM      8  C   UNL     1      -3.826  -1.881  24.312  0.00  0.00    +0.078 C 
ATOM      9  C   UNL     1      -4.109  -2.580  23.979  0.00  0.00    +0.010 C 
ATOM     10  C   UNL     1      -3.523  -2.608  24.559  0.00  0.00    +0.010 C 
ENDBRANCH   6   8
ENDBRANCH   4   5
ENDBRANCH   3   4
BRANCH  13  14
ATOM     14  N   UNL     1      -1.306   2.317  25.263  0.00  0.00    -0.211 NA
BRANCH  14  15
ATOM     15  C   UNL     1      -0.550   2.385  25.583  0.00  0.00    +0.132 C 
ATOM     16  C   UNL     1      -0.244   2.459  26.346  0.00  0.00    +0.162 C 
ATOM     17  O   UNL     1       0.521   2.482  26.037  0.00  0.00    -0.351 OA
ATOM     18  C   UNL     1       0.215   2.407  25.274  0.00  0.00    +0.162 C 
ENDBRANCH  14  15
ENDBRANCH  13  14
TORSDOF 5
ENDMDL
MODEL 4
REMARK VINA RESULT:      -6.8     16.898     18.591
REMARK  Name = 
REMARK  5 active torsions:
REMARK  status: ('A' for Active; 'I' for Inactive)
REMARK    1  A    between atoms: C_3  and  C_4
REMARK    2  A    between atoms: C_4  and  N_5
REMARK    3  A    between atoms: C_6  and  C_8
REMARK    4  A    between atoms: C_13  and  N_14
REMARK    5  A    between atoms: N_14  and  C_15
REMARK                            x       y       z     vdW  Elec       q    Type
REMARK                         _______ _______ _______ _____ _____    ______ ____
ROOT
ATOM      1  O   UNL     1      12.295   6.856  19.034  0.00  0.00    -0.219 OA
ATOM      2  C   UNL     1      12.607   6.899  19.797  0.00  0.00    +0.199 C 
ATOM      3  C   UNL     1      13.409   6.918  19.993  0.00  0.00    +0.169 C 
ATOM     11  O   UNL     1      13.469   6.962  20.814  0.00  0.00    -0.350 OA
ATOM     12  C   UNL     1      12.705   6.971  21.126  0.00  0.00    +0.162 C 
ATOM     13  C   UNL     1      12.173   6.932  20.497  0.00  0.00    +0.135 C 
ENDROOT
BRANCH   3   4
ATOM      4  C   UNL     1      14.038   6.896  19.461  0.00  0.00    +0.147 C 
BRANCH   4   5
ATOM      5  N   UNL     1      14.794   6.695  19.724  0.00  0.00    -0.203 NA
ATOM      6  C   UNL     1      15.435   6.735  19.206  0.00  0.00    +0.241 C 
ATOM      7  O   UNL     1      15.320   6.976  18.425  0.00  0.00    -0.273 OA
BRANCH   6   8
ATOM      8  C   UNL     1      16.191   6.534  19.469  0.00  0.00    +0.078 C 
ATOM      9  C   UNL     1      16.801   6.614  20.018  0.00  0.00    +0.010 C 
ATOM     10  C   UNL     1      16.889   6.104  19.375  0.00  0.00    +0.010 C 
ENDBRANCH   6   8
ENDBRANCH   4   5
ENDBRANCH   3   4
BRANCH  13  14
ATOM     14  N   UNL     1      11.350   6.927  20.558  0.00  0.00    -0.211 NA
BRANCH  14  15
ATOM     15  C   UNL     1      10.984   7.255  21.221  0.00  0.00    +0.132 C 
ATOM     16  C   UNL     1      10.688   6.957  21.931  0.00  0.00    +0.162 C 
ATOM     17  O   UNL     1      10.466   7.719  22.158  0.00  0.00    -0.351 OA
ATOM     18  C   UNL     1      10.762   8.017  21.448  0.00  0.00    +0.162 C 
ENDBRANCH  14  15
ENDBRANCH  13  14
TORSDOF 5
ENDMDL
MODEL 5
REMARK VINA RESULT:      -6.1     17.093     18.811
REMARK  Name = 
REMARK  5 active torsions:
REMARK  status: ('A' for Active; 'I' for Inactive)
REMARK    1  A    between atoms: C_3  and  C_4
REMARK    2  A    between atoms: C_4  and  N_5
REMARK    3  A    between atoms: C_6  and  C_8
REMARK    4  A    between atoms: C_13  and  N_14
REMARK    5  A    between atoms: N_14  and  C_15
REMARK                            x       y       z     vdW  Elec       q    Type
REMARK                         _______ _______ _______ _____ _____    ______ ____
ROOT
ATOM      1  O   UNL     1      13.511   7.437  18.563  0.00  0.00    -0.219 OA
ATOM      2  C   UNL     1      13.746   7.180  19.312  0.00  0.00    +0.199 C 
ATOM      3  C   UNL     1      13.262   7.122  19.978  0.00  0.00    +0.169 C 
ATOM     11  O   UNL     1      13.722   6.842  20.603  0.00  0.00    -0.350 OA
ATOM     12  C   UNL     1      14.489   6.727  20.323  0.00  0.00    +0.162 C 
ATOM     13  C   UNL     1      14.503   6.936  19.525  0.00  0.00    +0.135 C 
ENDROOT
BRANCH   3   4
ATOM      4  C   UNL     1      12.460   7.311  20.012  0.00  0.00    +0.147 C 
BRANCH   4   5
ATOM      5  N   UNL     1      12.076   7.348  20.742  0.00  0.00    -0.203 NA
ATOM      6  C   UNL     1      11.286   7.586  20.781  0.00  0.00    +0.241 C 
ATOM      7  O   UNL     1      10.882   7.788  20.091  0.00  0.00    -0.273 OA
BRANCH   6   8
ATOM      8  C   UNL     1      10.902   7.622  21.510  0.00  0.00    +0.078 C 
ATOM      9  C   UNL     1      10.735   8.025  22.210  0.00  0.00    +0.010 C 
ATOM     10  C   UNL     1      10.405   7.282  22.073  0.00  0.00    +0.010 C 
ENDBRANCH   6   8
ENDBRANCH   4   5
ENDBRANCH   3   4
BRANCH  13  14
ATOM     14  N   UNL     1      15.162   6.905  19.028  0.00  0.00    -0.211 NA
BRANCH  14  15
ATOM     15  C   UNL     1      15.911   6.770  19.345  0.00  0.00    +0.132 C 
ATOM     16  C   UNL     1      16.425   6.125  19.372  0.00  0.00    +0.162 C 
ATOM     17  O   UNL     1      16.971   6.577  19.793  0.00  0.00    -0.351 OA
ATOM     18  C   UNL     1      16.457   7.222  19.766  0.00  0.00    +0.162 C 
ENDBRANCH  14  15
ENDBRANCH  13  14
TORSDOF 5
ENDMDL
MODEL 6
REMARK VINA RESULT:      -6.1     15.663     17.562
REMARK  Name = 
REMARK  5 active torsions:
REMARK  status: ('A' for Active; 'I' for Inactive)
REMARK    1  A    between atoms: C_3  and  C_4
REMARK    2  A    between atoms: C_4  and  N_5
REMARK    3  A    between atoms: C_6  and  C_8
REMARK    4  A    between atoms: C_13  and  N_14
REMARK    5  A    between atoms: N_14  and  C_15
REMARK                            x       y       z     vdW  Elec       q    Type
REMARK                         _______ _______ _______ _____ _____    ______ ____
ROOT
ATOM      1  O   UNL     1      12.098   6.845  19.613  0.00  0.00    -0.219 OA
ATOM      2  C   UNL     1      11.794   7.596  19.772  0.00  0.00    +0.199 C 
ATOM      3  C   UNL     1      11.734   8.218  19.232  0.00  0.00    +0.169 C 
ATOM     11  O   UNL     1      11.399   8.863  19.624  0.00  0.00    -0.350 OA
ATOM     12  C   UNL     1      11.252   8.639  20.404  0.00  0.00    +0.162 C 
ATOM     13  C   UNL     1      11.496   7.857  20.495  0.00  0.00    +0.135 C 
ENDROOT
BRANCH   3   4
ATOM      4  C   UNL     1      11.967   8.199  18.442  0.00  0.00    +0.147 C 
BRANCH   4   5
ATOM      5  N   UNL     1      11.434   8.410  17.849  0.00  0.00    -0.203 NA
ATOM      6  C   UNL     1      11.701   8.527  17.076  0.00  0.00    +0.241 C 
ATOM      7  O   UNL     1      12.500   8.431  16.897  0.00  0.00    -0.273 OA
BRANCH   6   8
ATOM      8  C   UNL     1      11.168   8.738  16.483  0.00  0.00    +0.078 C 
ATOM      9  C   UNL     1      11.013   9.093  15.755  0.00  0.00    +0.010 C 
ATOM     10  C   UNL     1      10.398   8.750  16.185  0.00  0.00    +0.010 C 
ENDBRANCH   6   8
ENDBRANCH   4   5
ENDBRANCH   3   4
BRANCH  13  14
ATOM     14  N   UNL     1      11.451   7.412  21.189  0.00  0.00    -0.211 NA
BRANCH  14  15
ATOM     15  C   UNL     1      10.997   7.683  21.822  0.00  0.00    +0.132 C 
ATOM     16  C   UNL     1      11.087   8.270  22.395  0.00  0.00    +0.162 C 
ATOM     17  O   UNL     1      10.355   8.066  22.718  0.00  0.00    -0.351 OA
ATOM     18  C   UNL     1      10.266   7.479  22.145  0.00  0.00    +0.162 C 
ENDBRANCH  14  15
ENDBRANCH  13  14
TORSDOF 5
ENDMDL
MODEL 7
REMARK VINA RESULT:      -6.0     16.677     18.385
REMARK  Name = 
REMARK  5 active torsions:
REMARK  status: ('A' for Active; 'I' for Inactive)
REMARK    1  A    between atoms: C_3  and  C_4
REMARK    2  A    between atoms: C_4  and  N_5
REMARK    3  A    between atoms: C_6  and  C_8
REMARK    4  A    between atoms: C_13  and  N_14
REMARK    5  A    between atoms: N_14  and  C_15
REMARK                            x       y       z     vdW  Elec       q    Type
REMARK                         _______ _______ _______ _____ _____    ______ ____
ROOT
ATOM      1  O   UNL     1      14.073   6.879  19.486  0.00  0.00    -0.219 OA
ATOM      2  C   UNL     1      13.406   7.103  19.053  0.00  0.00    +0.199 C 
ATOM      3  C   UNL     1      12.622   7.038  19.305  0.00  0.00    +0.169 C 
ATOM     11  O   UNL     1      12.138   7.325  18.701  0.00  0.00    -0.350 OA
ATOM     12  C   UNL     1      12.621   7.566  18.078  0.00  0.00    +0.162 C 
ATOM     13  C   UNL     1      13.405   7.429  18.297  0.00  0.00    +0.135 C 
ENDROOT
BRANCH   3   4
ATOM      4  C   UNL     1      12.368   6.740  20.030  0.00  0.00    +0.147 C 
BRANCH   4   5
ATOM      5  N   UNL     1      11.789   7.139  20.460  0.00  0.00    -0.203 NA
ATOM      6  C   UNL     1      11.516   6.827  21.174  0.00  0.00    +0.241 C 
ATOM      7  O   UNL     1      11.823   6.115  21.457  0.00  0.00    -0.273 OA
BRANCH   6   8
ATOM      8  C   UNL     1      10.936   7.227  21.605  0.00  0.00    +0.078 C 
ATOM      9  C   UNL     1      10.251   7.214  22.063  0.00  0.00    +0.010 C 
ATOM     10  C   UNL     1      10.620   7.932  21.892  0.00  0.00    +0.010 C 
ENDBRANCH   6   8
ENDBRANCH   4   5
ENDBRANCH   3   4
BRANCH  13  14
ATOM     14  N   UNL     1      14.071   7.590  17.837  0.00  0.00    -0.211 NA
BRANCH  14  15
ATOM     15  C   UNL     1      14.057   8.210  17.294  0.00  0.00    +0.132 C 
ATOM     16  C   UNL     1      14.170   9.027  17.338  0.00  0.00    +0.162 C 
ATOM     17  O   UNL     1      14.037   9.089  16.526  0.00  0.00    -0.351 OA
ATOM     18  C   UNL     1      13.924   8.273  16.482  0.00  0.00    +0.162 C 
ENDBRANCH  14  15
ENDBRANCH  13  14
TORSDOF 5
ENDMDL
MODEL 8
REMARK VINA RESULT:      -5.9     18.014     19.290
REMARK  Name = 
REMARK  5 active torsions:
REMARK  status: ('A' for Active; 'I' for Inactive)
REMARK    1  A    between atoms: C_3  and  C_4
REMARK    2  A    between atoms: C_4  and  N_5
REMARK    3  A    between atoms: C_6  and  C_8
REMARK    4  A    between atoms: C_13  and  N_14
REMARK    5  A    between atoms: N_14  and  C_15
REMARK                            x       y       z     vdW  Elec       q    Type
REMARK                         _______ _______ _______ _____ _____    ______ ____
ROOT
ATOM      1  O   UNL     1      12.253   7.741  19.662  0.00  0.00    -0.219 OA
ATOM      2  C   UNL     1      12.642   7.659  18.938  0.00  0.00    +0.199 C 
ATOM      3  C   UNL     1      13.396   7.342  18.826  0.00  0.00    +0.169 C 
ATOM     11  O   UNL     1      13.565   7.367  18.019  0.00  0.00    -0.350 OA
ATOM     12  C   UNL     1      12.916   7.700  17.633  0.00  0.00    +0.162 C 
ATOM     13  C   UNL     1      12.346   7.880  18.201  0.00  0.00    +0.135 C 
ENDROOT
BRANCH   3   4
ATOM      4  C   UNL     1      13.892   7.052  19.417  0.00  0.00    +0.147 C 
BRANCH   4   5
ATOM      5  N   UNL     1      14.690   6.915  19.255  0.00  0.00    -0.203 NA
ATOM      6  C   UNL     1      15.178   6.586  19.834  0.00  0.00    +0.241 C 
ATOM      7  O   UNL     1      14.868   6.394  20.574  0.00  0.00    -0.273 OA
BRANCH   6   8
ATOM      8  C   UNL     1      15.975   6.450  19.673  0.00  0.00    +0.078 C 
ATOM      9  C   UNL     1      16.769   6.517  19.886  0.00  0.00    +0.010 C 
ATOM     10  C   UNL     1      16.562   6.147  19.179  0.00  0.00    +0.010 C 
ENDBRANCH   6   8
ENDBRANCH   4   5
ENDBRANCH   3   4
BRANCH  13  14
ATOM     14  N   UNL     1      11.609   8.221  18.057  0.00  0.00    -0.211 NA
BRANCH  14  15
ATOM     15  C   UNL     1      11.423   8.497  17.302  0.00  0.00    +0.132 C 
ATOM     16  C   UNL     1      10.848   8.313  16.739  0.00  0.00    +0.162 C 
ATOM     17  O   UNL     1      11.160   8.885  16.233  0.00  0.00    -0.351 OA
ATOM     18  C   UNL     1      11.735   9.069  16.796  0.00  0.00    +0.162 C 
ENDBRANCH  14  15
ENDBRANCH  13  14
TORSDOF 5
ENDMDL
