MODEL 1
REMARK VINA RESULT:     -10.3      0.000      0.000
REMARK  Name = 
REMARK  6 active torsions:
REMARK  status: ('A' for Active; 'I' for Inactive)
REMARK    1  A    between atoms: C_2  and  C_5
REMARK    2  A    between atoms: C_5  and  N_6
REMARK    3  A    between atoms: N_6  and  C_7
REMARK    4  A    between atoms: C_10  and  C_11
REMARK    5  A    between atoms: C_11  and  N_12
REMARK    6  A    between atoms: C_13  and  C_15
REMARK                            x       y       z     vdW  Elec       q    Type
REMARK                         _______ _______ _______ _____ _____    ______ ____
ROOT
ATOM      7  C   UNL     1      -3.975   0.081  24.735  0.00  0.00    +0.135 C 
ATOM      8  C   UNL     1      -4.756   0.220  24.963  0.00  0.00    +0.162 C 
ATOM      9  O   UNL     1      -4.843   1.030  25.095  0.00  0.00    -0.350 OA
ATOM     10  C   UNL     1      -4.116   1.391  24.948  0.00  0.00    +0.169 C 
ATOM     22  C   UNL     1      -3.580   0.805  24.725  0.00  0.00    +0.199 C 
ATOM     23  O   UNL     1      -2.788   0.922  24.527  0.00  0.00    -0.219 OA
ENDROOT
BRANCH   7   6
ATOM      6  N   UNL     1      -3.648  -0.653  24.548  0.00  0.00    -0.214 NA
BRANCH   6   5
ATOM      5  C   UNL     1      -4.068  -1.345  24.712  0.00  0.00    +0.089 C 
BRANCH   5   2
ATOM      1  C   UNL     1      -3.432  -2.810  24.300  0.00  0.00    +0.001 C 
ATOM      2  C   UNL     1      -3.750  -2.078  24.506  0.00  0.00    +0.016 C 
ATOM      3  C   UNL     1      -4.130  -2.037  23.775  0.00  0.00    +0.001 C 
ATOM      4  C   UNL     1      -3.369  -2.118  25.237  0.00  0.00    +0.001 C 
ENDBRANCH   5   2
ENDBRANCH   6   5
ENDBRANCH   7   6
BRANCH  10  11
ATOM     11  C   UNL     1      -3.954   2.197  25.011  0.00  0.00    +0.148 C 
BRANCH  11  12
ATOM     12  N   UNL     1      -4.572   2.738  25.097  0.00  0.00    -0.199 NA
ATOM     13  C   UNL     1      -4.407   3.531  25.252  0.00  0.00    +0.265 C 
ATOM     14  O   UNL     1      -5.025   4.071  25.338  0.00  0.00    -0.268 OA
BRANCH  13  15
ATOM     15  C   UNL     1      -3.625   3.785  25.322  0.00  0.00    +0.055 A 
ATOM     16  C   UNL     1      -3.265   3.812  26.064  0.00  0.00    +0.007 A 
ATOM     17  C   UNL     1      -2.483   4.066  26.133  0.00  0.00    +0.030 A 
ATOM     18  C   UNL     1      -2.062   4.292  25.462  0.00  0.00    +0.140 A 
ATOM     19  F   UNL     1      -1.279   4.546  25.532  0.00  0.00    -0.204 F 
ATOM     20  C   UNL     1      -2.421   4.265  24.720  0.00  0.00    +0.030 A 
ATOM     21  C   UNL     1      -3.204   4.011  24.650  0.00  0.00    +0.007 A 
ENDBRANCH  13  15
ENDBRANCH  11  12
ENDBRANCH  10  11
TORSDOF 6
ENDMDL
MODEL 2
REMARK VINA RESULT:      -9.9      1.914      2.576
REMARK  Name = 
REMARK  6 active torsions:
REMARK  status: ('A' for Active; 'I' for Inactive)
REMARK    1  A    between atoms: C_2  and  C_5
REMARK    2  A    between atoms: C_5  and  N_6
REMARK    3  A    between atoms: N_6  and  C_7
REMARK    4  A    between atoms: C_10  and  C_11
REMARK    5  A    between atoms: C_11  and  N_12
REMARK    6  A    between atoms: C_13  and  C_15
REMARK                            x       y       z     vdW  Elec       q    Type
REMARK                         _______ _______ _______ _____ _____    ______ ____
ROOT
ATOM      7  C   UNL     1      -2.293  -0.282  24.853  0.00  0.00    +0.135 C 
ATOM      8  C   UNL     1      -1.919  -0.491  25.558  0.00  0.00    +0.162 C 
ATOM      9  O   UNL     1      -1.472   0.155  25.810  0.00  0.00    -0.350 OA
ATOM     10  C   UNL     1      -1.570   0.763  25.261  0.00  0.00    +0.169 C 
ATOM     22  C   UNL     1      -2.078   0.493  24.670  0.00  0.00    +0.199 C 
ATOM     23  O   UNL     1      -2.326   0.922  24.010  0.00  0.00    -0.219 OA
ENDROOT
BRANCH   7   6
ATOM      6  N   UNL     1      -2.795  -0.763  24.409  0.00  0.00    -0.214 NA
BRANCH   6   5
ATOM      5  C   UNL     1      -3.214  -1.372  24.777  0.00  0.00    +0.089 C 
BRANCH   5   2
ATOM      1  C   UNL     1      -4.151  -2.389  23.877  0.00  0.00    +0.001 C 
ATOM      2  C   UNL     1      -3.682  -1.880  24.327  0.00  0.00    +0.016 C 
ATOM      3  C   UNL     1      -3.114  -2.473  24.405  0.00  0.00    +0.001 C 
ATOM      4  C   UNL     1      -4.251  -1.288  24.250  0.00  0.00    +0.001 C 
ENDBRANCH   5   2
ENDBRANCH   6   5
ENDBRANCH   7   6
BRANCH  10  11
ATOM     11  C   UNL     1      -1.222   1.510  25.297  0.00  0.00    +0.148 C 
BRANCH  11  12
ATOM     12  N   UNL     1      -0.504   1.613  25.691  0.00  0.00    -0.199 NA
ATOM     13  C   UNL     1      -0.228   2.372  25.853  0.00  0.00    +0.265 C 
ATOM     14  O   UNL     1       0.490   2.475  26.247  0.00  0.00    -0.268 OA
BRANCH  13  15
ATOM     15  C   UNL     1      -0.669   3.030  25.622  0.00  0.00    +0.055 A 
ATOM     16  C   UNL     1      -0.477   3.431  24.926  0.00  0.00    +0.007 A 
ATOM     17  C   UNL     1      -0.918   4.089  24.696  0.00  0.00    +0.030 A 
ATOM     18  C   UNL     1      -1.549   4.346  25.160  0.00  0.00    +0.140 A 
ATOM     19  F   UNL     1      -1.990   5.005  24.928  0.00  0.00    -0.204 F 
ATOM     20  C   UNL     1      -1.741   3.946  25.855  0.00  0.00    +0.030 A 
ATOM     21  C   UNL     1      -1.300   3.288  26.086  0.00  0.00    +0.007 A 
ENDBRANCH  13  15
ENDBRANCH  11  12
ENDBRANCH  10  11
TORSDOF 6
ENDMDL
MODEL 3
REMARK VINA RESULT:      -9.6      2.433      5.563
REMARK  Name = 
REMARK  6 active torsions:
REMARK  status: ('A' for Active; 'I' for Inactive)
REMARK    1  A    between atoms: C_2  and  C_5
REMARK    2  A    between atoms: C_5  and  N_6
REMARK    3  A    between atoms: N_6  and  C_7
REMARK    4  A    between atoms: C_10  and  C_11
REMARK    5  A    between atoms: C_11  and  N_12
REMARK    6  A    between atoms: C_13  and  C_15
REMARK                            x       y       z     vdW  Elec       q    Type
REMARK                         _______ _______ _______ _____ _____    ______ ____
ROOT
ATOM      7  C   UNL     1      -1.293   2.357  25.210  0.00  0.00    +0.135 C 
ATOM      8  C   UNL     1      -0.723   2.120  25.759  0.00  0.00    +0.162 C 
ATOM      9  O   UNL     1      -0.752   1.297  25.817  0.00  0.00    -0.350 OA
ATOM     10  C   UNL     1      -1.339   1.026  25.304  0.00  0.00    +0.169 C 
ATOM     22  C   UNL     1      -1.673   1.681  24.929  0.00  0.00    +0.199 C 
ATOM     23  O   UNL     1      -2.280   1.663  24.371  0.00  0.00    -0.219 OA
ENDROOT
BRANCH   7   6
ATOM      6  N   UNL     1      -1.453   3.133  24.982  0.00  0.00    -0.214 NA
BRANCH   6   5
ATOM      5  C   UNL     1      -1.182   3.762  25.443  0.00  0.00    +0.089 C 
BRANCH   5   2
ATOM      1  C   UNL     1      -1.514   5.315  24.995  0.00  0.00    +0.001 C 
ATOM      2  C   UNL     1      -1.348   4.538  25.219  0.00  0.00    +0.016 C 
ATOM      3  C   UNL     1      -0.632   4.574  24.811  0.00  0.00    +0.001 C 
ATOM      4  C   UNL     1      -2.064   4.503  25.627  0.00  0.00    +0.001 C 
ENDBRANCH   5   2
ENDBRANCH   6   5
ENDBRANCH   7   6
BRANCH  10  11
ATOM     11  C   UNL     1      -1.554   0.238  25.187  0.00  0.00    +0.148 C 
BRANCH  11  12
ATOM     12  N   UNL     1      -1.014  -0.366  25.345  0.00  0.00    -0.199 NA
ATOM     13  C   UNL     1      -1.259  -1.152  25.327  0.00  0.00    +0.265 C 
ATOM     14  O   UNL     1      -0.719  -1.756  25.485  0.00  0.00    -0.268 OA
BRANCH  13  15
ATOM     15  C   UNL     1      -2.044  -1.337  25.151  0.00  0.00    +0.055 A 
ATOM     16  C   UNL     1      -2.255  -1.548  24.382  0.00  0.00    +0.007 A 
ATOM     17  C   UNL     1      -3.040  -1.732  24.206  0.00  0.00    +0.030 A 
ATOM     18  C   UNL     1      -3.612  -1.707  24.799  0.00  0.00    +0.140 A 
ATOM     19  F   UNL     1      -4.397  -1.892  24.622  0.00  0.00    -0.204 F 
ATOM     20  C   UNL     1      -3.401  -1.496  25.568  0.00  0.00    +0.030 A 
ATOM     21  C   UNL     1      -2.616  -1.311  25.744  0.00  0.00    +0.007 A 
ENDBRANCH  13  15
ENDBRANCH  11  12
ENDBRANCH  10  11
TORSDOF 6
ENDMDL
MODEL 4
REMARK VINA RESULT:      -9.0      1.921      5.007
REMARK  Name = 
REMARK  6 active torsions:
REMARK  status: ('A' for Active; 'I' for Inactive)
REMARK    1  A    between atoms: C_2  and  C_5
REMARK    2  A    between atoms: C_5  and  N_6
REMARK    3  A    between atoms: N_6  and  C_7
REMARK    4  A    between atoms: C_10  and  C_11
REMARK    5  A    between atoms: C_11  and  N_12
REMARK    6  A    between atoms: C_13  and  C_15
REMARK                            x       y       z     vdW  Elec       q    Type
REMARK                         _______ _______ _______ _____ _____    ______ ____
ROOT
ATOM      7  C   UNL     1      -2.476   2.937  24.913  0.00  0.00    +0.135 C 
ATOM      8  C   UNL     1      -3.138   3.082  25.385  0.00  0.00    +0.162 C 
ATOM      9  O   UNL     1      -3.609   2.404  25.378  0.00  0.00    -0.350 OA
ATOM     10  C   UNL     1      -3.239   1.841  24.903  0.00  0.00    +0.169 C 
ATOM     22  C   UNL     1      -2.539   2.170  24.616  0.00  0.00    +0.199 C 
ATOM     23  O   UNL     1      -1.996   1.797  24.118  0.00  0.00    -0.219 OA
ENDROOT
BRANCH   7   6
ATOM      6  N   UNL     1      -1.861   3.466  24.765  0.00  0.00    -0.214 NA
BRANCH   6   5
ATOM      5  C   UNL     1      -1.741   4.109  25.268  0.00  0.00    +0.089 C 
BRANCH   5   2
ATOM      1  C   UNL     1      -0.637   5.270  24.872  0.00  0.00    +0.001 C 
ATOM      2  C   UNL     1      -1.189   4.689  25.070  0.00  0.00    +0.016 C 
ATOM      3  C   UNL     1      -1.789   5.255  25.056  0.00  0.00    +0.001 C 
ATOM      4  C   UNL     1      -0.589   4.123  25.084  0.00  0.00    +0.001 C 
ENDBRANCH   5   2
ENDBRANCH   6   5
ENDBRANCH   7   6
BRANCH  10  11
ATOM     11  C   UNL     1      -3.519   1.082  24.743  0.00  0.00    +0.148 C 
BRANCH  11  12
ATOM     12  N   UNL     1      -4.328   0.951  24.647  0.00  0.00    -0.199 NA
ATOM     13  C   UNL     1      -4.625   0.183  24.650  0.00  0.00    +0.265 C 
ATOM     14  O   UNL     1      -5.435   0.052  24.554  0.00  0.00    -0.268 OA
BRANCH  13  15
ATOM     15  C   UNL     1      -4.114  -0.457  24.749  0.00  0.00    +0.055 A 
ATOM     16  C   UNL     1      -3.837  -0.869  24.089  0.00  0.00    +0.007 A 
ATOM     17  C   UNL     1      -3.326  -1.509  24.188  0.00  0.00    +0.030 A 
ATOM     18  C   UNL     1      -3.092  -1.738  24.945  0.00  0.00    +0.140 A 
ATOM     19  F   UNL     1      -2.581  -2.378  25.043  0.00  0.00    -0.204 F 
ATOM     20  C   UNL     1      -3.369  -1.326  25.604  0.00  0.00    +0.030 A 
ATOM     21  C   UNL     1      -3.880  -0.686  25.506  0.00  0.00    +0.007 A 
ENDBRANCH  13  15
ENDBRANCH  11  12
ENDBRANCH  10  11
TORSDOF 6
ENDMDL
