MODEL 1
REMARK VINA RESULT:     -10.8      0.000      0.000
REMARK  Name = 
REMARK  9 active torsions:
REMARK  status: ('A' for Active; 'I' for Inactive)
REMARK    1  A    between atoms: O_2  and  C_3
REMARK    2  A    between atoms: C_3  and  C_4
REMARK    3  A    between atoms: C_4  and  O_5
REMARK    4  A    between atoms: O_5  and  C_6
REMARK    5  A    between atoms: C_8  and  C_12
REMARK    6  A    between atoms: C_15  and  C_17
REMARK    7  A    between atoms: N_21  and  C_22
REMARK    8  A    between atoms: C_22  and  C_23
REMARK    9  A    between atoms: C_26  and  C_29
REMARK                            x       y       z     vdW  Elec       q    Type
REMARK                         _______ _______ _______ _____ _____    ______ ____
ROOT
ATOM     12  C   UNL     1      -3.101   3.471  24.773  0.00  0.00    +0.204 A 
ATOM     13  N   UNL     1      -3.604   3.700  24.160  0.00  0.00    -0.056 NA
ATOM     14  O   UNL     1      -4.275   3.220  24.190  0.00  0.00    -0.336 OA
ATOM     15  C   UNL     1      -4.187   2.696  24.821  0.00  0.00    +0.251 A 
ATOM     16  N   UNL     1      -3.460   2.851  25.181  0.00  0.00    -0.190 NA
ENDROOT
BRANCH  12   8
ATOM      6  C   UNL     1      -0.962   3.659  25.165  0.00  0.00    +0.225 A 
ATOM      7  C   UNL     1      -1.696   3.325  24.992  0.00  0.00    +0.061 A 
ATOM      8  C   UNL     1      -2.366   3.805  24.947  0.00  0.00    +0.045 A 
ATOM      9  C   UNL     1      -2.303   4.617  25.076  0.00  0.00    +0.024 A 
ATOM     10  C   UNL     1      -1.568   4.950  25.250  0.00  0.00    +0.102 A 
ATOM     11  N   UNL     1      -0.898   4.472  25.295  0.00  0.00    -0.210 NA
BRANCH   6   5
ATOM      5  O   UNL     1      -0.291   3.181  25.210  0.00  0.00    -0.457 OA
BRANCH   5   4
ATOM      4  C   UNL     1      -0.072   2.716  24.565  0.00  0.00    +0.239 C 
BRANCH   4   3
ATOM      3  C   UNL     1       0.417   2.060  24.677  0.00  0.00    +0.189 C 
BRANCH   3   2
ATOM      1  C   UNL     1       0.987   1.102  23.784  0.00  0.00    +0.174 C 
ATOM      2  O   UNL     1       0.977   1.861  24.105  0.00  0.00    -0.347 OA
ENDBRANCH   3   2
ENDBRANCH   4   3
ENDBRANCH   5   4
ENDBRANCH   6   5
ENDBRANCH  12   8
BRANCH  15  17
ATOM     17  C   UNL     1      -4.728   2.118  25.051  0.00  0.00    +0.138 C 
ATOM     18  C   UNL     1      -5.426   2.248  25.471  0.00  0.00    +0.027 C 
ATOM     19  C   UNL     1      -5.797   1.519  25.582  0.00  0.00    +0.019 C 
ATOM     20  C   UNL     1      -5.327   0.939  25.230  0.00  0.00    +0.073 C 
ATOM     21  N   UNL     1      -4.667   1.309  24.902  0.00  0.00    -0.263 NA
BRANCH  21  22
ATOM     22  C   UNL     1      -4.053   0.936  24.497  0.00  0.00    +0.099 C 
BRANCH  22  23
ATOM     23  C   UNL     1      -3.960   0.118  24.552  0.00  0.00    -0.006 A 
ATOM     24  C   UNL     1      -4.265  -0.373  23.963  0.00  0.00    -0.002 A 
ATOM     25  C   UNL     1      -4.172  -1.190  24.018  0.00  0.00    +0.010 A 
ATOM     26  C   UNL     1      -3.773  -1.518  24.662  0.00  0.00    +0.068 A 
ATOM     27  C   UNL     1      -3.467  -1.027  25.251  0.00  0.00    +0.010 A 
ATOM     28  C   UNL     1      -3.561  -0.209  25.195  0.00  0.00    -0.002 A 
BRANCH  26  29
ATOM     29  C   UNL     1      -3.679  -2.336  24.717  0.00  0.00    +0.100 C 
ATOM     30  N   UNL     1      -3.586  -3.153  24.772  0.00  0.00    -0.191 NA
ENDBRANCH  26  29
ENDBRANCH  22  23
ENDBRANCH  21  22
ENDBRANCH  15  17
TORSDOF 9
ENDMDL
MODEL 2
REMARK VINA RESULT:     -10.8      1.564      3.718
REMARK  Name = 
REMARK  9 active torsions:
REMARK  status: ('A' for Active; 'I' for Inactive)
REMARK    1  A    between atoms: O_2  and  C_3
REMARK    2  A    between atoms: C_3  and  C_4
REMARK    3  A    between atoms: C_4  and  O_5
REMARK    4  A    between atoms: O_5  and  C_6
REMARK    5  A    between atoms: C_8  and  C_12
REMARK    6  A    between atoms: C_15  and  C_17
REMARK    7  A    between atoms: N_21  and  C_22
REMARK    8  A    between atoms: C_22  and  C_23
REMARK    9  A    between atoms: C_26  and  C_29
REMARK                            x       y       z     vdW  Elec       q    Type
REMARK                         _______ _______ _______ _____ _____    ______ ____
ROOT
ATOM     12  C   UNL     1      -0.722   2.808  25.259  0.00  0.00    +0.204 A 
ATOM     13  N   UNL     1      -0.132   2.567  25.784  0.00  0.00    -0.056 NA
ATOM     14  O   UNL     1       0.172   1.849  25.513  0.00  0.00    -0.336 OA
ATOM     15  C   UNL     1      -0.230   1.646  24.821  0.00  0.00    +0.251 A 
ATOM     16  N   UNL     1      -0.782   2.239  24.665  0.00  0.00    -0.190 NA
ENDROOT
BRANCH  12   8
ATOM      6  C   UNL     1      -2.392   4.150  25.674  0.00  0.00    +0.225 A 
ATOM      7  C   UNL     1      -1.942   3.461  25.614  0.00  0.00    +0.061 A 
ATOM      8  C   UNL     1      -1.172   3.497  25.319  0.00  0.00    +0.045 A 
ATOM      9  C   UNL     1      -0.852   4.219  25.084  0.00  0.00    +0.024 A 
ATOM     10  C   UNL     1      -1.302   4.908  25.144  0.00  0.00    +0.102 A 
ATOM     11  N   UNL     1      -2.072   4.874  25.439  0.00  0.00    -0.210 NA
BRANCH   6   5
ATOM      5  O   UNL     1      -3.162   4.117  25.968  0.00  0.00    -0.457 OA
BRANCH   5   4
ATOM      4  C   UNL     1      -3.771   3.817  25.499  0.00  0.00    +0.239 C 
BRANCH   4   3
ATOM      3  C   UNL     1      -4.506   3.651  25.835  0.00  0.00    +0.189 C 
BRANCH   3   2
ATOM      1  C   UNL     1      -5.679   2.867  25.605  0.00  0.00    +0.174 C 
ATOM      2  O   UNL     1      -5.141   3.439  25.353  0.00  0.00    -0.347 OA
ENDBRANCH   3   2
ENDBRANCH   4   3
ENDBRANCH   5   4
ENDBRANCH   6   5
ENDBRANCH  12   8
BRANCH  15  17
ATOM     17  C   UNL     1      -0.102   0.970  24.366  0.00  0.00    +0.138 C 
ATOM     18  C   UNL     1       0.417   0.907  23.727  0.00  0.00    +0.027 C 
ATOM     19  C   UNL     1       0.369   0.136  23.436  0.00  0.00    +0.019 C 
ATOM     20  C   UNL     1      -0.179  -0.276  23.895  0.00  0.00    +0.073 C 
ATOM     21  N   UNL     1      -0.470   0.239  24.470  0.00  0.00    -0.263 NA
BRANCH  21  22
ATOM     22  C   UNL     1      -1.030   0.056  25.046  0.00  0.00    +0.099 C 
BRANCH  22  23
ATOM     23  C   UNL     1      -1.558  -0.566  24.925  0.00  0.00    -0.006 A 
ATOM     24  C   UNL     1      -2.321  -0.412  24.650  0.00  0.00    -0.002 A 
ATOM     25  C   UNL     1      -2.849  -1.033  24.529  0.00  0.00    +0.010 A 
ATOM     26  C   UNL     1      -2.616  -1.809  24.683  0.00  0.00    +0.068 A 
ATOM     27  C   UNL     1      -1.854  -1.964  24.958  0.00  0.00    +0.010 A 
ATOM     28  C   UNL     1      -1.325  -1.342  25.079  0.00  0.00    -0.002 A 
BRANCH  26  29
ATOM     29  C   UNL     1      -3.145  -2.432  24.561  0.00  0.00    +0.100 C 
ATOM     30  N   UNL     1      -3.673  -3.053  24.440  0.00  0.00    -0.191 NA
ENDBRANCH  26  29
ENDBRANCH  22  23
ENDBRANCH  21  22
ENDBRANCH  15  17
TORSDOF 9
ENDMDL
MODEL 3
REMARK VINA RESULT:     -10.2      1.492      4.497
REMARK  Name = 
REMARK  9 active torsions:
REMARK  status: ('A' for Active; 'I' for Inactive)
REMARK    1  A    between atoms: O_2  and  C_3
REMARK    2  A    between atoms: C_3  and  C_4
REMARK    3  A    between atoms: C_4  and  O_5
REMARK    4  A    between atoms: O_5  and  C_6
REMARK    5  A    between atoms: C_8  and  C_12
REMARK    6  A    between atoms: C_15  and  C_17
REMARK    7  A    between atoms: N_21  and  C_22
REMARK    8  A    between atoms: C_22  and  C_23
REMARK    9  A    between atoms: C_26  and  C_29
REMARK                            x       y       z     vdW  Elec       q    Type
REMARK                         _______ _______ _______ _____ _____    ______ ____
ROOT
ATOM     12  C   UNL     1      -4.008  -0.509  24.678  0.00  0.00    +0.204 A 
ATOM     13  N   UNL     1      -4.596  -0.459  24.101  0.00  0.00    -0.056 NA
ATOM     14  O   UNL     1      -4.999   0.253  24.209  0.00  0.00    -0.336 OA
ATOM     15  C   UNL     1      -4.661   0.643  24.852  0.00  0.00    +0.251 A 
ATOM     16  N   UNL     1      -4.048   0.172  25.142  0.00  0.00    -0.190 NA
ENDROOT
BRANCH  12   8
ATOM      6  C   UNL     1      -2.129  -1.598  24.894  0.00  0.00    +0.225 A 
ATOM      7  C   UNL     1      -2.663  -0.977  24.798  0.00  0.00    +0.061 A 
ATOM      8  C   UNL     1      -3.474  -1.130  24.774  0.00  0.00    +0.045 A 
ATOM      9  C   UNL     1      -3.750  -1.904  24.845  0.00  0.00    +0.024 A 
ATOM     10  C   UNL     1      -3.216  -2.525  24.941  0.00  0.00    +0.102 A 
ATOM     11  N   UNL     1      -2.406  -2.373  24.965  0.00  0.00    -0.210 NA
BRANCH   6   5
ATOM      5  O   UNL     1      -1.319  -1.447  24.918  0.00  0.00    -0.457 OA
BRANCH   5   4
ATOM      4  C   UNL     1      -0.923  -1.204  24.236  0.00  0.00    +0.239 C 
BRANCH   4   3
ATOM      3  C   UNL     1      -0.189  -0.833  24.296  0.00  0.00    +0.189 C 
BRANCH   3   2
ATOM      1  C   UNL     1       0.633  -0.042  23.434  0.00  0.00    +0.174 C 
ATOM      2  O   UNL     1       0.296  -0.769  23.631  0.00  0.00    -0.347 OA
ENDBRANCH   3   2
ENDBRANCH   4   3
ENDBRANCH   5   4
ENDBRANCH   6   5
ENDBRANCH  12   8
BRANCH  15  17
ATOM     17  C   UNL     1      -4.894   1.374  25.153  0.00  0.00    +0.138 C 
ATOM     18  C   UNL     1      -5.537   1.511  25.652  0.00  0.00    +0.027 C 
ATOM     19  C   UNL     1      -5.565   2.320  25.816  0.00  0.00    +0.019 C 
ATOM     20  C   UNL     1      -4.940   2.682  25.419  0.00  0.00    +0.073 C 
ATOM     21  N   UNL     1      -4.525   2.098  25.009  0.00  0.00    -0.263 NA
BRANCH  21  22
ATOM     22  C   UNL     1      -3.858   2.217  24.539  0.00  0.00    +0.099 C 
BRANCH  22  23
ATOM     23  C   UNL     1      -3.362   2.861  24.681  0.00  0.00    -0.006 A 
ATOM     24  C   UNL     1      -2.713   2.778  25.184  0.00  0.00    -0.002 A 
ATOM     25  C   UNL     1      -2.217   3.421  25.326  0.00  0.00    +0.010 A 
ATOM     26  C   UNL     1      -2.370   4.148  24.966  0.00  0.00    +0.068 A 
ATOM     27  C   UNL     1      -3.018   4.231  24.463  0.00  0.00    +0.010 A 
ATOM     28  C   UNL     1      -3.515   3.587  24.321  0.00  0.00    -0.002 A 
BRANCH  26  29
ATOM     29  C   UNL     1      -1.873   4.792  25.108  0.00  0.00    +0.100 C 
ATOM     30  N   UNL     1      -1.378   5.435  25.251  0.00  0.00    -0.191 NA
ENDBRANCH  26  29
ENDBRANCH  22  23
ENDBRANCH  21  22
ENDBRANCH  15  17
TORSDOF 9
ENDMDL
MODEL 4
REMARK VINA RESULT:      -9.8      2.016      4.760
REMARK  Name = 
REMARK  9 active torsions:
REMARK  status: ('A' for Active; 'I' for Inactive)
REMARK    1  A    between atoms: O_2  and  C_3
REMARK    2  A    between atoms: C_3  and  C_4
REMARK    3  A    between atoms: C_4  and  O_5
REMARK    4  A    between atoms: O_5  and  C_6
REMARK    5  A    between atoms: C_8  and  C_12
REMARK    6  A    between atoms: C_15  and  C_17
REMARK    7  A    between atoms: N_21  and  C_22
REMARK    8  A    between atoms: C_22  and  C_23
REMARK    9  A    between atoms: C_26  and  C_29
REMARK                            x       y       z     vdW  Elec       q    Type
REMARK                         _______ _______ _______ _____ _____    ______ ____
ROOT
ATOM     12  C   UNL     1      -0.086   1.665  24.763  0.00  0.00    +0.204 A 
ATOM     13  N   UNL     1       0.327   1.910  25.435  0.00  0.00    -0.056 NA
ATOM     14  O   UNL     1       0.080   2.674  25.622  0.00  0.00    -0.336 OA
ATOM     15  C   UNL     1      -0.486   2.902  25.066  0.00  0.00    +0.251 A 
ATOM     16  N   UNL     1      -0.588   2.279  24.536  0.00  0.00    -0.190 NA
ENDROOT
BRANCH  12   8
ATOM      6  C   UNL     1      -0.296  -0.463  24.327  0.00  0.00    +0.225 A 
ATOM      7  C   UNL     1      -0.373   0.267  24.704  0.00  0.00    +0.061 A 
ATOM      8  C   UNL     1      -0.009   0.936  24.386  0.00  0.00    +0.045 A 
ATOM      9  C   UNL     1       0.430   0.875  23.691  0.00  0.00    +0.024 A 
ATOM     10  C   UNL     1       0.506   0.145  23.313  0.00  0.00    +0.102 A 
ATOM     11  N   UNL     1       0.143  -0.524  23.631  0.00  0.00    -0.210 NA
BRANCH   6   5
ATOM      5  O   UNL     1      -0.659  -1.132  24.645  0.00  0.00    -0.457 OA
BRANCH   5   4
ATOM      4  C   UNL     1      -1.395  -1.376  24.363  0.00  0.00    +0.239 C 
BRANCH   4   3
ATOM      3  C   UNL     1      -1.783  -2.012  24.719  0.00  0.00    +0.189 C 
BRANCH   3   2
ATOM      1  C   UNL     1      -3.132  -2.483  24.720  0.00  0.00    +0.174 C 
ATOM      2  O   UNL     1      -2.412  -2.380  24.332  0.00  0.00    -0.347 OA
ENDBRANCH   3   2
ENDBRANCH   4   3
ENDBRANCH   5   4
ENDBRANCH   6   5
ENDBRANCH  12   8
BRANCH  15  17
ATOM     17  C   UNL     1      -0.880   3.626  25.045  0.00  0.00    +0.138 C 
ATOM     18  C   UNL     1      -0.547   4.354  24.842  0.00  0.00    +0.027 C 
ATOM     19  C   UNL     1      -1.138   4.928  24.894  0.00  0.00    +0.019 C 
ATOM     20  C   UNL     1      -1.835   4.555  25.129  0.00  0.00    +0.073 C 
ATOM     21  N   UNL     1      -1.676   3.751  25.223  0.00  0.00    -0.263 NA
BRANCH  21  22
ATOM     22  C   UNL     1      -2.218   3.173  25.453  0.00  0.00    +0.099 C 
BRANCH  22  23
ATOM     23  C   UNL     1      -3.022   3.352  25.488  0.00  0.00    -0.006 A 
ATOM     24  C   UNL     1      -3.336   3.711  26.161  0.00  0.00    -0.002 A 
ATOM     25  C   UNL     1      -4.140   3.890  26.195  0.00  0.00    +0.010 A 
ATOM     26  C   UNL     1      -4.631   3.709  25.558  0.00  0.00    +0.068 A 
ATOM     27  C   UNL     1      -4.318   3.350  24.885  0.00  0.00    +0.010 A 
ATOM     28  C   UNL     1      -3.513   3.171  24.850  0.00  0.00    -0.002 A 
BRANCH  26  29
ATOM     29  C   UNL     1      -5.436   3.888  25.592  0.00  0.00    +0.100 C 
ATOM     30  N   UNL     1      -6.241   4.067  25.627  0.00  0.00    -0.191 NA
ENDBRANCH  26  29
ENDBRANCH  22  23
ENDBRANCH  21  22
ENDBRANCH  15  17
TORSDOF 9
ENDMDL
MODEL 5
REMARK VINA RESULT:      -9.4      1.740      5.765
REMARK  Name = 
REMARK  9 active torsions:
REMARK  status: ('A' for Active; 'I' for Inactive)
REMARK    1  A    between atoms: O_2  and  C_3
REMARK    2  A    between atoms: C_3  and  C_4
REMARK    3  A    between atoms: C_4  and  O_5
REMARK    4  A    between atoms: O_5  and  C_6
REMARK    5  A    between atoms: C_8  and  C_12
REMARK    6  A    between atoms: C_15  and  C_17
REMARK    7  A    between atoms: N_21  and  C_22
REMARK    8  A    between atoms: C_22  and  C_23
REMARK    9  A    between atoms: C_26  and  C_29
REMARK                            x       y       z     vdW  Elec       q    Type
REMARK                         _______ _______ _______ _____ _____    ______ ____
ROOT
ATOM     12  C   UNL     1      -1.800  -1.092  24.688  0.00  0.00    +0.204 A 
ATOM     13  N   UNL     1      -1.197  -1.410  25.153  0.00  0.00    -0.056 NA
ATOM     14  O   UNL     1      -0.520  -0.951  25.041  0.00  0.00    -0.336 OA
ATOM     15  C   UNL     1      -0.705  -0.350  24.507  0.00  0.00    +0.251 A 
ATOM     16  N   UNL     1      -1.496  -0.437  24.289  0.00  0.00    -0.190 NA
ENDROOT
BRANCH  12   8
ATOM      6  C   UNL     1      -3.978  -1.139  24.558  0.00  0.00    +0.225 A 
ATOM      7  C   UNL     1      -3.206  -0.852  24.614  0.00  0.00    +0.061 A 
ATOM      8  C   UNL     1      -2.571  -1.379  24.632  0.00  0.00    +0.045 A 
ATOM      9  C   UNL     1      -2.707  -2.191  24.594  0.00  0.00    +0.024 A 
ATOM     10  C   UNL     1      -3.479  -2.478  24.539  0.00  0.00    +0.102 A 
ATOM     11  N   UNL     1      -4.114  -1.952  24.520  0.00  0.00    -0.210 NA
BRANCH   6   5
ATOM      5  O   UNL     1      -4.614  -0.613  24.540  0.00  0.00    -0.457 OA
BRANCH   5   4
ATOM      4  C   UNL     1      -4.581   0.089  24.972  0.00  0.00    +0.239 C 
BRANCH   4   3
ATOM      3  C   UNL     1      -5.158   0.669  24.859  0.00  0.00    +0.189 C 
BRANCH   3   2
ATOM      1  C   UNL     1      -5.633   1.996  25.094  0.00  0.00    +0.174 C 
ATOM      2  O   UNL     1      -5.109   1.383  25.268  0.00  0.00    -0.347 OA
ENDBRANCH   3   2
ENDBRANCH   4   3
ENDBRANCH   5   4
ENDBRANCH   6   5
ENDBRANCH  12   8
BRANCH  15  17
ATOM     17  C   UNL     1      -0.189   0.235  24.238  0.00  0.00    +0.138 C 
ATOM     18  C   UNL     1       0.373   0.149  23.640  0.00  0.00    +0.027 C 
ATOM     19  C   UNL     1       0.764   0.871  23.553  0.00  0.00    +0.019 C 
ATOM     20  C   UNL     1       0.444   1.402  24.096  0.00  0.00    +0.073 C 
ATOM     21  N   UNL     1      -0.146   1.010  24.520  0.00  0.00    -0.263 NA
BRANCH  21  22
ATOM     22  C   UNL     1      -0.609   1.335  25.119  0.00  0.00    +0.099 C 
BRANCH  22  23
ATOM     23  C   UNL     1      -0.765   2.144  25.128  0.00  0.00    -0.006 A 
ATOM     24  C   UNL     1      -1.414   2.444  24.714  0.00  0.00    -0.002 A 
ATOM     25  C   UNL     1      -1.569   3.254  24.723  0.00  0.00    +0.010 A 
ATOM     26  C   UNL     1      -1.078   3.765  25.143  0.00  0.00    +0.068 A 
ATOM     27  C   UNL     1      -0.429   3.466  25.557  0.00  0.00    +0.010 A 
ATOM     28  C   UNL     1      -0.273   2.655  25.549  0.00  0.00    -0.002 A 
BRANCH  26  29
ATOM     29  C   UNL     1      -1.233   4.575  25.152  0.00  0.00    +0.100 C 
ATOM     30  N   UNL     1      -1.389   5.385  25.160  0.00  0.00    -0.191 NA
ENDBRANCH  26  29
ENDBRANCH  22  23
ENDBRANCH  21  22
ENDBRANCH  15  17
TORSDOF 9
ENDMDL
MODEL 6
REMARK VINA RESULT:      -9.2      1.754      4.395
REMARK  Name = 
REMARK  9 active torsions:
REMARK  status: ('A' for Active; 'I' for Inactive)
REMARK    1  A    between atoms: O_2  and  C_3
REMARK    2  A    between atoms: C_3  and  C_4
REMARK    3  A    between atoms: C_4  and  O_5
REMARK    4  A    between atoms: O_5  and  C_6
REMARK    5  A    between atoms: C_8  and  C_12
REMARK    6  A    between atoms: C_15  and  C_17
REMARK    7  A    between atoms: N_21  and  C_22
REMARK    8  A    between atoms: C_22  and  C_23
REMARK    9  A    between atoms: C_26  and  C_29
REMARK                            x       y       z     vdW  Elec       q    Type
REMARK                         _______ _______ _______ _____ _____    ______ ____
ROOT
ATOM     12  C   UNL     1      -3.839   3.494  25.710  0.00  0.00    +0.204 A 
ATOM     13  N   UNL     1      -3.681   3.906  26.407  0.00  0.00    -0.056 NA
ATOM     14  O   UNL     1      -2.923   4.227  26.347  0.00  0.00    -0.336 OA
ATOM     15  C   UNL     1      -2.613   4.013  25.613  0.00  0.00    +0.251 A 
ATOM     16  N   UNL     1      -3.180   3.560  25.219  0.00  0.00    -0.190 NA
ENDROOT
BRANCH  12   8
ATOM      6  C   UNL     1      -5.196   1.942  24.992  0.00  0.00    +0.225 A 
ATOM      7  C   UNL     1      -4.500   2.349  25.167  0.00  0.00    +0.061 A 
ATOM      8  C   UNL     1      -4.535   3.087  25.534  0.00  0.00    +0.045 A 
ATOM      9  C   UNL     1      -5.266   3.418  25.726  0.00  0.00    +0.024 A 
ATOM     10  C   UNL     1      -5.962   3.011  25.551  0.00  0.00    +0.102 A 
ATOM     11  N   UNL     1      -5.927   2.273  25.184  0.00  0.00    -0.210 NA
BRANCH   6   5
ATOM      5  O   UNL     1      -5.162   1.204  24.625  0.00  0.00    -0.457 OA
BRANCH   5   4
ATOM      4  C   UNL     1      -4.695   0.604  24.946  0.00  0.00    +0.239 C 
BRANCH   4   3
ATOM      3  C   UNL     1      -4.537  -0.075  24.506  0.00  0.00    +0.189 C 
BRANCH   3   2
ATOM      1  C   UNL     1      -3.902  -1.351  24.406  0.00  0.00    +0.174 C 
ATOM      2  O   UNL     1      -4.179  -0.725  24.866  0.00  0.00    -0.347 OA
ENDBRANCH   3   2
ENDBRANCH   4   3
ENDBRANCH   5   4
ENDBRANCH   6   5
ENDBRANCH  12   8
BRANCH  15  17
ATOM     17  C   UNL     1      -1.868   4.217  25.323  0.00  0.00    +0.138 C 
ATOM     18  C   UNL     1      -1.641   4.962  25.050  0.00  0.00    +0.027 C 
ATOM     19  C   UNL     1      -0.851   4.916  24.813  0.00  0.00    +0.019 C 
ATOM     20  C   UNL     1      -0.592   4.144  24.939  0.00  0.00    +0.073 C 
ATOM     21  N   UNL     1      -1.220   3.711  25.254  0.00  0.00    -0.263 NA
BRANCH  21  22
ATOM     22  C   UNL     1      -1.202   2.914  25.463  0.00  0.00    +0.099 C 
BRANCH  22  23
ATOM     23  C   UNL     1      -0.766   2.378  25.013  0.00  0.00    -0.006 A 
ATOM     24  C   UNL     1      -1.121   1.984  24.381  0.00  0.00    -0.002 A 
ATOM     25  C   UNL     1      -0.685   1.449  23.931  0.00  0.00    +0.010 A 
ATOM     26  C   UNL     1       0.107   1.307  24.112  0.00  0.00    +0.068 A 
ATOM     27  C   UNL     1       0.464   1.701  24.743  0.00  0.00    +0.010 A 
ATOM     28  C   UNL     1       0.026   2.237  25.194  0.00  0.00    -0.002 A 
BRANCH  26  29
ATOM     29  C   UNL     1       0.545   0.771  23.661  0.00  0.00    +0.100 C 
ATOM     30  N   UNL     1       0.981   0.236  23.211  0.00  0.00    -0.191 NA
ENDBRANCH  26  29
ENDBRANCH  22  23
ENDBRANCH  21  22
ENDBRANCH  15  17
TORSDOF 9
ENDMDL
MODEL 7
REMARK VINA RESULT:      -9.2      1.842      3.789
REMARK  Name = 
REMARK  9 active torsions:
REMARK  status: ('A' for Active; 'I' for Inactive)
REMARK    1  A    between atoms: O_2  and  C_3
REMARK    2  A    between atoms: C_3  and  C_4
REMARK    3  A    between atoms: C_4  and  O_5
REMARK    4  A    between atoms: O_5  and  C_6
REMARK    5  A    between atoms: C_8  and  C_12
REMARK    6  A    between atoms: C_15  and  C_17
REMARK    7  A    between atoms: N_21  and  C_22
REMARK    8  A    between atoms: C_22  and  C_23
REMARK    9  A    between atoms: C_26  and  C_29
REMARK                            x       y       z     vdW  Elec       q    Type
REMARK                         _______ _______ _______ _____ _____    ______ ____
ROOT
ATOM     12  C   UNL     1      -4.565   0.887  25.258  0.00  0.00    +0.204 A 
ATOM     13  N   UNL     1      -4.691   0.422  25.928  0.00  0.00    -0.056 NA
ATOM     14  O   UNL     1      -4.392  -0.332  25.776  0.00  0.00    -0.336 OA
ATOM     15  C   UNL     1      -4.081  -0.333  25.012  0.00  0.00    +0.251 A 
ATOM     16  N   UNL     1      -4.188   0.420  24.692  0.00  0.00    -0.190 NA
ENDROOT
BRANCH  12   8
ATOM      6  C   UNL     1      -4.427   3.028  24.857  0.00  0.00    +0.225 A 
ATOM      7  C   UNL     1      -4.213   2.236  24.945  0.00  0.00    +0.061 A 
ATOM      8  C   UNL     1      -4.779   1.679  25.170  0.00  0.00    +0.045 A 
ATOM      9  C   UNL     1      -5.557   1.913  25.306  0.00  0.00    +0.024 A 
ATOM     10  C   UNL     1      -5.771   2.705  25.218  0.00  0.00    +0.102 A 
ATOM     11  N   UNL     1      -5.206   3.263  24.993  0.00  0.00    -0.210 NA
BRANCH   6   5
ATOM      5  O   UNL     1      -3.862   3.585  24.632  0.00  0.00    -0.457 OA
BRANCH   5   4
ATOM      4  C   UNL     1      -3.264   3.802  25.158  0.00  0.00    +0.239 C 
BRANCH   4   3
ATOM      3  C   UNL     1      -2.648   4.290  24.903  0.00  0.00    +0.189 C 
BRANCH   3   2
ATOM      1  C   UNL     1      -1.408   4.937  25.195  0.00  0.00    +0.174 C 
ATOM      2  O   UNL     1      -2.118   4.604  25.451  0.00  0.00    -0.347 OA
ENDBRANCH   3   2
ENDBRANCH   4   3
ENDBRANCH   5   4
ENDBRANCH   6   5
ENDBRANCH  12   8
BRANCH  15  17
ATOM     17  C   UNL     1      -3.726  -0.974  24.634  0.00  0.00    +0.138 C 
ATOM     18  C   UNL     1      -4.115  -1.555  24.195  0.00  0.00    +0.027 C 
ATOM     19  C   UNL     1      -3.548  -2.087  23.918  0.00  0.00    +0.019 C 
ATOM     20  C   UNL     1      -2.810  -1.835  24.185  0.00  0.00    +0.073 C 
ATOM     21  N   UNL     1      -2.919  -1.147  24.627  0.00  0.00    -0.263 NA
BRANCH  21  22
ATOM     22  C   UNL     1      -2.326  -0.710  24.998  0.00  0.00    +0.099 C 
BRANCH  22  23
ATOM     23  C   UNL     1      -1.596  -0.608  24.628  0.00  0.00    -0.006 A 
ATOM     24  C   UNL     1      -1.021  -1.197  24.682  0.00  0.00    -0.002 A 
ATOM     25  C   UNL     1      -0.291  -1.096  24.312  0.00  0.00    +0.010 A 
ATOM     26  C   UNL     1      -0.135  -0.405  23.889  0.00  0.00    +0.068 A 
ATOM     27  C   UNL     1      -0.710   0.184  23.835  0.00  0.00    +0.010 A 
ATOM     28  C   UNL     1      -1.441   0.082  24.205  0.00  0.00    -0.002 A 
BRANCH  26  29
ATOM     29  C   UNL     1       0.596  -0.303  23.518  0.00  0.00    +0.100 C 
ATOM     30  N   UNL     1       1.325  -0.201  23.149  0.00  0.00    -0.191 NA
ENDBRANCH  26  29
ENDBRANCH  22  23
ENDBRANCH  21  22
ENDBRANCH  15  17
TORSDOF 9
ENDMDL
MODEL 8
REMARK VINA RESULT:      -9.1      2.610      4.618
REMARK  Name = 
REMARK  9 active torsions:
REMARK  status: ('A' for Active; 'I' for Inactive)
REMARK    1  A    between atoms: O_2  and  C_3
REMARK    2  A    between atoms: C_3  and  C_4
REMARK    3  A    between atoms: C_4  and  O_5
REMARK    4  A    between atoms: O_5  and  C_6
REMARK    5  A    between atoms: C_8  and  C_12
REMARK    6  A    between atoms: C_15  and  C_17
REMARK    7  A    between atoms: N_21  and  C_22
REMARK    8  A    between atoms: C_22  and  C_23
REMARK    9  A    between atoms: C_26  and  C_29
REMARK                            x       y       z     vdW  Elec       q    Type
REMARK                         _______ _______ _______ _____ _____    ______ ____
ROOT
ATOM     12  C   UNL     1       0.112   1.806  24.590  0.00  0.00    +0.204 A 
ATOM     13  N   UNL     1       0.359   1.941  25.366  0.00  0.00    -0.056 NA
ATOM     14  O   UNL     1       0.046   2.664  25.612  0.00  0.00    -0.336 OA
ATOM     15  C   UNL     1      -0.394   2.976  24.988  0.00  0.00    +0.251 A 
ATOM     16  N   UNL     1      -0.353   2.446  24.356  0.00  0.00    -0.190 NA
ENDROOT
BRANCH  12   8
ATOM      6  C   UNL     1       1.166   0.493  23.201  0.00  0.00    +0.225 A 
ATOM      7  C   UNL     1       0.979   1.151  23.662  0.00  0.00    +0.061 A 
ATOM      8  C   UNL     1       0.299   1.148  24.129  0.00  0.00    +0.045 A 
ATOM      9  C   UNL     1      -0.195   0.488  24.135  0.00  0.00    +0.024 A 
ATOM     10  C   UNL     1      -0.009  -0.171  23.674  0.00  0.00    +0.102 A 
ATOM     11  N   UNL     1       0.671  -0.169  23.207  0.00  0.00    -0.210 NA
BRANCH   6   5
ATOM      5  O   UNL     1       1.845   0.495  22.734  0.00  0.00    -0.457 OA
BRANCH   5   4
ATOM      4  C   UNL     1       2.590   0.483  23.089  0.00  0.00    +0.239 C 
BRANCH   4   3
ATOM      3  C   UNL     1       3.269   0.447  22.621  0.00  0.00    +0.189 C 
BRANCH   3   2
ATOM      1  C   UNL     1       4.673   0.374  22.877  0.00  0.00    +0.174 C 
ATOM      2  O   UNL     1       3.967   0.801  22.880  0.00  0.00    -0.347 OA
ENDBRANCH   3   2
ENDBRANCH   4   3
ENDBRANCH   5   4
ENDBRANCH   6   5
ENDBRANCH  12   8
BRANCH  15  17
ATOM     17  C   UNL     1      -0.804   3.692  24.993  0.00  0.00    +0.138 C 
ATOM     18  C   UNL     1      -0.489   4.432  24.807  0.00  0.00    +0.027 C 
ATOM     19  C   UNL     1      -1.091   4.991  24.885  0.00  0.00    +0.019 C 
ATOM     20  C   UNL     1      -1.776   4.597  25.119  0.00  0.00    +0.073 C 
ATOM     21  N   UNL     1      -1.599   3.794  25.186  0.00  0.00    -0.263 NA
BRANCH  21  22
ATOM     22  C   UNL     1      -2.125   3.199  25.406  0.00  0.00    +0.099 C 
BRANCH  22  23
ATOM     23  C   UNL     1      -2.933   3.357  25.450  0.00  0.00    -0.006 A 
ATOM     24  C   UNL     1      -3.251   3.702  26.129  0.00  0.00    -0.002 A 
ATOM     25  C   UNL     1      -4.059   3.861  26.172  0.00  0.00    +0.010 A 
ATOM     26  C   UNL     1      -4.550   3.674  25.536  0.00  0.00    +0.068 A 
ATOM     27  C   UNL     1      -4.234   3.329  24.857  0.00  0.00    +0.010 A 
ATOM     28  C   UNL     1      -3.425   3.170  24.814  0.00  0.00    -0.002 A 
BRANCH  26  29
ATOM     29  C   UNL     1      -5.359   3.832  25.579  0.00  0.00    +0.100 C 
ATOM     30  N   UNL     1      -6.167   3.991  25.622  0.00  0.00    -0.191 NA
ENDBRANCH  26  29
ENDBRANCH  22  23
ENDBRANCH  21  22
ENDBRANCH  15  17
TORSDOF 9
ENDMDL
