MODEL 1
REMARK VINA RESULT:     -11.7      0.000      0.000
REMARK  Name = 
REMARK  7 active torsions:
REMARK  status: ('A' for Active; 'I' for Inactive)
REMARK    1  A    between atoms: C_2  and  N_3
REMARK    2  A    between atoms: N_6  and  C_7
REMARK    3  A    between atoms: C_14  and  C_15
REMARK    4  A    between atoms: C_15  and  C_17
REMARK    5  A    between atoms: N_19  and  C_20
REMARK    6  A    between atoms: C_20  and  C_21
REMARK    7  A    between atoms: C_24  and  O_25
REMARK                            x       y       z     vdW  Elec       q    Type
REMARK                         _______ _______ _______ _____ _____    ______ ____
ROOT
ATOM      7  C   UNL     1      -0.867  -0.787  24.726  0.00  0.00    +0.097 C 
ATOM      8  C   UNL     1      -0.463  -0.759  24.007  0.00  0.00    +0.022 C 
ATOM      9  C   UNL     1      -0.101  -0.058  23.764  0.00  0.00    +0.002 C 
ATOM     10  C   UNL     1      -0.142   0.614  24.240  0.00  0.00    +0.002 C 
ATOM     11  C   UNL     1       0.261   0.642  23.521  0.00  0.00    +0.000 C 
ATOM     12  C   UNL     1       0.220   1.315  23.998  0.00  0.00    +0.000 C 
ATOM     13  C   UNL     1       0.179   1.987  24.473  0.00  0.00    +0.003 C 
ATOM     14  C   UNL     1      -0.224   1.959  25.192  0.00  0.00    +0.039 C 
ATOM     29  C   UNL     1      -0.587   1.259  25.436  0.00  0.00    +0.152 C 
ATOM     30  O   UNL     1      -0.990   1.231  26.154  0.00  0.00    -0.223 OA
ATOM     31  C   UNL     1      -0.545   0.586  24.959  0.00  0.00    +0.032 C 
ATOM     32  C   UNL     1      -0.908  -0.114  25.203  0.00  0.00    +0.023 C 
ATOM     33  C   UNL     1      -1.311  -0.141  25.921  0.00  0.00    +0.002 C 
ENDROOT
BRANCH   7   6
ATOM      3  N   UNL     1      -2.222  -2.496  24.780  0.00  0.00    -0.187 NA
ATOM      4  C   UNL     1      -1.860  -1.796  24.536  0.00  0.00    +0.339 C 
ATOM      5  O   UNL     1      -2.128  -1.406  23.861  0.00  0.00    -0.249 OA
ATOM      6  N   UNL     1      -1.229  -1.486  24.970  0.00  0.00    -0.189 NA
BRANCH   3   2
ATOM      1  C   UNL     1      -3.475  -3.183  24.737  0.00  0.00    +0.025 C 
ATOM      2  C   UNL     1      -2.853  -2.806  24.347  0.00  0.00    +0.117 C 
ENDBRANCH   3   2
ENDBRANCH   7   6
BRANCH  14  15
ATOM     15  C   UNL     1      -0.266   2.631  25.669  0.00  0.00    +0.081 C 
ATOM     16  C   UNL     1       0.149   2.658  26.380  0.00  0.00    +0.010 C 
BRANCH  15  17
ATOM     17  C   UNL     1      -0.723   3.276  25.432  0.00  0.00    +0.241 C 
ATOM     18  O   UNL     1      -0.375   3.898  25.016  0.00  0.00    -0.273 OA
ATOM     19  N   UNL     1      -1.529   3.299  25.612  0.00  0.00    -0.201 NA
BRANCH  19  20
ATOM     20  C   UNL     1      -1.985   3.944  25.375  0.00  0.00    +0.141 C 
BRANCH  20  21
ATOM     21  C   UNL     1      -2.808   3.885  25.367  0.00  0.00    -0.000 A 
ATOM     22  C   UNL     1      -3.206   3.767  24.653  0.00  0.00    +0.001 A 
ATOM     23  C   UNL     1      -4.028   3.708  24.645  0.00  0.00    +0.037 A 
ATOM     24  C   UNL     1      -4.453   3.766  25.349  0.00  0.00    +0.139 A 
ATOM     27  C   UNL     1      -4.056   3.884  26.062  0.00  0.00    +0.037 A 
ATOM     28  C   UNL     1      -3.233   3.944  26.071  0.00  0.00    +0.001 A 
BRANCH  24  25
ATOM     25  O   UNL     1      -5.277   3.707  25.340  0.00  0.00    -0.471 OA
ATOM     26  C   UNL     1      -5.646   3.053  25.680  0.00  0.00    +0.252 C 
ENDBRANCH  24  25
ENDBRANCH  20  21
ENDBRANCH  19  20
ENDBRANCH  15  17
ENDBRANCH  14  15
TORSDOF 7
ENDMDL
MODEL 2
REMARK VINA RESULT:     -11.0      2.028      3.901
REMARK  Name = 
REMARK  7 active torsions:
REMARK  status: ('A' for Active; 'I' for Inactive)
REMARK    1  A    between atoms: C_2  and  N_3
REMARK    2  A    between atoms: N_6  and  C_7
REMARK    3  A    between atoms: C_14  and  C_15
REMARK    4  A    between atoms: C_15  and  C_17
REMARK    5  A    between atoms: N_19  and  C_20
REMARK    6  A    between atoms: C_20  and  C_21
REMARK    7  A    between atoms: C_24  and  O_25
REMARK                            x       y       z     vdW  Elec       q    Type
REMARK                         _______ _______ _______ _____ _____    ______ ____
ROOT
ATOM      7  C   UNL     1      -4.411  -0.068  24.391  0.00  0.00    +0.097 C 
ATOM      8  C   UNL     1      -4.996  -0.021  24.970  0.00  0.00    +0.022 C 
ATOM      9  C   UNL     1      -5.241   0.717  25.249  0.00  0.00    +0.002 C 
ATOM     10  C   UNL     1      -4.902   1.405  24.949  0.00  0.00    +0.002 C 
ATOM     11  C   UNL     1      -5.487   1.453  25.528  0.00  0.00    +0.000 C 
ATOM     12  C   UNL     1      -5.147   2.142  25.228  0.00  0.00    +0.000 C 
ATOM     13  C   UNL     1      -4.807   2.831  24.928  0.00  0.00    +0.003 C 
ATOM     14  C   UNL     1      -4.221   2.783  24.349  0.00  0.00    +0.039 C 
ATOM     29  C   UNL     1      -3.975   2.047  24.069  0.00  0.00    +0.152 C 
ATOM     30  O   UNL     1      -3.391   2.000  23.491  0.00  0.00    -0.223 OA
ATOM     31  C   UNL     1      -4.316   1.358  24.370  0.00  0.00    +0.032 C 
ATOM     32  C   UNL     1      -4.070   0.621  24.091  0.00  0.00    +0.023 C 
ATOM     33  C   UNL     1      -3.485   0.574  23.512  0.00  0.00    +0.002 C 
ENDROOT
BRANCH   7   6
ATOM      3  N   UNL     1      -3.644  -2.111  24.362  0.00  0.00    -0.187 NA
ATOM      4  C   UNL     1      -3.890  -1.375  24.641  0.00  0.00    +0.339 C 
ATOM      5  O   UNL     1      -3.861  -1.209  25.449  0.00  0.00    -0.249 OA
ATOM      6  N   UNL     1      -4.165  -0.804  24.112  0.00  0.00    -0.189 NA
BRANCH   3   2
ATOM      1  C   UNL     1      -3.024  -3.375  24.607  0.00  0.00    +0.025 C 
ATOM      2  C   UNL     1      -3.369  -2.682  24.891  0.00  0.00    +0.117 C 
ENDBRANCH   3   2
ENDBRANCH   7   6
BRANCH  14  15
ATOM     15  C   UNL     1      -3.881   3.472  24.048  0.00  0.00    +0.081 C 
ATOM     16  C   UNL     1      -4.067   3.726  23.287  0.00  0.00    +0.010 C 
BRANCH  15  17
ATOM     17  C   UNL     1      -3.353   3.907  24.511  0.00  0.00    +0.241 C 
ATOM     18  O   UNL     1      -3.614   4.578  24.914  0.00  0.00    -0.273 OA
ATOM     19  N   UNL     1      -2.565   3.670  24.571  0.00  0.00    -0.201 NA
BRANCH  19  20
ATOM     20  C   UNL     1      -2.038   4.105  25.033  0.00  0.00    +0.141 C 
BRANCH  20  21
ATOM     21  C   UNL     1      -1.363   3.742  25.339  0.00  0.00    -0.000 A 
ATOM     22  C   UNL     1      -1.387   3.389  26.085  0.00  0.00    +0.001 A 
ATOM     23  C   UNL     1      -0.712   3.027  26.391  0.00  0.00    +0.037 A 
ATOM     24  C   UNL     1      -0.014   3.017  25.952  0.00  0.00    +0.139 A 
ATOM     27  C   UNL     1       0.010   3.369  25.207  0.00  0.00    +0.037 A 
ATOM     28  C   UNL     1      -0.666   3.732  24.900  0.00  0.00    +0.001 A 
BRANCH  24  25
ATOM     25  O   UNL     1       0.661   2.654  26.258  0.00  0.00    -0.471 OA
ATOM     26  C   UNL     1       0.646   2.330  27.017  0.00  0.00    +0.252 C 
ENDBRANCH  24  25
ENDBRANCH  20  21
ENDBRANCH  19  20
ENDBRANCH  15  17
ENDBRANCH  14  15
TORSDOF 7
ENDMDL
MODEL 3
REMARK VINA RESULT:     -10.6      1.338      4.940
REMARK  Name = 
REMARK  7 active torsions:
REMARK  status: ('A' for Active; 'I' for Inactive)
REMARK    1  A    between atoms: C_2  and  N_3
REMARK    2  A    between atoms: N_6  and  C_7
REMARK    3  A    between atoms: C_14  and  C_15
REMARK    4  A    between atoms: C_15  and  C_17
REMARK    5  A    between atoms: N_19  and  C_20
REMARK    6  A    between atoms: C_20  and  C_21
REMARK    7  A    between atoms: C_24  and  O_25
REMARK                            x       y       z     vdW  Elec       q    Type
REMARK                         _______ _______ _______ _____ _____    ______ ____
ROOT
ATOM      7  C   UNL     1      -2.755   3.434  24.988  0.00  0.00    +0.097 C 
ATOM      8  C   UNL     1      -2.325   3.733  25.625  0.00  0.00    +0.022 C 
ATOM      9  C   UNL     1      -1.599   3.396  25.827  0.00  0.00    +0.002 C 
ATOM     10  C   UNL     1      -1.304   2.760  25.393  0.00  0.00    +0.002 C 
ATOM     11  C   UNL     1      -0.874   3.060  26.030  0.00  0.00    +0.000 C 
ATOM     12  C   UNL     1      -0.578   2.423  25.594  0.00  0.00    +0.000 C 
ATOM     13  C   UNL     1      -0.283   1.788  25.160  0.00  0.00    +0.003 C 
ATOM     14  C   UNL     1      -0.713   1.489  24.523  0.00  0.00    +0.039 C 
ATOM     29  C   UNL     1      -1.439   1.825  24.320  0.00  0.00    +0.152 C 
ATOM     30  O   UNL     1      -1.868   1.526  23.683  0.00  0.00    -0.223 OA
ATOM     31  C   UNL     1      -1.734   2.461  24.755  0.00  0.00    +0.032 C 
ATOM     32  C   UNL     1      -2.460   2.798  24.552  0.00  0.00    +0.023 C 
ATOM     33  C   UNL     1      -2.889   2.499  23.916  0.00  0.00    +0.002 C 
ENDROOT
BRANCH   7   6
ATOM      3  N   UNL     1      -4.834   4.084  25.117  0.00  0.00    -0.187 NA
ATOM      4  C   UNL     1      -4.109   3.748  25.320  0.00  0.00    +0.339 C 
ATOM      5  O   UNL     1      -4.011   3.389  26.056  0.00  0.00    -0.249 OA
ATOM      6  N   UNL     1      -3.480   3.770  24.785  0.00  0.00    -0.189 NA
BRANCH   3   2
ATOM      1  C   UNL     1      -6.168   4.450  25.475  0.00  0.00    +0.025 C 
ATOM      2  C   UNL     1      -5.463   4.062  25.652  0.00  0.00    +0.117 C 
ENDBRANCH   3   2
ENDBRANCH   7   6
BRANCH  14  15
ATOM     15  C   UNL     1      -0.419   0.853  24.088  0.00  0.00    +0.081 C 
ATOM     16  C   UNL     1      -0.148   0.970  23.318  0.00  0.00    +0.010 C 
BRANCH  15  17
ATOM     17  C   UNL     1      -0.395   0.099  24.424  0.00  0.00    +0.241 C 
ATOM     18  O   UNL     1       0.298  -0.174  24.777  0.00  0.00    -0.273 OA
ATOM     19  N   UNL     1      -1.067  -0.381  24.406  0.00  0.00    -0.201 NA
BRANCH  19  20
ATOM     20  C   UNL     1      -1.043  -1.134  24.742  0.00  0.00    +0.141 C 
BRANCH  20  21
ATOM     21  C   UNL     1      -1.717  -1.609  24.735  0.00  0.00    -0.000 A 
ATOM     22  C   UNL     1      -1.761  -2.256  24.223  0.00  0.00    +0.001 A 
ATOM     23  C   UNL     1      -2.435  -2.731  24.216  0.00  0.00    +0.037 A 
ATOM     24  C   UNL     1      -3.065  -2.560  24.719  0.00  0.00    +0.139 A 
ATOM     27  C   UNL     1      -3.022  -1.915  25.231  0.00  0.00    +0.037 A 
ATOM     28  C   UNL     1      -2.347  -1.439  25.238  0.00  0.00    +0.001 A 
BRANCH  24  25
ATOM     25  O   UNL     1      -3.740  -3.036  24.712  0.00  0.00    -0.471 OA
ATOM     26  C   UNL     1      -4.253  -3.013  24.067  0.00  0.00    +0.252 C 
ENDBRANCH  24  25
ENDBRANCH  20  21
ENDBRANCH  19  20
ENDBRANCH  15  17
ENDBRANCH  14  15
TORSDOF 7
ENDMDL
MODEL 4
REMARK VINA RESULT:     -10.5      1.938      4.563
REMARK  Name = 
REMARK  7 active torsions:
REMARK  status: ('A' for Active; 'I' for Inactive)
REMARK    1  A    between atoms: C_2  and  N_3
REMARK    2  A    between atoms: N_6  and  C_7
REMARK    3  A    between atoms: C_14  and  C_15
REMARK    4  A    between atoms: C_15  and  C_17
REMARK    5  A    between atoms: N_19  and  C_20
REMARK    6  A    between atoms: C_20  and  C_21
REMARK    7  A    between atoms: C_24  and  O_25
REMARK                            x       y       z     vdW  Elec       q    Type
REMARK                         _______ _______ _______ _____ _____    ______ ____
ROOT
ATOM      7  C   UNL     1      -0.506   2.770  24.330  0.00  0.00    +0.097 C 
ATOM      8  C   UNL     1      -0.390   3.149  25.053  0.00  0.00    +0.022 C 
ATOM      9  C   UNL     1      -1.038   3.334  25.530  0.00  0.00    +0.002 C 
ATOM     10  C   UNL     1      -1.800   3.141  25.284  0.00  0.00    +0.002 C 
ATOM     11  C   UNL     1      -1.684   3.520  26.007  0.00  0.00    +0.000 C 
ATOM     12  C   UNL     1      -2.448   3.326  25.760  0.00  0.00    +0.000 C 
ATOM     13  C   UNL     1      -3.211   3.132  25.515  0.00  0.00    +0.003 C 
ATOM     14  C   UNL     1      -3.327   2.753  24.791  0.00  0.00    +0.039 C 
ATOM     29  C   UNL     1      -2.680   2.567  24.314  0.00  0.00    +0.152 C 
ATOM     30  O   UNL     1      -2.796   2.188  23.592  0.00  0.00    -0.223 OA
ATOM     31  C   UNL     1      -1.917   2.761  24.561  0.00  0.00    +0.032 C 
ATOM     32  C   UNL     1      -1.270   2.575  24.083  0.00  0.00    +0.023 C 
ATOM     33  C   UNL     1      -1.386   2.196  23.361  0.00  0.00    +0.002 C 
ENDROOT
BRANCH   7   6
ATOM      3  N   UNL     1       1.285   1.773  23.581  0.00  0.00    -0.187 NA
ATOM      4  C   UNL     1       0.639   1.959  24.059  0.00  0.00    +0.339 C 
ATOM      5  O   UNL     1       0.491   1.521  24.742  0.00  0.00    -0.249 OA
ATOM      6  N   UNL     1       0.140   2.584  23.852  0.00  0.00    -0.189 NA
BRANCH   3   2
ATOM      1  C   UNL     1       2.295   0.827  23.226  0.00  0.00    +0.025 C 
ATOM      2  C   UNL     1       1.784   1.149  23.788  0.00  0.00    +0.117 C 
ENDBRANCH   3   2
ENDBRANCH   7   6
BRANCH  14  15
ATOM     15  C   UNL     1      -4.090   2.558  24.545  0.00  0.00    +0.081 C 
ATOM     16  C   UNL     1      -4.461   3.006  23.961  0.00  0.00    +0.010 C 
BRANCH  15  17
ATOM     17  C   UNL     1      -4.481   1.915  24.883  0.00  0.00    +0.241 C 
ATOM     18  O   UNL     1      -5.074   2.041  25.443  0.00  0.00    -0.273 OA
ATOM     19  N   UNL     1      -4.278   1.146  24.662  0.00  0.00    -0.201 NA
BRANCH  19  20
ATOM     20  C   UNL     1      -4.669   0.503  25.000  0.00  0.00    +0.141 C 
BRANCH  20  21
ATOM     21  C   UNL     1      -4.356  -0.256  24.924  0.00  0.00    -0.000 A 
ATOM     22  C   UNL     1      -4.482  -0.686  24.231  0.00  0.00    +0.001 A 
ATOM     23  C   UNL     1      -4.168  -1.445  24.154  0.00  0.00    +0.037 A 
ATOM     24  C   UNL     1      -3.729  -1.774  24.769  0.00  0.00    +0.139 A 
ATOM     27  C   UNL     1      -3.603  -1.345  25.462  0.00  0.00    +0.037 A 
ATOM     28  C   UNL     1      -3.917  -0.585  25.539  0.00  0.00    +0.001 A 
BRANCH  24  25
ATOM     25  O   UNL     1      -3.416  -2.534  24.693  0.00  0.00    -0.471 OA
ATOM     26  C   UNL     1      -2.650  -2.636  24.404  0.00  0.00    +0.252 C 
ENDBRANCH  24  25
ENDBRANCH  20  21
ENDBRANCH  19  20
ENDBRANCH  15  17
ENDBRANCH  14  15
TORSDOF 7
ENDMDL
MODEL 5
REMARK VINA RESULT:     -10.1      1.993      3.621
REMARK  Name = 
REMARK  7 active torsions:
REMARK  status: ('A' for Active; 'I' for Inactive)
REMARK    1  A    between atoms: C_2  and  N_3
REMARK    2  A    between atoms: N_6  and  C_7
REMARK    3  A    between atoms: C_14  and  C_15
REMARK    4  A    between atoms: C_15  and  C_17
REMARK    5  A    between atoms: N_19  and  C_20
REMARK    6  A    between atoms: C_20  and  C_21
REMARK    7  A    between atoms: C_24  and  O_25
REMARK                            x       y       z     vdW  Elec       q    Type
REMARK                         _______ _______ _______ _____ _____    ______ ____
ROOT
ATOM      7  C   UNL     1      -0.242  -0.839  24.249  0.00  0.00    +0.097 C 
ATOM      8  C   UNL     1      -0.258  -1.606  23.946  0.00  0.00    +0.022 C 
ATOM      9  C   UNL     1      -0.935  -2.069  24.035  0.00  0.00    +0.002 C 
ATOM     10  C   UNL     1      -1.594  -1.767  24.427  0.00  0.00    +0.002 C 
ATOM     11  C   UNL     1      -1.611  -2.534  24.123  0.00  0.00    +0.000 C 
ATOM     12  C   UNL     1      -2.271  -2.231  24.515  0.00  0.00    +0.000 C 
ATOM     13  C   UNL     1      -2.930  -1.928  24.907  0.00  0.00    +0.003 C 
ATOM     14  C   UNL     1      -2.914  -1.161  25.211  0.00  0.00    +0.039 C 
ATOM     29  C   UNL     1      -2.238  -0.697  25.123  0.00  0.00    +0.152 C 
ATOM     30  O   UNL     1      -2.221   0.069  25.426  0.00  0.00    -0.223 OA
ATOM     31  C   UNL     1      -1.578  -1.000  24.730  0.00  0.00    +0.032 C 
ATOM     32  C   UNL     1      -0.902  -0.536  24.642  0.00  0.00    +0.023 C 
ATOM     33  C   UNL     1      -0.885   0.230  24.945  0.00  0.00    +0.002 C 
ENDROOT
BRANCH   7   6
ATOM      3  N   UNL     1       1.487   0.135  23.339  0.00  0.00    -0.187 NA
ATOM      4  C   UNL     1       0.811  -0.329  23.428  0.00  0.00    +0.339 C 
ATOM      5  O   UNL     1       0.511  -0.748  22.784  0.00  0.00    -0.249 OA
ATOM      6  N   UNL     1       0.434  -0.374  24.161  0.00  0.00    -0.189 NA
BRANCH   3   2
ATOM      1  C   UNL     1       2.660   0.387  22.564  0.00  0.00    +0.025 C 
ATOM      2  C   UNL     1       1.863   0.180  22.606  0.00  0.00    +0.117 C 
ENDBRANCH   3   2
ENDBRANCH   7   6
BRANCH  14  15
ATOM     15  C   UNL     1      -3.573  -0.858  25.603  0.00  0.00    +0.081 C 
ATOM     16  C   UNL     1      -3.637  -0.933  26.421  0.00  0.00    +0.010 C 
BRANCH  15  17
ATOM     17  C   UNL     1      -4.168  -0.479  25.175  0.00  0.00    +0.241 C 
ATOM     18  O   UNL     1      -4.566  -0.882  24.575  0.00  0.00    -0.273 OA
ATOM     19  N   UNL     1      -4.366   0.304  25.348  0.00  0.00    -0.201 NA
BRANCH  19  20
ATOM     20  C   UNL     1      -4.961   0.683  24.921  0.00  0.00    +0.141 C 
BRANCH  20  21
ATOM     21  C   UNL     1      -5.124   1.479  25.059  0.00  0.00    -0.000 A 
ATOM     22  C   UNL     1      -4.699   2.062  24.657  0.00  0.00    +0.001 A 
ATOM     23  C   UNL     1      -4.862   2.859  24.795  0.00  0.00    +0.037 A 
ATOM     24  C   UNL     1      -5.447   3.073  25.334  0.00  0.00    +0.139 A 
ATOM     27  C   UNL     1      -5.872   2.491  25.736  0.00  0.00    +0.037 A 
ATOM     28  C   UNL     1      -5.709   1.694  25.598  0.00  0.00    +0.001 A 
BRANCH  24  25
ATOM     25  O   UNL     1      -5.610   3.871  25.472  0.00  0.00    -0.471 OA
ATOM     26  C   UNL     1      -4.991   4.413  25.534  0.00  0.00    +0.252 C 
ENDBRANCH  24  25
ENDBRANCH  20  21
ENDBRANCH  19  20
ENDBRANCH  15  17
ENDBRANCH  14  15
TORSDOF 7
ENDMDL
MODEL 6
REMARK VINA RESULT:      -9.9      2.043      3.649
REMARK  Name = 
REMARK  7 active torsions:
REMARK  status: ('A' for Active; 'I' for Inactive)
REMARK    1  A    between atoms: C_2  and  N_3
REMARK    2  A    between atoms: N_6  and  C_7
REMARK    3  A    between atoms: C_14  and  C_15
REMARK    4  A    between atoms: C_15  and  C_17
REMARK    5  A    between atoms: N_19  and  C_20
REMARK    6  A    between atoms: C_20  and  C_21
REMARK    7  A    between atoms: C_24  and  O_25
REMARK                            x       y       z     vdW  Elec       q    Type
REMARK                         _______ _______ _______ _____ _____    ______ ____
ROOT
ATOM      7  C   UNL     1       0.866   0.578  23.605  0.00  0.00    +0.097 C 
ATOM      8  C   UNL     1       0.901   1.359  23.870  0.00  0.00    +0.022 C 
ATOM      9  C   UNL     1       0.289   1.666  24.329  0.00  0.00    +0.002 C 
ATOM     10  C   UNL     1      -0.359   1.194  24.523  0.00  0.00    +0.002 C 
ATOM     11  C   UNL     1      -0.323   1.975  24.788  0.00  0.00    +0.000 C 
ATOM     12  C   UNL     1      -0.971   1.502  24.983  0.00  0.00    +0.000 C 
ATOM     13  C   UNL     1      -1.619   1.030  25.177  0.00  0.00    +0.003 C 
ATOM     14  C   UNL     1      -1.654   0.249  24.912  0.00  0.00    +0.039 C 
ATOM     29  C   UNL     1      -1.043  -0.059  24.453  0.00  0.00    +0.152 C 
ATOM     30  O   UNL     1      -1.078  -0.839  24.188  0.00  0.00    -0.223 OA
ATOM     31  C   UNL     1      -0.394   0.414  24.259  0.00  0.00    +0.032 C 
ATOM     32  C   UNL     1       0.217   0.105  23.799  0.00  0.00    +0.023 C 
ATOM     33  C   UNL     1       0.182  -0.674  23.535  0.00  0.00    +0.002 C 
ENDROOT
BRANCH   7   6
ATOM      3  N   UNL     1       2.807   0.365  22.631  0.00  0.00    -0.187 NA
ATOM      4  C   UNL     1       2.195   0.674  23.090  0.00  0.00    +0.339 C 
ATOM      5  O   UNL     1       2.300   1.386  23.494  0.00  0.00    -0.249 OA
ATOM      6  N   UNL     1       1.477   0.270  23.146  0.00  0.00    -0.189 NA
BRANCH   3   2
ATOM      1  C   UNL     1       4.220   0.355  22.416  0.00  0.00    +0.025 C 
ATOM      2  C   UNL     1       3.525   0.769  22.575  0.00  0.00    +0.117 C 
ENDBRANCH   3   2
ENDBRANCH   7   6
BRANCH  14  15
ATOM     15  C   UNL     1      -2.302  -0.223  25.106  0.00  0.00    +0.081 C 
ATOM     16  C   UNL     1      -2.218  -0.831  25.657  0.00  0.00    +0.010 C 
BRANCH  15  17
ATOM     17  C   UNL     1      -3.033  -0.087  24.749  0.00  0.00    +0.241 C 
ATOM     18  O   UNL     1      -3.249  -0.513  24.076  0.00  0.00    -0.273 OA
ATOM     19  N   UNL     1      -3.549   0.475  25.065  0.00  0.00    -0.201 NA
BRANCH  19  20
ATOM     20  C   UNL     1      -4.280   0.610  24.707  0.00  0.00    +0.141 C 
BRANCH  20  21
ATOM     21  C   UNL     1      -4.717   1.281  24.906  0.00  0.00    -0.000 A 
ATOM     22  C   UNL     1      -4.606   1.984  24.487  0.00  0.00    +0.001 A 
ATOM     23  C   UNL     1      -5.043   2.655  24.686  0.00  0.00    +0.037 A 
ATOM     24  C   UNL     1      -5.589   2.624  25.302  0.00  0.00    +0.139 A 
ATOM     27  C   UNL     1      -5.700   1.922  25.721  0.00  0.00    +0.037 A 
ATOM     28  C   UNL     1      -5.263   1.250  25.522  0.00  0.00    +0.001 A 
BRANCH  24  25
ATOM     25  O   UNL     1      -6.027   3.295  25.501  0.00  0.00    -0.471 OA
ATOM     26  C   UNL     1      -5.650   4.026  25.569  0.00  0.00    +0.252 C 
ENDBRANCH  24  25
ENDBRANCH  20  21
ENDBRANCH  19  20
ENDBRANCH  15  17
ENDBRANCH  14  15
TORSDOF 7
ENDMDL
MODEL 7
REMARK VINA RESULT:      -9.8      1.997      5.924
REMARK  Name = 
REMARK  7 active torsions:
REMARK  status: ('A' for Active; 'I' for Inactive)
REMARK    1  A    between atoms: C_2  and  N_3
REMARK    2  A    between atoms: N_6  and  C_7
REMARK    3  A    between atoms: C_14  and  C_15
REMARK    4  A    between atoms: C_15  and  C_17
REMARK    5  A    between atoms: N_19  and  C_20
REMARK    6  A    between atoms: C_20  and  C_21
REMARK    7  A    between atoms: C_24  and  O_25
REMARK                            x       y       z     vdW  Elec       q    Type
REMARK                         _______ _______ _______ _____ _____    ______ ____
ROOT
ATOM      7  C   UNL     1      -3.713   3.591  24.734  0.00  0.00    +0.097 C 
ATOM      8  C   UNL     1      -4.312   3.841  25.243  0.00  0.00    +0.022 C 
ATOM      9  C   UNL     1      -4.859   3.297  25.535  0.00  0.00    +0.002 C 
ATOM     10  C   UNL     1      -4.808   2.503  25.318  0.00  0.00    +0.002 C 
ATOM     11  C   UNL     1      -5.407   2.753  25.827  0.00  0.00    +0.000 C 
ATOM     12  C   UNL     1      -5.355   1.959  25.609  0.00  0.00    +0.000 C 
ATOM     13  C   UNL     1      -5.304   1.165  25.392  0.00  0.00    +0.003 C 
ATOM     14  C   UNL     1      -4.705   0.915  24.882  0.00  0.00    +0.039 C 
ATOM     29  C   UNL     1      -4.158   1.458  24.590  0.00  0.00    +0.152 C 
ATOM     30  O   UNL     1      -3.560   1.208  24.082  0.00  0.00    -0.223 OA
ATOM     31  C   UNL     1      -4.209   2.253  24.808  0.00  0.00    +0.032 C 
ATOM     32  C   UNL     1      -3.662   2.796  24.516  0.00  0.00    +0.023 C 
ATOM     33  C   UNL     1      -3.064   2.546  24.007  0.00  0.00    +0.002 C 
ENDROOT
BRANCH   7   6
ATOM      3  N   UNL     1      -2.049   5.001  24.654  0.00  0.00    -0.187 NA
ATOM      4  C   UNL     1      -2.597   4.458  24.946  0.00  0.00    +0.339 C 
ATOM      5  O   UNL     1      -2.577   4.237  25.741  0.00  0.00    -0.249 OA
ATOM      6  N   UNL     1      -3.166   4.134  24.442  0.00  0.00    -0.189 NA
BRANCH   3   2
ATOM      1  C   UNL     1      -0.735   5.522  24.865  0.00  0.00    +0.025 C 
ATOM      2  C   UNL     1      -1.481   5.324  25.158  0.00  0.00    +0.117 C 
ENDBRANCH   3   2
ENDBRANCH   7   6
BRANCH  14  15
ATOM     15  C   UNL     1      -4.653   0.121  24.664  0.00  0.00    +0.081 C 
ATOM     16  C   UNL     1      -5.007  -0.139  23.967  0.00  0.00    +0.010 C 
BRANCH  15  17
ATOM     17  C   UNL     1      -4.247  -0.413  25.145  0.00  0.00    +0.241 C 
ATOM     18  O   UNL     1      -4.552  -0.618  25.884  0.00  0.00    -0.273 OA
ATOM     19  N   UNL     1      -3.535  -0.741  24.887  0.00  0.00    -0.201 NA
BRANCH  19  20
ATOM     20  C   UNL     1      -3.129  -1.274  25.368  0.00  0.00    +0.141 C 
BRANCH  20  21
ATOM     21  C   UNL     1      -2.318  -1.386  25.265  0.00  0.00    -0.000 A 
ATOM     22  C   UNL     1      -1.781  -0.947  25.712  0.00  0.00    +0.001 A 
ATOM     23  C   UNL     1      -0.970  -1.059  25.609  0.00  0.00    +0.037 A 
ATOM     24  C   UNL     1      -0.696  -1.609  25.060  0.00  0.00    +0.139 A 
ATOM     27  C   UNL     1      -1.233  -2.048  24.613  0.00  0.00    +0.037 A 
ATOM     28  C   UNL     1      -2.044  -1.936  24.716  0.00  0.00    +0.001 A 
BRANCH  24  25
ATOM     25  O   UNL     1       0.115  -1.721  24.957  0.00  0.00    -0.471 OA
ATOM     26  C   UNL     1       0.524  -1.276  24.396  0.00  0.00    +0.252 C 
ENDBRANCH  24  25
ENDBRANCH  20  21
ENDBRANCH  19  20
ENDBRANCH  15  17
ENDBRANCH  14  15
TORSDOF 7
ENDMDL
MODEL 8
REMARK VINA RESULT:      -9.8      2.625      5.803
REMARK  Name = 
REMARK  7 active torsions:
REMARK  status: ('A' for Active; 'I' for Inactive)
REMARK    1  A    between atoms: C_2  and  N_3
REMARK    2  A    between atoms: N_6  and  C_7
REMARK    3  A    between atoms: C_14  and  C_15
REMARK    4  A    between atoms: C_15  and  C_17
REMARK    5  A    between atoms: N_19  and  C_20
REMARK    6  A    between atoms: C_20  and  C_21
REMARK    7  A    between atoms: C_24  and  O_25
REMARK                            x       y       z     vdW  Elec       q    Type
REMARK                         _______ _______ _______ _____ _____    ______ ____
ROOT
ATOM      7  C   UNL     1      -2.617   2.307  24.394  0.00  0.00    +0.097 C 
ATOM      8  C   UNL     1      -2.175   2.967  24.617  0.00  0.00    +0.022 C 
ATOM      9  C   UNL     1      -1.351   2.924  24.633  0.00  0.00    +0.002 C 
ATOM     10  C   UNL     1      -0.970   2.223  24.427  0.00  0.00    +0.002 C 
ATOM     11  C   UNL     1      -0.527   2.882  24.650  0.00  0.00    +0.000 C 
ATOM     12  C   UNL     1      -0.146   2.179  24.443  0.00  0.00    +0.000 C 
ATOM     13  C   UNL     1       0.235   1.478  24.237  0.00  0.00    +0.003 C 
ATOM     14  C   UNL     1      -0.208   0.819  24.014  0.00  0.00    +0.039 C 
ATOM     29  C   UNL     1      -1.031   0.860  23.997  0.00  0.00    +0.152 C 
ATOM     30  O   UNL     1      -1.473   0.202  23.775  0.00  0.00    -0.223 OA
ATOM     31  C   UNL     1      -1.413   1.563  24.204  0.00  0.00    +0.032 C 
ATOM     32  C   UNL     1      -2.236   1.605  24.187  0.00  0.00    +0.023 C 
ATOM     33  C   UNL     1      -2.678   0.946  23.965  0.00  0.00    +0.002 C 
ENDROOT
BRANCH   7   6
ATOM      3  N   UNL     1      -4.667   2.826  24.936  0.00  0.00    -0.187 NA
ATOM      4  C   UNL     1      -3.843   2.784  24.953  0.00  0.00    +0.339 C 
ATOM      5  O   UNL     1      -3.422   3.176  25.543  0.00  0.00    -0.249 OA
ATOM      6  N   UNL     1      -3.441   2.349  24.377  0.00  0.00    -0.189 NA
BRANCH   3   2
ATOM      1  C   UNL     1      -5.873   3.128  25.641  0.00  0.00    +0.025 C 
ATOM      2  C   UNL     1      -5.069   3.261  25.511  0.00  0.00    +0.117 C 
ENDBRANCH   3   2
ENDBRANCH   7   6
BRANCH  14  15
ATOM     15  C   UNL     1       0.173   0.116  23.808  0.00  0.00    +0.081 C 
ATOM     16  C   UNL     1       0.038  -0.570  24.244  0.00  0.00    +0.010 C 
BRANCH  15  17
ATOM     17  C   UNL     1       0.689   0.101  23.163  0.00  0.00    +0.241 C 
ATOM     18  O   UNL     1       0.389   0.074  22.395  0.00  0.00    -0.273 OA
ATOM     19  N   UNL     1       1.505   0.114  23.288  0.00  0.00    -0.201 NA
BRANCH  19  20
ATOM     20  C   UNL     1       2.020   0.098  22.644  0.00  0.00    +0.141 C 
BRANCH  20  21
ATOM     21  C   UNL     1       2.833   0.165  22.765  0.00  0.00    -0.000 A 
ATOM     22  C   UNL     1       3.262  -0.484  23.043  0.00  0.00    +0.001 A 
ATOM     23  C   UNL     1       4.075  -0.418  23.165  0.00  0.00    +0.037 A 
ATOM     24  C   UNL     1       4.459   0.295  23.010  0.00  0.00    +0.139 A 
ATOM     27  C   UNL     1       4.031   0.943  22.733  0.00  0.00    +0.037 A 
ATOM     28  C   UNL     1       3.217   0.877  22.611  0.00  0.00    +0.001 A 
BRANCH  24  25
ATOM     25  O   UNL     1       5.273   0.361  23.132  0.00  0.00    -0.471 OA
ATOM     26  C   UNL     1       5.593   0.189  23.873  0.00  0.00    +0.252 C 
ENDBRANCH  24  25
ENDBRANCH  20  21
ENDBRANCH  19  20
ENDBRANCH  15  17
ENDBRANCH  14  15
TORSDOF 7
ENDMDL
MODEL 9
REMARK VINA RESULT:      -9.7      1.902      4.903
REMARK  Name = 
REMARK  7 active torsions:
REMARK  status: ('A' for Active; 'I' for Inactive)
REMARK    1  A    between atoms: C_2  and  N_3
REMARK    2  A    between atoms: N_6  and  C_7
REMARK    3  A    between atoms: C_14  and  C_15
REMARK    4  A    between atoms: C_15  and  C_17
REMARK    5  A    between atoms: N_19  and  C_20
REMARK    6  A    between atoms: C_20  and  C_21
REMARK    7  A    between atoms: C_24  and  O_25
REMARK                            x       y       z     vdW  Elec       q    Type
REMARK                         _______ _______ _______ _____ _____    ______ ____
ROOT
ATOM      7  C   UNL     1      -0.423   3.011  25.808  0.00  0.00    +0.097 C 
ATOM      8  C   UNL     1      -0.813   3.697  26.051  0.00  0.00    +0.022 C 
ATOM      9  C   UNL     1      -1.549   3.886  25.731  0.00  0.00    +0.002 C 
ATOM     10  C   UNL     1      -1.896   3.392  25.170  0.00  0.00    +0.002 C 
ATOM     11  C   UNL     1      -2.286   4.077  25.412  0.00  0.00    +0.000 C 
ATOM     12  C   UNL     1      -2.633   3.581  24.850  0.00  0.00    +0.000 C 
ATOM     13  C   UNL     1      -2.979   3.087  24.289  0.00  0.00    +0.003 C 
ATOM     14  C   UNL     1      -2.589   2.401  24.047  0.00  0.00    +0.039 C 
ATOM     29  C   UNL     1      -1.853   2.210  24.366  0.00  0.00    +0.152 C 
ATOM     30  O   UNL     1      -1.463   1.526  24.124  0.00  0.00    -0.223 OA
ATOM     31  C   UNL     1      -1.506   2.706  24.928  0.00  0.00    +0.032 C 
ATOM     32  C   UNL     1      -0.769   2.516  25.246  0.00  0.00    +0.023 C 
ATOM     33  C   UNL     1      -0.380   1.831  25.005  0.00  0.00    +0.002 C 
ENDROOT
BRANCH   7   6
ATOM      3  N   UNL     1       1.138   2.552  27.263  0.00  0.00    -0.187 NA
ATOM      4  C   UNL     1       0.401   2.742  26.945  0.00  0.00    +0.339 C 
ATOM      5  O   UNL     1      -0.247   2.855  27.442  0.00  0.00    -0.249 OA
ATOM      6  N   UNL     1       0.314   2.821  26.127  0.00  0.00    -0.189 NA
BRANCH   3   2
ATOM      1  C   UNL     1       1.947   2.655  28.437  0.00  0.00    +0.025 C 
ATOM      2  C   UNL     1       1.225   2.474  28.081  0.00  0.00    +0.117 C 
ENDBRANCH   3   2
ENDBRANCH   7   6
BRANCH  14  15
ATOM     15  C   UNL     1      -2.935   1.906  23.486  0.00  0.00    +0.081 C 
ATOM     16  C   UNL     1      -2.639   1.883  22.717  0.00  0.00    +0.010 C 
BRANCH  15  17
ATOM     17  C   UNL     1      -3.579   1.432  23.694  0.00  0.00    +0.241 C 
ATOM     18  O   UNL     1      -4.336   1.758  23.732  0.00  0.00    -0.273 OA
ATOM     19  N   UNL     1      -3.464   0.633  23.866  0.00  0.00    -0.201 NA
BRANCH  19  20
ATOM     20  C   UNL     1      -4.107   0.160  24.075  0.00  0.00    +0.141 C 
BRANCH  20  21
ATOM     21  C   UNL     1      -3.983  -0.612  24.334  0.00  0.00    -0.000 A 
ATOM     22  C   UNL     1      -4.077  -1.244  23.810  0.00  0.00    +0.001 A 
ATOM     23  C   UNL     1      -3.953  -2.016  24.070  0.00  0.00    +0.037 A 
ATOM     24  C   UNL     1      -3.735  -2.159  24.851  0.00  0.00    +0.139 A 
ATOM     27  C   UNL     1      -3.640  -1.529  25.375  0.00  0.00    +0.037 A 
ATOM     28  C   UNL     1      -3.765  -0.755  25.116  0.00  0.00    +0.001 A 
BRANCH  24  25
ATOM     25  O   UNL     1      -3.610  -2.933  25.111  0.00  0.00    -0.471 OA
ATOM     26  C   UNL     1      -3.182  -3.460  24.643  0.00  0.00    +0.252 C 
ENDBRANCH  24  25
ENDBRANCH  20  21
ENDBRANCH  19  20
ENDBRANCH  15  17
ENDBRANCH  14  15
TORSDOF 7
ENDMDL
MODEL 10
REMARK VINA RESULT:      -9.7      1.868      3.549
REMARK  Name = 
REMARK  7 active torsions:
REMARK  status: ('A' for Active; 'I' for Inactive)
REMARK    1  A    between atoms: C_2  and  N_3
REMARK    2  A    between atoms: N_6  and  C_7
REMARK    3  A    between atoms: C_14  and  C_15
REMARK    4  A    between atoms: C_15  and  C_17
REMARK    5  A    between atoms: N_19  and  C_20
REMARK    6  A    between atoms: C_20  and  C_21
REMARK    7  A    between atoms: C_24  and  O_25
REMARK                            x       y       z     vdW  Elec       q    Type
REMARK                         _______ _______ _______ _____ _____    ______ ____
ROOT
ATOM      7  C   UNL     1      -1.897  -0.715  24.266  0.00  0.00    +0.097 C 
ATOM      8  C   UNL     1      -1.944  -1.198  24.933  0.00  0.00    +0.022 C 
ATOM      9  C   UNL     1      -2.582  -1.124  25.451  0.00  0.00    +0.002 C 
ATOM     10  C   UNL     1      -3.172  -0.567  25.303  0.00  0.00    +0.002 C 
ATOM     11  C   UNL     1      -3.219  -1.050  25.970  0.00  0.00    +0.000 C 
ATOM     12  C   UNL     1      -3.810  -0.493  25.822  0.00  0.00    +0.000 C 
ATOM     13  C   UNL     1      -4.400   0.063  25.673  0.00  0.00    +0.003 C 
ATOM     14  C   UNL     1      -4.353   0.546  25.006  0.00  0.00    +0.039 C 
ATOM     29  C   UNL     1      -3.716   0.473  24.487  0.00  0.00    +0.152 C 
ATOM     30  O   UNL     1      -3.669   0.955  23.820  0.00  0.00    -0.223 OA
ATOM     31  C   UNL     1      -3.125  -0.084  24.636  0.00  0.00    +0.032 C 
ATOM     32  C   UNL     1      -2.488  -0.158  24.117  0.00  0.00    +0.023 C 
ATOM     33  C   UNL     1      -2.441   0.324  23.450  0.00  0.00    +0.002 C 
ENDROOT
BRANCH   7   6
ATOM      3  N   UNL     1       0.129  -0.614  23.461  0.00  0.00    -0.187 NA
ATOM      4  C   UNL     1      -0.508  -0.541  23.980  0.00  0.00    +0.339 C 
ATOM      5  O   UNL     1      -0.394  -0.221  24.732  0.00  0.00    -0.249 OA
ATOM      6  N   UNL     1      -1.260  -0.788  23.747  0.00  0.00    -0.189 NA
BRANCH   3   2
ATOM      1  C   UNL     1       1.449  -0.182  23.125  0.00  0.00    +0.025 C 
ATOM      2  C   UNL     1       0.881  -0.367  23.694  0.00  0.00    +0.117 C 
ENDBRANCH   3   2
ENDBRANCH   7   6
BRANCH  14  15
ATOM     15  C   UNL     1      -4.943   1.103  24.857  0.00  0.00    +0.081 C 
ATOM     16  C   UNL     1      -5.522   0.949  24.291  0.00  0.00    +0.010 C 
BRANCH  15  17
ATOM     17  C   UNL     1      -4.953   1.815  25.275  0.00  0.00    +0.241 C 
ATOM     18  O   UNL     1      -5.506   1.933  25.876  0.00  0.00    -0.273 OA
ATOM     19  N   UNL     1      -4.409   2.409  25.091  0.00  0.00    -0.201 NA
BRANCH  19  20
ATOM     20  C   UNL     1      -4.420   3.120  25.509  0.00  0.00    +0.141 C 
BRANCH  20  21
ATOM     21  C   UNL     1      -3.763   3.619  25.488  0.00  0.00    -0.000 A 
ATOM     22  C   UNL     1      -3.588   4.041  24.801  0.00  0.00    +0.001 A 
ATOM     23  C   UNL     1      -2.931   4.540  24.780  0.00  0.00    +0.037 A 
ATOM     24  C   UNL     1      -2.450   4.617  25.445  0.00  0.00    +0.139 A 
ATOM     27  C   UNL     1      -2.625   4.195  26.132  0.00  0.00    +0.037 A 
ATOM     28  C   UNL     1      -3.282   3.695  26.153  0.00  0.00    +0.001 A 
BRANCH  24  25
ATOM     25  O   UNL     1      -1.793   5.116  25.424  0.00  0.00    -0.471 OA
ATOM     26  C   UNL     1      -1.092   4.859  25.073  0.00  0.00    +0.252 C 
ENDBRANCH  24  25
ENDBRANCH  20  21
ENDBRANCH  19  20
ENDBRANCH  15  17
ENDBRANCH  14  15
TORSDOF 7
ENDMDL
