MODEL 1
REMARK VINA RESULT:     -10.4      0.000      0.000
REMARK  Name = 
REMARK  9 active torsions:
REMARK  status: ('A' for Active; 'I' for Inactive)
REMARK    1  A    between atoms: S_2  and  C_3
REMARK    2  A    between atoms: C_3  and  C_4
REMARK    3  A    between atoms: C_9  and  N_10
REMARK    4  A    between atoms: N_13  and  C_14
REMARK    5  A    between atoms: C_17  and  C_18
REMARK    6  A    between atoms: N_20  and  C_21
REMARK    7  A    between atoms: C_21  and  C_22
REMARK    8  A    between atoms: C_21  and  C_29
REMARK    9  A    between atoms: C_22  and  C_23
REMARK                            x       y       z     vdW  Elec       q    Type
REMARK                         _______ _______ _______ _____ _____    ______ ____
ROOT
ATOM      4  C   UNL     1      -0.817   2.753  25.487  0.00  0.00    +0.237 C 
ATOM      5  O   UNL     1      -0.219   2.994  26.002  0.00  0.00    -0.274 OA
ATOM      6  N   UNL     1      -1.018   1.955  25.433  0.00  0.00    -0.271 N 
ATOM      7  C   UNL     1      -0.671   1.338  25.857  0.00  0.00    +0.096 C 
ATOM      8  C   UNL     1      -1.040   0.636  25.630  0.00  0.00    +0.045 C 
ATOM      9  C   UNL     1      -1.615   0.819  25.067  0.00  0.00    +0.126 C 
ATOM     17  C   UNL     1      -1.601   1.635  24.945  0.00  0.00    +0.174 C 
ENDROOT
BRANCH   9  10
ATOM     10  N   UNL     1      -2.115   0.280  24.692  0.00  0.00    -0.187 NA
ATOM     11  C   UNL     1      -2.151  -0.501  24.954  0.00  0.00    +0.339 C 
ATOM     12  O   UNL     1      -1.686  -0.744  25.590  0.00  0.00    -0.249 OA
ATOM     13  N   UNL     1      -2.651  -1.039  24.579  0.00  0.00    -0.189 NA
BRANCH  13  14
ATOM     14  C   UNL     1      -2.687  -1.821  24.841  0.00  0.00    +0.097 C 
ATOM     15  C   UNL     1      -2.139  -2.373  24.566  0.00  0.00    +0.023 C 
ATOM     16  C   UNL     1      -3.271  -2.051  25.377  0.00  0.00    +0.023 C 
ENDBRANCH  13  14
ENDBRANCH   9  10
BRANCH  17  18
ATOM     18  C   UNL     1      -2.085   2.055  24.427  0.00  0.00    +0.262 C 
ATOM     19  O   UNL     1      -1.750   2.553  23.861  0.00  0.00    -0.271 OA
ATOM     20  N   UNL     1      -2.905   1.978  24.474  0.00  0.00    -0.196 NA
BRANCH  20  21
ATOM     21  C   UNL     1      -3.390   2.399  23.956  0.00  0.00    +0.179 C 
BRANCH  21  29
ATOM     29  C   UNL     1      -3.352   2.252  23.144  0.00  0.00    +0.281 C 
ATOM     30  N   UNL     1      -3.279   2.880  22.615  0.00  0.00    -0.086 NA
ATOM     31  O   UNL     1      -3.386   1.477  22.863  0.00  0.00    -0.270 OA
ENDBRANCH  21  29
BRANCH  21  22
ATOM     22  C   UNL     1      -3.912   2.966  24.247  0.00  0.00    +0.057 C 
BRANCH  22  23
ATOM     23  C   UNL     1      -4.548   2.736  24.721  0.00  0.00    -0.020 A 
ATOM     24  C   UNL     1      -5.062   2.144  24.464  0.00  0.00    -0.004 A 
ATOM     25  C   UNL     1      -5.697   1.915  24.937  0.00  0.00    -0.000 A 
ATOM     26  C   UNL     1      -5.820   2.278  25.668  0.00  0.00    -0.000 A 
ATOM     27  C   UNL     1      -5.306   2.870  25.925  0.00  0.00    -0.000 A 
ATOM     28  C   UNL     1      -4.670   3.100  25.451  0.00  0.00    -0.004 A 
ENDBRANCH  22  23
ENDBRANCH  21  22
ENDBRANCH  20  21
ENDBRANCH  17  18
BRANCH   4   3
ATOM      3  C   UNL     1      -1.214   3.311  25.027  0.00  0.00    +0.143 C 
BRANCH   3   2
ATOM      1  C   UNL     1      -1.320   4.721  25.238  0.00  0.00    +0.070 C 
ATOM      2  S   UNL     1      -0.905   4.072  24.942  0.00  0.00    -0.130 S 
ENDBRANCH   3   2
ENDBRANCH   4   3
TORSDOF 9
ENDMDL
MODEL 2
REMARK VINA RESULT:      -9.5      1.547      3.787
REMARK  Name = 
REMARK  9 active torsions:
REMARK  status: ('A' for Active; 'I' for Inactive)
REMARK    1  A    between atoms: S_2  and  C_3
REMARK    2  A    between atoms: C_3  and  C_4
REMARK    3  A    between atoms: C_9  and  N_10
REMARK    4  A    between atoms: N_13  and  C_14
REMARK    5  A    between atoms: C_17  and  C_18
REMARK    6  A    between atoms: N_20  and  C_21
REMARK    7  A    between atoms: C_21  and  C_22
REMARK    8  A    between atoms: C_21  and  C_29
REMARK    9  A    between atoms: C_22  and  C_23
REMARK                            x       y       z     vdW  Elec       q    Type
REMARK                         _______ _______ _______ _____ _____    ______ ____
ROOT
ATOM      4  C   UNL     1      -1.369  -0.644  24.494  0.00  0.00    +0.237 C 
ATOM      5  O   UNL     1      -1.299  -1.464  24.434  0.00  0.00    -0.274 OA
ATOM      6  N   UNL     1      -2.100  -0.303  24.666  0.00  0.00    -0.271 N 
ATOM      7  C   UNL     1      -2.807  -0.710  24.793  0.00  0.00    +0.096 C 
ATOM      8  C   UNL     1      -3.396  -0.153  24.948  0.00  0.00    +0.045 C 
ATOM      9  C   UNL     1      -3.054   0.597  24.916  0.00  0.00    +0.126 C 
ATOM     17  C   UNL     1      -2.252   0.505  24.742  0.00  0.00    +0.174 C 
ENDROOT
BRANCH   9  10
ATOM     10  N   UNL     1      -3.444   1.313  25.038  0.00  0.00    -0.187 NA
ATOM     11  C   UNL     1      -4.266   1.329  25.106  0.00  0.00    +0.339 C 
ATOM     12  O   UNL     1      -4.697   0.628  25.052  0.00  0.00    -0.249 OA
ATOM     13  N   UNL     1      -4.657   2.045  25.227  0.00  0.00    -0.189 NA
BRANCH  13  14
ATOM     14  C   UNL     1      -5.479   2.061  25.295  0.00  0.00    +0.097 C 
ATOM     15  C   UNL     1      -5.949   2.017  24.619  0.00  0.00    +0.023 C 
ATOM     16  C   UNL     1      -5.830   2.121  26.039  0.00  0.00    +0.023 C 
ENDBRANCH  13  14
ENDBRANCH   9  10
BRANCH  17  18
ATOM     18  C   UNL     1      -1.701   1.112  24.659  0.00  0.00    +0.262 C 
ATOM     19  O   UNL     1      -1.314   1.222  23.940  0.00  0.00    -0.271 OA
ATOM     20  N   UNL     1      -1.537   1.610  25.296  0.00  0.00    -0.196 NA
BRANCH  20  21
ATOM     21  C   UNL     1      -0.985   2.218  25.214  0.00  0.00    +0.179 C 
BRANCH  21  29
ATOM     29  C   UNL     1      -0.327   2.247  25.711  0.00  0.00    +0.281 C 
ATOM     30  N   UNL     1      -0.425   2.190  26.528  0.00  0.00    -0.086 NA
ATOM     31  O   UNL     1       0.429   2.332  25.390  0.00  0.00    -0.270 OA
ENDBRANCH  21  29
BRANCH  21  22
ATOM     22  C   UNL     1      -1.092   2.796  24.636  0.00  0.00    +0.057 C 
BRANCH  22  23
ATOM     23  C   UNL     1      -1.253   3.575  24.856  0.00  0.00    -0.020 A 
ATOM     24  C   UNL     1      -1.910   3.744  25.326  0.00  0.00    -0.004 A 
ATOM     25  C   UNL     1      -2.071   4.522  25.545  0.00  0.00    -0.000 A 
ATOM     26  C   UNL     1      -1.575   5.132  25.296  0.00  0.00    -0.000 A 
ATOM     27  C   UNL     1      -0.918   4.964  24.827  0.00  0.00    -0.000 A 
ATOM     28  C   UNL     1      -0.757   4.184  24.607  0.00  0.00    -0.004 A 
ENDBRANCH  22  23
ENDBRANCH  21  22
ENDBRANCH  20  21
ENDBRANCH  17  18
BRANCH   4   3
ATOM      3  C   UNL     1      -0.707  -0.165  24.380  0.00  0.00    +0.143 C 
BRANCH   3   2
ATOM      1  C   UNL     1       0.393  -0.431  23.507  0.00  0.00    +0.070 C 
ATOM      2  S   UNL     1       0.032  -0.507  24.245  0.00  0.00    -0.130 S 
ENDBRANCH   3   2
ENDBRANCH   4   3
TORSDOF 9
ENDMDL
MODEL 3
REMARK VINA RESULT:      -9.4      1.532      4.043
REMARK  Name = 
REMARK  9 active torsions:
REMARK  status: ('A' for Active; 'I' for Inactive)
REMARK    1  A    between atoms: S_2  and  C_3
REMARK    2  A    between atoms: C_3  and  C_4
REMARK    3  A    between atoms: C_9  and  N_10
REMARK    4  A    between atoms: N_13  and  C_14
REMARK    5  A    between atoms: C_17  and  C_18
REMARK    6  A    between atoms: N_20  and  C_21
REMARK    7  A    between atoms: C_21  and  C_22
REMARK    8  A    between atoms: C_21  and  C_29
REMARK    9  A    between atoms: C_22  and  C_23
REMARK                            x       y       z     vdW  Elec       q    Type
REMARK                         _______ _______ _______ _____ _____    ______ ____
ROOT
ATOM      4  C   UNL     1      -0.977   1.497  23.766  0.00  0.00    +0.237 C 
ATOM      5  O   UNL     1      -0.522   1.963  23.259  0.00  0.00    -0.274 OA
ATOM      6  N   UNL     1      -1.720   1.757  24.011  0.00  0.00    -0.271 N 
ATOM      7  C   UNL     1      -2.080   2.468  23.796  0.00  0.00    +0.096 C 
ATOM      8  C   UNL     1      -2.816   2.502  24.166  0.00  0.00    +0.045 C 
ATOM      9  C   UNL     1      -2.912   1.813  24.610  0.00  0.00    +0.126 C 
ATOM     17  C   UNL     1      -2.234   1.352  24.514  0.00  0.00    +0.174 C 
ENDROOT
BRANCH   9  10
ATOM     10  N   UNL     1      -3.569   1.619  25.069  0.00  0.00    -0.187 NA
ATOM     11  C   UNL     1      -4.269   2.048  24.990  0.00  0.00    +0.339 C 
ATOM     12  O   UNL     1      -4.311   2.672  24.452  0.00  0.00    -0.249 OA
ATOM     13  N   UNL     1      -4.926   1.854  25.449  0.00  0.00    -0.189 NA
BRANCH  13  14
ATOM     14  C   UNL     1      -5.627   2.284  25.370  0.00  0.00    +0.097 C 
ATOM     15  C   UNL     1      -5.701   3.020  25.733  0.00  0.00    +0.023 C 
ATOM     16  C   UNL     1      -6.251   1.977  24.927  0.00  0.00    +0.023 C 
ENDBRANCH  13  14
ENDBRANCH   9  10
BRANCH  17  18
ATOM     18  C   UNL     1      -2.095   0.617  24.860  0.00  0.00    +0.262 C 
ATOM     19  O   UNL     1      -1.401   0.486  25.286  0.00  0.00    -0.271 OA
ATOM     20  N   UNL     1      -2.650   0.011  24.780  0.00  0.00    -0.196 NA
BRANCH  20  21
ATOM     21  C   UNL     1      -2.511  -0.725  25.125  0.00  0.00    +0.179 C 
BRANCH  21  29
ATOM     29  C   UNL     1      -2.500  -0.798  25.948  0.00  0.00    +0.281 C 
ATOM     30  N   UNL     1      -1.797  -0.989  26.335  0.00  0.00    -0.086 NA
ATOM     31  O   UNL     1      -3.192  -0.681  26.381  0.00  0.00    -0.270 OA
ENDBRANCH  21  29
BRANCH  21  22
ATOM     22  C   UNL     1      -2.383  -1.386  24.651  0.00  0.00    +0.057 C 
BRANCH  22  23
ATOM     23  C   UNL     1      -3.023  -1.841  24.395  0.00  0.00    -0.020 A 
ATOM     24  C   UNL     1      -3.616  -1.497  23.936  0.00  0.00    -0.004 A 
ATOM     25  C   UNL     1      -4.255  -1.951  23.680  0.00  0.00    -0.000 A 
ATOM     26  C   UNL     1      -4.302  -2.749  23.883  0.00  0.00    -0.000 A 
ATOM     27  C   UNL     1      -3.709  -3.093  24.342  0.00  0.00    -0.000 A 
ATOM     28  C   UNL     1      -3.069  -2.638  24.598  0.00  0.00    -0.004 A 
ENDBRANCH  22  23
ENDBRANCH  21  22
ENDBRANCH  20  21
ENDBRANCH  17  18
BRANCH   4   3
ATOM      3  C   UNL     1      -0.687   0.769  24.027  0.00  0.00    +0.143 C 
BRANCH   3   2
ATOM      1  C   UNL     1       0.326   0.004  23.372  0.00  0.00    +0.070 C 
ATOM      2  S   UNL     1       0.109   0.580  23.921  0.00  0.00    -0.130 S 
ENDBRANCH   3   2
ENDBRANCH   4   3
TORSDOF 9
ENDMDL
MODEL 4
REMARK VINA RESULT:      -9.3      1.549      3.206
REMARK  Name = 
REMARK  9 active torsions:
REMARK  status: ('A' for Active; 'I' for Inactive)
REMARK    1  A    between atoms: S_2  and  C_3
REMARK    2  A    between atoms: C_3  and  C_4
REMARK    3  A    between atoms: C_9  and  N_10
REMARK    4  A    between atoms: N_13  and  C_14
REMARK    5  A    between atoms: C_17  and  C_18
REMARK    6  A    between atoms: N_20  and  C_21
REMARK    7  A    between atoms: C_21  and  C_22
REMARK    8  A    between atoms: C_21  and  C_29
REMARK    9  A    between atoms: C_22  and  C_23
REMARK                            x       y       z     vdW  Elec       q    Type
REMARK                         _______ _______ _______ _____ _____    ______ ____
ROOT
ATOM      4  C   UNL     1      -4.906   2.447  25.224  0.00  0.00    +0.237 C 
ATOM      5  O   UNL     1      -5.554   2.685  25.675  0.00  0.00    -0.274 OA
ATOM      6  N   UNL     1      -4.723   1.645  25.155  0.00  0.00    -0.271 N 
ATOM      7  C   UNL     1      -5.136   1.023  25.506  0.00  0.00    +0.096 C 
ATOM      8  C   UNL     1      -4.762   0.319  25.291  0.00  0.00    +0.045 C 
ATOM      9  C   UNL     1      -4.120   0.506  24.809  0.00  0.00    +0.126 C 
ATOM     17  C   UNL     1      -4.095   1.327  24.725  0.00  0.00    +0.174 C 
ENDROOT
BRANCH   9  10
ATOM     10  N   UNL     1      -3.594  -0.032  24.471  0.00  0.00    -0.187 NA
ATOM     11  C   UNL     1      -3.703  -0.842  24.583  0.00  0.00    +0.339 C 
ATOM     12  O   UNL     1      -4.338  -1.113  25.034  0.00  0.00    -0.249 OA
ATOM     13  N   UNL     1      -3.178  -1.380  24.244  0.00  0.00    -0.189 NA
BRANCH  13  14
ATOM     14  C   UNL     1      -3.287  -2.190  24.357  0.00  0.00    +0.097 C 
ATOM     15  C   UNL     1      -2.837  -2.593  24.919  0.00  0.00    +0.023 C 
ATOM     16  C   UNL     1      -3.846  -2.598  23.907  0.00  0.00    +0.023 C 
ENDBRANCH  13  14
ENDBRANCH   9  10
BRANCH  17  18
ATOM     18  C   UNL     1      -3.541   1.753  24.287  0.00  0.00    +0.262 C 
ATOM     19  O   UNL     1      -3.790   2.250  23.679  0.00  0.00    -0.271 OA
ATOM     20  N   UNL     1      -2.737   1.682  24.459  0.00  0.00    -0.196 NA
BRANCH  20  21
ATOM     21  C   UNL     1      -2.182   2.108  24.022  0.00  0.00    +0.179 C 
BRANCH  21  29
ATOM     29  C   UNL     1      -2.022   1.895  23.240  0.00  0.00    +0.281 C 
ATOM     30  N   UNL     1      -2.216   2.410  22.626  0.00  0.00    -0.086 NA
ATOM     31  O   UNL     1      -1.669   1.169  23.074  0.00  0.00    -0.270 OA
ENDBRANCH  21  29
BRANCH  21  22
ATOM     22  C   UNL     1      -1.788   2.745  24.365  0.00  0.00    +0.057 C 
BRANCH  22  23
ATOM     23  C   UNL     1      -1.167   2.610  24.892  0.00  0.00    -0.020 A 
ATOM     24  C   UNL     1      -1.246   2.819  25.686  0.00  0.00    -0.004 A 
ATOM     25  C   UNL     1      -0.625   2.685  26.212  0.00  0.00    -0.000 A 
ATOM     26  C   UNL     1       0.076   2.342  25.944  0.00  0.00    -0.000 A 
ATOM     27  C   UNL     1       0.155   2.133  25.150  0.00  0.00    -0.000 A 
ATOM     28  C   UNL     1      -0.466   2.267  24.623  0.00  0.00    -0.004 A 
ENDBRANCH  22  23
ENDBRANCH  21  22
ENDBRANCH  20  21
ENDBRANCH  17  18
BRANCH   4   3
ATOM      3  C   UNL     1      -4.441   3.011  24.840  0.00  0.00    +0.143 C 
BRANCH   3   2
ATOM      1  C   UNL     1      -4.462   4.365  25.295  0.00  0.00    +0.070 C 
ATOM      2  S   UNL     1      -4.712   3.786  24.763  0.00  0.00    -0.130 S 
ENDBRANCH   3   2
ENDBRANCH   4   3
TORSDOF 9
ENDMDL
MODEL 5
REMARK VINA RESULT:      -9.3      1.899      4.270
REMARK  Name = 
REMARK  9 active torsions:
REMARK  status: ('A' for Active; 'I' for Inactive)
REMARK    1  A    between atoms: S_2  and  C_3
REMARK    2  A    between atoms: C_3  and  C_4
REMARK    3  A    between atoms: C_9  and  N_10
REMARK    4  A    between atoms: N_13  and  C_14
REMARK    5  A    between atoms: C_17  and  C_18
REMARK    6  A    between atoms: N_20  and  C_21
REMARK    7  A    between atoms: C_21  and  C_22
REMARK    8  A    between atoms: C_21  and  C_29
REMARK    9  A    between atoms: C_22  and  C_23
REMARK                            x       y       z     vdW  Elec       q    Type
REMARK                         _______ _______ _______ _____ _____    ______ ____
ROOT
ATOM      4  C   UNL     1      -5.334   2.754  25.636  0.00  0.00    +0.237 C 
ATOM      5  O   UNL     1      -5.902   3.111  26.116  0.00  0.00    -0.274 OA
ATOM      6  N   UNL     1      -4.561   3.041  25.628  0.00  0.00    -0.271 N 
ATOM      7  C   UNL     1      -4.276   3.678  26.070  0.00  0.00    +0.096 C 
ATOM      8  C   UNL     1      -3.475   3.771  25.892  0.00  0.00    +0.045 C 
ATOM      9  C   UNL     1      -3.266   3.193  25.342  0.00  0.00    +0.126 C 
ATOM     17  C   UNL     1      -3.937   2.742  25.178  0.00  0.00    +0.174 C 
ENDROOT
BRANCH   9  10
ATOM     10  N   UNL     1      -2.518   3.086  25.012  0.00  0.00    -0.187 NA
ATOM     11  C   UNL     1      -1.917   3.629  25.168  0.00  0.00    +0.339 C 
ATOM     12  O   UNL     1      -2.064   4.279  25.653  0.00  0.00    -0.249 OA
ATOM     13  N   UNL     1      -1.168   3.522  24.838  0.00  0.00    -0.189 NA
BRANCH  13  14
ATOM     14  C   UNL     1      -0.566   4.065  24.994  0.00  0.00    +0.097 C 
ATOM     15  C   UNL     1      -0.598   4.821  24.666  0.00  0.00    +0.023 C 
ATOM     16  C   UNL     1       0.067   3.852  25.479  0.00  0.00    +0.023 C 
ENDBRANCH  13  14
ENDBRANCH   9  10
BRANCH  17  18
ATOM     18  C   UNL     1      -3.978   2.104  24.657  0.00  0.00    +0.262 C 
ATOM     19  O   UNL     1      -4.456   2.148  23.987  0.00  0.00    -0.271 OA
ATOM     20  N   UNL     1      -3.539   1.421  24.807  0.00  0.00    -0.196 NA
BRANCH  20  21
ATOM     21  C   UNL     1      -3.579   0.783  24.286  0.00  0.00    +0.179 C 
BRANCH  21  29
ATOM     29  C   UNL     1      -3.084   0.758  23.625  0.00  0.00    +0.281 C 
ATOM     30  N   UNL     1      -3.409   0.769  22.867  0.00  0.00    -0.086 NA
ATOM     31  O   UNL     1      -2.266   0.723  23.724  0.00  0.00    -0.270 OA
ENDBRANCH  21  29
BRANCH  21  22
ATOM     22  C   UNL     1      -4.112   0.170  24.425  0.00  0.00    +0.057 C 
BRANCH  22  23
ATOM     23  C   UNL     1      -3.854  -0.530  24.779  0.00  0.00    -0.020 A 
ATOM     24  C   UNL     1      -3.526  -0.513  25.536  0.00  0.00    -0.004 A 
ATOM     25  C   UNL     1      -3.269  -1.212  25.889  0.00  0.00    -0.000 A 
ATOM     26  C   UNL     1      -3.337  -1.929  25.486  0.00  0.00    -0.000 A 
ATOM     27  C   UNL     1      -3.665  -1.946  24.729  0.00  0.00    -0.000 A 
ATOM     28  C   UNL     1      -3.923  -1.246  24.375  0.00  0.00    -0.004 A 
ENDBRANCH  22  23
ENDBRANCH  21  22
ENDBRANCH  20  21
ENDBRANCH  17  18
BRANCH   4   3
ATOM      3  C   UNL     1      -5.540   2.110  25.163  0.00  0.00    +0.143 C 
BRANCH   3   2
ATOM      1  C   UNL     1      -6.844   1.829  24.650  0.00  0.00    +0.070 C 
ATOM      2  S   UNL     1      -6.280   1.755  25.248  0.00  0.00    -0.130 S 
ENDBRANCH   3   2
ENDBRANCH   4   3
TORSDOF 9
ENDMDL
MODEL 6
REMARK VINA RESULT:      -9.2      1.728      3.907
REMARK  Name = 
REMARK  9 active torsions:
REMARK  status: ('A' for Active; 'I' for Inactive)
REMARK    1  A    between atoms: S_2  and  C_3
REMARK    2  A    between atoms: C_3  and  C_4
REMARK    3  A    between atoms: C_9  and  N_10
REMARK    4  A    between atoms: N_13  and  C_14
REMARK    5  A    between atoms: C_17  and  C_18
REMARK    6  A    between atoms: N_20  and  C_21
REMARK    7  A    between atoms: C_21  and  C_22
REMARK    8  A    between atoms: C_21  and  C_29
REMARK    9  A    between atoms: C_22  and  C_23
REMARK                            x       y       z     vdW  Elec       q    Type
REMARK                         _______ _______ _______ _____ _____    ______ ____
ROOT
ATOM      4  C   UNL     1      -2.223  -1.357  24.698  0.00  0.00    +0.237 C 
ATOM      5  O   UNL     1      -2.337  -2.167  24.589  0.00  0.00    -0.274 OA
ATOM      6  N   UNL     1      -2.864  -0.840  24.653  0.00  0.00    -0.271 N 
ATOM      7  C   UNL     1      -3.648  -1.052  24.504  0.00  0.00    +0.096 C 
ATOM      8  C   UNL     1      -4.102  -0.363  24.509  0.00  0.00    +0.045 C 
ATOM      9  C   UNL     1      -3.600   0.273  24.661  0.00  0.00    +0.126 C 
ATOM     17  C   UNL     1      -2.834  -0.021  24.750  0.00  0.00    +0.174 C 
ENDROOT
BRANCH   9  10
ATOM     10  N   UNL     1      -3.824   1.066  24.714  0.00  0.00    -0.187 NA
ATOM     11  C   UNL     1      -4.579   1.264  24.979  0.00  0.00    +0.339 C 
ATOM     12  O   UNL     1      -5.110   0.671  25.192  0.00  0.00    -0.249 OA
ATOM     13  N   UNL     1      -4.803   2.057  25.033  0.00  0.00    -0.189 NA
BRANCH  13  14
ATOM     14  C   UNL     1      -5.558   2.255  25.298  0.00  0.00    +0.097 C 
ATOM     15  C   UNL     1      -5.657   2.597  26.043  0.00  0.00    +0.023 C 
ATOM     16  C   UNL     1      -6.215   2.113  24.819  0.00  0.00    +0.023 C 
ENDBRANCH  13  14
ENDBRANCH   9  10
BRANCH  17  18
ATOM     18  C   UNL     1      -2.158   0.424  24.908  0.00  0.00    +0.262 C 
ATOM     19  O   UNL     1      -1.671   0.223  25.542  0.00  0.00    -0.271 OA
ATOM     20  N   UNL     1      -1.970   1.071  24.432  0.00  0.00    -0.196 NA
BRANCH  20  21
ATOM     21  C   UNL     1      -1.294   1.516  24.589  0.00  0.00    +0.179 C 
BRANCH  21  29
ATOM     29  C   UNL     1      -0.676   1.536  24.042  0.00  0.00    +0.281 C 
ATOM     30  N   UNL     1       0.106   1.521  24.303  0.00  0.00    -0.086 NA
ATOM     31  O   UNL     1      -0.842   1.571  23.234  0.00  0.00    -0.270 OA
ENDBRANCH  21  29
BRANCH  21  22
ATOM     22  C   UNL     1      -1.235   1.942  25.292  0.00  0.00    +0.057 C 
BRANCH  22  23
ATOM     23  C   UNL     1      -1.442   2.741  25.310  0.00  0.00    -0.020 A 
ATOM     24  C   UNL     1      -1.423   3.188  24.617  0.00  0.00    -0.004 A 
ATOM     25  C   UNL     1      -1.630   3.986  24.635  0.00  0.00    -0.000 A 
ATOM     26  C   UNL     1      -1.856   4.338  25.346  0.00  0.00    -0.000 A 
ATOM     27  C   UNL     1      -1.875   3.891  26.039  0.00  0.00    -0.000 A 
ATOM     28  C   UNL     1      -1.668   3.092  26.022  0.00  0.00    -0.004 A 
ENDBRANCH  22  23
ENDBRANCH  21  22
ENDBRANCH  20  21
ENDBRANCH  17  18
BRANCH   4   3
ATOM      3  C   UNL     1      -1.467  -1.064  24.852  0.00  0.00    +0.143 C 
BRANCH   3   2
ATOM      1  C   UNL     1      -0.366  -1.761  25.439  0.00  0.00    +0.070 C 
ATOM      2  S   UNL     1      -0.810  -1.557  24.774  0.00  0.00    -0.130 S 
ENDBRANCH   3   2
ENDBRANCH   4   3
TORSDOF 9
ENDMDL
MODEL 7
REMARK VINA RESULT:      -8.9      1.404      3.441
REMARK  Name = 
REMARK  9 active torsions:
REMARK  status: ('A' for Active; 'I' for Inactive)
REMARK    1  A    between atoms: S_2  and  C_3
REMARK    2  A    between atoms: C_3  and  C_4
REMARK    3  A    between atoms: C_9  and  N_10
REMARK    4  A    between atoms: N_13  and  C_14
REMARK    5  A    between atoms: C_17  and  C_18
REMARK    6  A    between atoms: N_20  and  C_21
REMARK    7  A    between atoms: C_21  and  C_22
REMARK    8  A    between atoms: C_21  and  C_29
REMARK    9  A    between atoms: C_22  and  C_23
REMARK                            x       y       z     vdW  Elec       q    Type
REMARK                         _______ _______ _______ _____ _____    ______ ____
ROOT
ATOM      4  C   UNL     1      -1.337  -0.156  25.659  0.00  0.00    +0.237 C 
ATOM      5  O   UNL     1      -0.936  -0.616  26.214  0.00  0.00    -0.274 OA
ATOM      6  N   UNL     1      -1.159   0.645  25.580  0.00  0.00    -0.271 N 
ATOM      7  C   UNL     1      -0.595   1.062  26.016  0.00  0.00    +0.096 C 
ATOM      8  C   UNL     1      -0.602   1.845  25.756  0.00  0.00    +0.045 C 
ATOM      9  C   UNL     1      -1.168   1.913  25.161  0.00  0.00    +0.126 C 
ATOM     17  C   UNL     1      -1.513   1.171  25.051  0.00  0.00    +0.174 C 
ENDROOT
BRANCH   9  10
ATOM     10  N   UNL     1      -1.357   2.601  24.747  0.00  0.00    -0.187 NA
ATOM     11  C   UNL     1      -1.233   3.338  25.094  0.00  0.00    +0.339 C 
ATOM     12  O   UNL     1      -0.920   3.388  25.856  0.00  0.00    -0.249 OA
ATOM     13  N   UNL     1      -1.421   4.027  24.680  0.00  0.00    -0.189 NA
BRANCH  13  14
ATOM     14  C   UNL     1      -1.297   4.765  25.028  0.00  0.00    +0.097 C 
ATOM     15  C   UNL     1      -0.583   5.161  24.911  0.00  0.00    +0.023 C 
ATOM     16  C   UNL     1      -1.887   5.107  25.492  0.00  0.00    +0.023 C 
ENDBRANCH  13  14
ENDBRANCH   9  10
BRANCH  17  18
ATOM     18  C   UNL     1      -2.106   0.987  24.509  0.00  0.00    +0.262 C 
ATOM     19  O   UNL     1      -1.999   0.370  23.973  0.00  0.00    -0.271 OA
ATOM     20  N   UNL     1      -2.808   1.422  24.503  0.00  0.00    -0.196 NA
BRANCH  20  21
ATOM     21  C   UNL     1      -3.402   1.238  23.961  0.00  0.00    +0.179 C 
BRANCH  21  29
ATOM     29  C   UNL     1      -3.263   1.325  23.152  0.00  0.00    +0.281 C 
ATOM     30  N   UNL     1      -3.316   0.671  22.652  0.00  0.00    -0.086 NA
ATOM     31  O   UNL     1      -3.071   2.066  22.843  0.00  0.00    -0.270 OA
ENDBRANCH  21  29
BRANCH  21  22
ATOM     22  C   UNL     1      -4.134   0.969  24.227  0.00  0.00    +0.057 C 
BRANCH  22  23
ATOM     23  C   UNL     1      -4.633   1.475  24.646  0.00  0.00    -0.020 A 
ATOM     24  C   UNL     1      -4.747   2.250  24.388  0.00  0.00    -0.004 A 
ATOM     25  C   UNL     1      -5.245   2.756  24.807  0.00  0.00    -0.000 A 
ATOM     26  C   UNL     1      -5.630   2.487  25.486  0.00  0.00    -0.000 A 
ATOM     27  C   UNL     1      -5.517   1.712  25.744  0.00  0.00    -0.000 A 
ATOM     28  C   UNL     1      -5.018   1.206  25.324  0.00  0.00    -0.004 A 
ENDBRANCH  22  23
ENDBRANCH  21  22
ENDBRANCH  20  21
ENDBRANCH  17  18
BRANCH   4   3
ATOM      3  C   UNL     1      -1.917  -0.499  25.182  0.00  0.00    +0.143 C 
BRANCH   3   2
ATOM      1  C   UNL     1      -2.026  -1.872  24.802  0.00  0.00    +0.070 C 
ATOM      2  S   UNL     1      -2.181  -1.264  25.339  0.00  0.00    -0.130 S 
ENDBRANCH   3   2
ENDBRANCH   4   3
TORSDOF 9
ENDMDL
MODEL 8
REMARK VINA RESULT:      -8.9      1.689      2.399
REMARK  Name = 
REMARK  9 active torsions:
REMARK  status: ('A' for Active; 'I' for Inactive)
REMARK    1  A    between atoms: S_2  and  C_3
REMARK    2  A    between atoms: C_3  and  C_4
REMARK    3  A    between atoms: C_9  and  N_10
REMARK    4  A    between atoms: N_13  and  C_14
REMARK    5  A    between atoms: C_17  and  C_18
REMARK    6  A    between atoms: N_20  and  C_21
REMARK    7  A    between atoms: C_21  and  C_22
REMARK    8  A    between atoms: C_21  and  C_29
REMARK    9  A    between atoms: C_22  and  C_23
REMARK                            x       y       z     vdW  Elec       q    Type
REMARK                         _______ _______ _______ _____ _____    ______ ____
ROOT
ATOM      4  C   UNL     1      -1.849   3.439  25.872  0.00  0.00    +0.237 C 
ATOM      5  O   UNL     1      -1.602   3.859  26.538  0.00  0.00    -0.274 OA
ATOM      6  N   UNL     1      -1.323   2.939  25.480  0.00  0.00    -0.271 N 
ATOM      7  C   UNL     1      -0.536   2.804  25.689  0.00  0.00    +0.096 C 
ATOM      8  C   UNL     1      -0.218   2.268  25.148  0.00  0.00    +0.045 C 
ATOM      9  C   UNL     1      -0.808   2.073  24.605  0.00  0.00    +0.126 C 
ATOM     17  C   UNL     1      -1.491   2.487  24.810  0.00  0.00    +0.174 C 
ENDROOT
BRANCH   9  10
ATOM     10  N   UNL     1      -0.728   1.553  23.969  0.00  0.00    -0.187 NA
ATOM     11  C   UNL     1      -0.177   0.942  24.002  0.00  0.00    +0.339 C 
ATOM     12  O   UNL     1       0.296   0.849  24.672  0.00  0.00    -0.249 OA
ATOM     13  N   UNL     1      -0.097   0.422  23.366  0.00  0.00    -0.189 NA
BRANCH  13  14
ATOM     14  C   UNL     1       0.455  -0.190  23.399  0.00  0.00    +0.097 C 
ATOM     15  C   UNL     1       0.285  -0.876  23.825  0.00  0.00    +0.023 C 
ATOM     16  C   UNL     1       1.177  -0.116  23.007  0.00  0.00    +0.023 C 
ENDBRANCH  13  14
ENDBRANCH   9  10
BRANCH  17  18
ATOM     18  C   UNL     1      -2.214   2.456  24.415  0.00  0.00    +0.262 C 
ATOM     19  O   UNL     1      -2.581   3.153  24.170  0.00  0.00    -0.271 OA
ATOM     20  N   UNL     1      -2.571   1.728  24.266  0.00  0.00    -0.196 NA
BRANCH  20  21
ATOM     21  C   UNL     1      -3.295   1.695  23.871  0.00  0.00    +0.179 C 
BRANCH  21  29
ATOM     29  C   UNL     1      -3.366   2.016  23.113  0.00  0.00    +0.281 C 
ATOM     30  N   UNL     1      -3.925   2.604  22.966  0.00  0.00    -0.086 NA
ATOM     31  O   UNL     1      -2.877   1.749  22.505  0.00  0.00    -0.270 OA
ENDBRANCH  21  29
BRANCH  21  22
ATOM     22  C   UNL     1      -3.947   1.343  24.232  0.00  0.00    +0.057 C 
BRANCH  22  23
ATOM     23  C   UNL     1      -3.933   0.538  24.412  0.00  0.00    -0.020 A 
ATOM     24  C   UNL     1      -3.907  -0.021  23.805  0.00  0.00    -0.004 A 
ATOM     25  C   UNL     1      -3.893  -0.825  23.986  0.00  0.00    -0.000 A 
ATOM     26  C   UNL     1      -3.907  -1.072  24.773  0.00  0.00    -0.000 A 
ATOM     27  C   UNL     1      -3.934  -0.514  25.380  0.00  0.00    -0.000 A 
ATOM     28  C   UNL     1      -3.947   0.292  25.199  0.00  0.00    -0.004 A 
ENDBRANCH  22  23
ENDBRANCH  21  22
ENDBRANCH  20  21
ENDBRANCH  17  18
BRANCH   4   3
ATOM      3  C   UNL     1      -2.624   3.520  25.598  0.00  0.00    +0.143 C 
BRANCH   3   2
ATOM      1  C   UNL     1      -3.760   3.952  26.349  0.00  0.00    +0.070 C 
ATOM      2  S   UNL     1      -3.101   4.128  25.884  0.00  0.00    -0.130 S 
ENDBRANCH   3   2
ENDBRANCH   4   3
TORSDOF 9
ENDMDL
