MODEL 1
REMARK VINA RESULT:      -8.8      0.000      0.000
REMARK  Name = 
REMARK  4 active torsions:
REMARK  status: ('A' for Active; 'I' for Inactive)
REMARK    1  A    between atoms: O_2  and  C_3
REMARK    2  A    between atoms: C_3  and  C_4
REMARK    3  A    between atoms: C_9  and  C_11
REMARK    4  A    between atoms: C_18  and  O_19
REMARK                            x       y       z     vdW  Elec       q    Type
REMARK                         _______ _______ _______ _____ _____    ______ ____
ROOT
ATOM     11  C   UNL     1      -3.254   0.818  24.695  0.00  0.00    +0.140 A 
ATOM     12  N   UNL     1      -3.019   0.209  25.199  0.00  0.00    -0.229 NA
ATOM     13  C   UNL     1      -3.342  -0.495  24.916  0.00  0.00    +0.103 A 
ATOM     14  C   UNL     1      -3.777  -0.321  24.237  0.00  0.00    +0.100 A 
ATOM     15  N   UNL     1      -3.723   0.490  24.100  0.00  0.00    -0.229 NA
ATOM     16  C   UNL     1      -4.166  -0.926  23.831  0.00  0.00    +0.024 A 
ATOM     17  C   UNL     1      -4.120  -1.702  24.104  0.00  0.00    +0.039 A 
ATOM     18  C   UNL     1      -3.685  -1.876  24.783  0.00  0.00    +0.140 A 
ATOM     21  C   UNL     1      -3.296  -1.273  25.190  0.00  0.00    +0.058 A 
ENDROOT
BRANCH  11   9
ATOM      4  C   UNL     1      -1.725   3.263  25.040  0.00  0.00    +0.256 C 
ATOM      5  O   UNL     1      -0.955   2.975  25.113  0.00  0.00    -0.272 OA
ATOM      6  N   UNL     1      -2.353   2.739  24.930  0.00  0.00    -0.277 N 
ATOM      7  C   UNL     1      -3.148   2.945  24.848  0.00  0.00    +0.094 C 
ATOM      8  C   UNL     1      -3.582   2.250  24.750  0.00  0.00    +0.031 C 
ATOM      9  C   UNL     1      -3.055   1.615  24.771  0.00  0.00    +0.080 C 
ATOM     10  C   UNL     1      -2.296   1.917  24.882  0.00  0.00    +0.101 C 
BRANCH   4   3
ATOM      3  C   UNL     1      -1.867   4.075  25.077  0.00  0.00    +0.227 C 
BRANCH   3   2
ATOM      1  C   UNL     1      -1.367   5.413  25.076  0.00  0.00    +0.175 C 
ATOM      2  O   UNL     1      -1.235   4.601  25.141  0.00  0.00    -0.342 OA
ENDBRANCH   3   2
ENDBRANCH   4   3
ENDBRANCH  11   9
BRANCH  18  19
ATOM     19  O   UNL     1      -3.639  -2.652  25.057  0.00  0.00    -0.471 OA
ATOM     20  C   UNL     1      -3.317  -3.241  24.575  0.00  0.00    +0.252 C 
ENDBRANCH  18  19
TORSDOF 4
ENDMDL
MODEL 2
REMARK VINA RESULT:      -8.5      2.237      2.422
REMARK  Name = 
REMARK  4 active torsions:
REMARK  status: ('A' for Active; 'I' for Inactive)
REMARK    1  A    between atoms: O_2  and  C_3
REMARK    2  A    between atoms: C_3  and  C_4
REMARK    3  A    between atoms: C_9  and  C_11
REMARK    4  A    between atoms: C_18  and  O_19
REMARK                            x       y       z     vdW  Elec       q    Type
REMARK                         _______ _______ _______ _____ _____    ______ ____
ROOT
ATOM     11  C   UNL     1      -4.123   0.412  24.650  0.00  0.00    +0.140 A 
ATOM     12  N   UNL     1      -3.443   0.071  24.969  0.00  0.00    -0.229 NA
ATOM     13  C   UNL     1      -3.436  -0.726  24.761  0.00  0.00    +0.103 A 
ATOM     14  C   UNL     1      -4.112  -0.879  24.313  0.00  0.00    +0.100 A 
ATOM     15  N   UNL     1      -4.537  -0.176  24.245  0.00  0.00    -0.229 NA
ATOM     16  C   UNL     1      -4.253  -1.640  24.026  0.00  0.00    +0.024 A 
ATOM     17  C   UNL     1      -3.719  -2.247  24.186  0.00  0.00    +0.039 A 
ATOM     18  C   UNL     1      -3.043  -2.094  24.633  0.00  0.00    +0.140 A 
ATOM     21  C   UNL     1      -2.901  -1.334  24.921  0.00  0.00    +0.058 A 
ENDROOT
BRANCH  11   9
ATOM      4  C   UNL     1      -5.391   2.844  25.606  0.00  0.00    +0.256 C 
ATOM      5  O   UNL     1      -5.832   2.567  26.247  0.00  0.00    -0.272 OA
ATOM      6  N   UNL     1      -4.933   2.320  25.163  0.00  0.00    -0.277 N 
ATOM      7  C   UNL     1      -4.467   2.515  24.511  0.00  0.00    +0.094 C 
ATOM      8  C   UNL     1      -4.107   1.824  24.239  0.00  0.00    +0.031 C 
ATOM      9  C   UNL     1      -4.351   1.201  24.724  0.00  0.00    +0.080 C 
ATOM     10  C   UNL     1      -4.861   1.508  25.294  0.00  0.00    +0.101 C 
BRANCH   4   3
ATOM      3  C   UNL     1      -5.410   3.644  25.408  0.00  0.00    +0.227 C 
BRANCH   3   2
ATOM      1  C   UNL     1      -5.971   4.947  25.579  0.00  0.00    +0.175 C 
ATOM      2  O   UNL     1      -5.909   4.159  25.815  0.00  0.00    -0.342 OA
ENDBRANCH   3   2
ENDBRANCH   4   3
ENDBRANCH  11   9
BRANCH  18  19
ATOM     19  O   UNL     1      -2.507  -2.701  24.794  0.00  0.00    -0.471 OA
ATOM     20  C   UNL     1      -1.768  -2.707  24.425  0.00  0.00    +0.252 C 
ENDBRANCH  18  19
TORSDOF 4
ENDMDL
MODEL 3
REMARK VINA RESULT:      -8.5      0.740      5.111
REMARK  Name = 
REMARK  4 active torsions:
REMARK  status: ('A' for Active; 'I' for Inactive)
REMARK    1  A    between atoms: O_2  and  C_3
REMARK    2  A    between atoms: C_3  and  C_4
REMARK    3  A    between atoms: C_9  and  C_11
REMARK    4  A    between atoms: C_18  and  O_19
REMARK                            x       y       z     vdW  Elec       q    Type
REMARK                         _______ _______ _______ _____ _____    ______ ____
ROOT
ATOM     11  C   UNL     1      -3.115   1.721  24.855  0.00  0.00    +0.140 A 
ATOM     12  N   UNL     1      -2.361   2.043  24.948  0.00  0.00    -0.229 NA
ATOM     13  C   UNL     1      -2.447   2.843  25.129  0.00  0.00    +0.103 A 
ATOM     14  C   UNL     1      -3.253   3.016  25.149  0.00  0.00    +0.100 A 
ATOM     15  N   UNL     1      -3.666   2.323  24.979  0.00  0.00    -0.229 NA
ATOM     16  C   UNL     1      -3.506   3.783  25.318  0.00  0.00    +0.024 A 
ATOM     17  C   UNL     1      -2.954   4.376  25.468  0.00  0.00    +0.039 A 
ATOM     18  C   UNL     1      -2.147   4.203  25.448  0.00  0.00    +0.140 A 
ATOM     21  C   UNL     1      -1.893   3.437  25.279  0.00  0.00    +0.058 A 
ENDROOT
BRANCH  11   9
ATOM      4  C   UNL     1      -3.538  -1.142  25.090  0.00  0.00    +0.256 C 
ATOM      5  O   UNL     1      -3.379  -1.275  25.889  0.00  0.00    -0.272 OA
ATOM      6  N   UNL     1      -3.483  -0.381  24.778  0.00  0.00    -0.277 N 
ATOM      7  C   UNL     1      -3.625  -0.165  23.995  0.00  0.00    +0.094 C 
ATOM      8  C   UNL     1      -3.505   0.649  23.928  0.00  0.00    +0.031 C 
ATOM      9  C   UNL     1      -3.288   0.936  24.671  0.00  0.00    +0.080 C 
ATOM     10  C   UNL     1      -3.274   0.300  25.196  0.00  0.00    +0.101 C 
BRANCH   4   3
ATOM      3  C   UNL     1      -3.754  -1.772  24.603  0.00  0.00    +0.227 C 
BRANCH   3   2
ATOM      1  C   UNL     1      -3.695  -3.173  24.327  0.00  0.00    +0.175 C 
ATOM      2  O   UNL     1      -3.656  -2.548  24.865  0.00  0.00    -0.342 OA
ENDBRANCH   3   2
ENDBRANCH   4   3
ENDBRANCH  11   9
BRANCH  18  19
ATOM     19  O   UNL     1      -1.594   4.796  25.598  0.00  0.00    -0.471 OA
ATOM     20  C   UNL     1      -1.227   5.186  24.970  0.00  0.00    +0.252 C 
ENDBRANCH  18  19
TORSDOF 4
ENDMDL
MODEL 4
REMARK VINA RESULT:      -7.8      2.674      3.944
REMARK  Name = 
REMARK  4 active torsions:
REMARK  status: ('A' for Active; 'I' for Inactive)
REMARK    1  A    between atoms: O_2  and  C_3
REMARK    2  A    between atoms: C_3  and  C_4
REMARK    3  A    between atoms: C_9  and  C_11
REMARK    4  A    between atoms: C_18  and  O_19
REMARK                            x       y       z     vdW  Elec       q    Type
REMARK                         _______ _______ _______ _____ _____    ______ ____
ROOT
ATOM     11  C   UNL     1      -3.109   1.674  24.420  0.00  0.00    +0.140 A 
ATOM     12  N   UNL     1      -3.301   2.404  24.752  0.00  0.00    -0.229 NA
ATOM     13  C   UNL     1      -4.090   2.375  24.992  0.00  0.00    +0.103 A 
ATOM     14  C   UNL     1      -4.385   1.626  24.808  0.00  0.00    +0.100 A 
ATOM     15  N   UNL     1      -3.779   1.193  24.455  0.00  0.00    -0.229 NA
ATOM     16  C   UNL     1      -5.168   1.437  24.987  0.00  0.00    +0.024 A 
ATOM     17  C   UNL     1      -5.655   1.995  25.349  0.00  0.00    +0.039 A 
ATOM     18  C   UNL     1      -5.360   2.743  25.532  0.00  0.00    +0.140 A 
ATOM     21  C   UNL     1      -4.578   2.933  25.354  0.00  0.00    +0.058 A 
ENDROOT
BRANCH  11   9
ATOM      4  C   UNL     1      -0.566   0.333  24.010  0.00  0.00    +0.256 C 
ATOM      5  O   UNL     1      -0.562  -0.220  24.623  0.00  0.00    -0.272 OA
ATOM      6  N   UNL     1      -1.206   0.845  23.919  0.00  0.00    -0.277 N 
ATOM      7  C   UNL     1      -1.286   1.423  23.336  0.00  0.00    +0.094 C 
ATOM      8  C   UNL     1      -2.009   1.804  23.452  0.00  0.00    +0.031 C 
ATOM      9  C   UNL     1      -2.375   1.461  24.108  0.00  0.00    +0.080 C 
ATOM     10  C   UNL     1      -1.879   0.869  24.396  0.00  0.00    +0.101 C 
BRANCH   4   3
ATOM      3  C   UNL     1       0.072   0.373  23.488  0.00  0.00    +0.227 C 
BRANCH   3   2
ATOM      1  C   UNL     1       1.251  -0.208  22.927  0.00  0.00    +0.175 C 
ATOM      2  O   UNL     1       0.635  -0.229  23.477  0.00  0.00    -0.342 OA
ENDBRANCH   3   2
ENDBRANCH   4   3
ENDBRANCH  11   9
BRANCH  18  19
ATOM     19  O   UNL     1      -5.847   3.302  25.894  0.00  0.00    -0.471 OA
ATOM     20  C   UNL     1      -5.817   4.091  25.655  0.00  0.00    +0.252 C 
ENDBRANCH  18  19
TORSDOF 4
ENDMDL
MODEL 5
REMARK VINA RESULT:      -7.3      2.022      4.850
REMARK  Name = 
REMARK  4 active torsions:
REMARK  status: ('A' for Active; 'I' for Inactive)
REMARK    1  A    between atoms: O_2  and  C_3
REMARK    2  A    between atoms: C_3  and  C_4
REMARK    3  A    between atoms: C_9  and  C_11
REMARK    4  A    between atoms: C_18  and  O_19
REMARK                            x       y       z     vdW  Elec       q    Type
REMARK                         _______ _______ _______ _____ _____    ______ ____
ROOT
ATOM     11  C   UNL     1      -4.112   1.166  24.894  0.00  0.00    +0.140 A 
ATOM     12  N   UNL     1      -4.865   1.356  25.173  0.00  0.00    -0.229 NA
ATOM     13  C   UNL     1      -4.907   2.176  25.253  0.00  0.00    +0.103 A 
ATOM     14  C   UNL     1      -4.180   2.492  25.024  0.00  0.00    +0.100 A 
ATOM     15  N   UNL     1      -3.689   1.868  24.802  0.00  0.00    -0.229 NA
ATOM     16  C   UNL     1      -4.060   3.308  25.047  0.00  0.00    +0.024 A 
ATOM     17  C   UNL     1      -4.666   3.807  25.300  0.00  0.00    +0.039 A 
ATOM     18  C   UNL     1      -5.392   3.491  25.529  0.00  0.00    +0.140 A 
ATOM     21  C   UNL     1      -5.513   2.675  25.506  0.00  0.00    +0.058 A 
ENDROOT
BRANCH  11   9
ATOM      4  C   UNL     1      -2.487  -1.241  24.923  0.00  0.00    +0.256 C 
ATOM      5  O   UNL     1      -1.888  -1.037  25.454  0.00  0.00    -0.272 OA
ATOM      6  N   UNL     1      -3.085  -0.700  24.749  0.00  0.00    -0.277 N 
ATOM      7  C   UNL     1      -3.716  -0.825  24.232  0.00  0.00    +0.094 C 
ATOM      8  C   UNL     1      -4.178  -0.142  24.224  0.00  0.00    +0.031 C 
ATOM      9  C   UNL     1      -3.832   0.406  24.735  0.00  0.00    +0.080 C 
ATOM     10  C   UNL     1      -3.156   0.061  25.059  0.00  0.00    +0.101 C 
BRANCH   4   3
ATOM      3  C   UNL     1      -2.487  -1.986  24.569  0.00  0.00    +0.227 C 
BRANCH   3   2
ATOM      1  C   UNL     1      -1.767  -3.155  24.175  0.00  0.00    +0.175 C 
ATOM      2  O   UNL     1      -1.829  -2.478  24.643  0.00  0.00    -0.342 OA
ENDBRANCH   3   2
ENDBRANCH   4   3
ENDBRANCH  11   9
BRANCH  18  19
ATOM     19  O   UNL     1      -5.999   3.990  25.781  0.00  0.00    -0.471 OA
ATOM     20  C   UNL     1      -5.997   4.786  25.560  0.00  0.00    +0.252 C 
ENDBRANCH  18  19
TORSDOF 4
ENDMDL
MODEL 6
REMARK VINA RESULT:      -7.2      2.436      3.125
REMARK  Name = 
REMARK  4 active torsions:
REMARK  status: ('A' for Active; 'I' for Inactive)
REMARK    1  A    between atoms: O_2  and  C_3
REMARK    2  A    between atoms: C_3  and  C_4
REMARK    3  A    between atoms: C_9  and  C_11
REMARK    4  A    between atoms: C_18  and  O_19
REMARK                            x       y       z     vdW  Elec       q    Type
REMARK                         _______ _______ _______ _____ _____    ______ ____
ROOT
ATOM     11  C   UNL     1      -2.282   0.850  24.518  0.00  0.00    +0.140 A 
ATOM     12  N   UNL     1      -1.605   1.105  24.122  0.00  0.00    -0.229 NA
ATOM     13  C   UNL     1      -1.066   0.481  24.111  0.00  0.00    +0.103 A 
ATOM     14  C   UNL     1      -1.410  -0.160  24.500  0.00  0.00    +0.100 A 
ATOM     15  N   UNL     1      -2.162   0.068  24.751  0.00  0.00    -0.229 NA
ATOM     16  C   UNL     1      -0.994  -0.868  24.574  0.00  0.00    +0.024 A 
ATOM     17  C   UNL     1      -0.235  -0.936  24.260  0.00  0.00    +0.039 A 
ATOM     18  C   UNL     1       0.109  -0.295  23.871  0.00  0.00    +0.140 A 
ATOM     21  C   UNL     1      -0.306   0.414  23.796  0.00  0.00    +0.058 A 
ENDROOT
BRANCH  11   9
ATOM      4  C   UNL     1      -4.044   3.056  25.200  0.00  0.00    +0.256 C 
ATOM      5  O   UNL     1      -3.507   3.654  25.386  0.00  0.00    -0.272 OA
ATOM      6  N   UNL     1      -3.771   2.312  24.970  0.00  0.00    -0.277 N 
ATOM      7  C   UNL     1      -4.240   1.664  24.768  0.00  0.00    +0.094 C 
ATOM      8  C   UNL     1      -3.739   1.037  24.574  0.00  0.00    +0.031 C 
ATOM      9  C   UNL     1      -2.961   1.299  24.656  0.00  0.00    +0.080 C 
ATOM     10  C   UNL     1      -2.980   2.086  24.900  0.00  0.00    +0.101 C 
BRANCH   4   3
ATOM      3  C   UNL     1      -4.855   3.202  25.244  0.00  0.00    +0.227 C 
BRANCH   3   2
ATOM      1  C   UNL     1      -5.922   4.069  25.633  0.00  0.00    +0.175 C 
ATOM      2  O   UNL     1      -5.128   3.956  25.439  0.00  0.00    -0.342 OA
ENDBRANCH   3   2
ENDBRANCH   4   3
ENDBRANCH  11   9
BRANCH  18  19
ATOM     19  O   UNL     1       0.869  -0.362  23.556  0.00  0.00    -0.471 OA
ATOM     20  C   UNL     1       0.998  -0.210  22.755  0.00  0.00    +0.252 C 
ENDBRANCH  18  19
TORSDOF 4
ENDMDL
MODEL 7
REMARK VINA RESULT:      -5.6     13.788     15.040
REMARK  Name = 
REMARK  4 active torsions:
REMARK  status: ('A' for Active; 'I' for Inactive)
REMARK    1  A    between atoms: O_2  and  C_3
REMARK    2  A    between atoms: C_3  and  C_4
REMARK    3  A    between atoms: C_9  and  C_11
REMARK    4  A    between atoms: C_18  and  O_19
REMARK                            x       y       z     vdW  Elec       q    Type
REMARK                         _______ _______ _______ _____ _____    ______ ____
ROOT
ATOM     11  C   UNL     1      -4.375 -10.543  16.230  0.00  0.00    +0.140 A 
ATOM     12  N   UNL     1      -4.268 -10.781  17.012  0.00  0.00    -0.229 NA
ATOM     13  C   UNL     1      -4.964 -10.621  17.424  0.00  0.00    +0.103 A 
ATOM     14  C   UNL     1      -5.501 -10.284  16.897  0.00  0.00    +0.100 A 
ATOM     15  N   UNL     1      -5.138 -10.236  16.159  0.00  0.00    -0.229 NA
ATOM     16  C   UNL     1      -6.253 -10.066  17.158  0.00  0.00    +0.024 A 
ATOM     17  C   UNL     1      -6.467 -10.183  17.946  0.00  0.00    +0.039 A 
ATOM     18  C   UNL     1      -5.929 -10.520  18.473  0.00  0.00    +0.140 A 
ATOM     21  C   UNL     1      -5.178 -10.739  18.213  0.00  0.00    +0.058 A 
ENDROOT
BRANCH  11   9
ATOM      4  C   UNL     1      -3.160 -10.639  13.594  0.00  0.00    +0.256 C 
ATOM      5  O   UNL     1      -3.814 -10.542  13.099  0.00  0.00    -0.272 OA
ATOM      6  N   UNL     1      -3.259 -10.645  14.412  0.00  0.00    -0.277 N 
ATOM      7  C   UNL     1      -2.660 -10.737  14.972  0.00  0.00    +0.094 C 
ATOM      8  C   UNL     1      -3.005 -10.709  15.722  0.00  0.00    +0.031 C 
ATOM      9  C   UNL     1      -3.818 -10.601  15.624  0.00  0.00    +0.080 C 
ATOM     10  C   UNL     1      -3.974 -10.562  14.815  0.00  0.00    +0.101 C 
BRANCH   4   3
ATOM      3  C   UNL     1      -2.408 -10.729  13.268  0.00  0.00    +0.227 C 
BRANCH   3   2
ATOM      1  C   UNL     1      -1.623 -10.702  12.074  0.00  0.00    +0.175 C 
ATOM      2  O   UNL     1      -2.231 -10.391  12.537  0.00  0.00    -0.342 OA
ENDBRANCH   3   2
ENDBRANCH   4   3
ENDBRANCH  11   9
BRANCH  18  19
ATOM     19  O   UNL     1      -6.142 -10.638  19.261  0.00  0.00    -0.471 OA
ATOM     20  C   UNL     1      -6.932 -10.781  19.458  0.00  0.00    +0.252 C 
ENDBRANCH  18  19
TORSDOF 4
ENDMDL
MODEL 8
REMARK VINA RESULT:      -5.6     13.702     14.501
REMARK  Name = 
REMARK  4 active torsions:
REMARK  status: ('A' for Active; 'I' for Inactive)
REMARK    1  A    between atoms: O_2  and  C_3
REMARK    2  A    between atoms: C_3  and  C_4
REMARK    3  A    between atoms: C_9  and  C_11
REMARK    4  A    between atoms: C_18  and  O_19
REMARK                            x       y       z     vdW  Elec       q    Type
REMARK                         _______ _______ _______ _____ _____    ______ ____
ROOT
ATOM     11  C   UNL     1      -6.384  -9.956  16.714  0.00  0.00    +0.140 A 
ATOM     12  N   UNL     1      -6.702  -9.332  17.150  0.00  0.00    -0.229 NA
ATOM     13  C   UNL     1      -7.517  -9.324  17.025  0.00  0.00    +0.103 A 
ATOM     14  C   UNL     1      -7.703  -9.942  16.512  0.00  0.00    +0.100 A 
ATOM     15  N   UNL     1      -7.003 -10.333  16.319  0.00  0.00    -0.229 NA
ATOM     16  C   UNL     1      -8.487 -10.069  16.287  0.00  0.00    +0.024 A 
ATOM     17  C   UNL     1      -9.083  -9.578  16.574  0.00  0.00    +0.039 A 
ATOM     18  C   UNL     1      -8.897  -8.959  17.087  0.00  0.00    +0.140 A 
ATOM     21  C   UNL     1      -8.114  -8.832  17.313  0.00  0.00    +0.058 A 
ENDROOT
BRANCH  11   9
ATOM      4  C   UNL     1      -3.724 -10.540  15.706  0.00  0.00    +0.256 C 
ATOM      5  O   UNL     1      -3.814 -10.409  14.896  0.00  0.00    -0.272 OA
ATOM      6  N   UNL     1      -4.364 -10.435  16.215  0.00  0.00    -0.277 N 
ATOM      7  C   UNL     1      -4.356 -10.546  17.033  0.00  0.00    +0.094 C 
ATOM      8  C   UNL     1      -5.112 -10.380  17.319  0.00  0.00    +0.031 C 
ATOM      9  C   UNL     1      -5.587 -10.167  16.678  0.00  0.00    +0.080 C 
ATOM     10  C   UNL     1      -5.124 -10.201  15.996  0.00  0.00    +0.101 C 
BRANCH   4   3
ATOM      3  C   UNL     1      -2.992 -10.778  16.005  0.00  0.00    +0.227 C 
BRANCH   3   2
ATOM      1  C   UNL     1      -1.567 -10.781  15.901  0.00  0.00    +0.175 C 
ATOM      2  O   UNL     1      -2.309 -10.674  15.555  0.00  0.00    -0.342 OA
ENDBRANCH   3   2
ENDBRANCH   4   3
ENDBRANCH  11   9
BRANCH  18  19
ATOM     19  O   UNL     1      -9.493  -8.468  17.374  0.00  0.00    -0.471 OA
ATOM     20  C   UNL     1      -9.866  -7.932  16.868  0.00  0.00    +0.252 C 
ENDBRANCH  18  19
TORSDOF 4
ENDMDL
MODEL 9
REMARK VINA RESULT:      -5.0     13.530     15.550
REMARK  Name = 
REMARK  4 active torsions:
REMARK  status: ('A' for Active; 'I' for Inactive)
REMARK    1  A    between atoms: O_2  and  C_3
REMARK    2  A    between atoms: C_3  and  C_4
REMARK    3  A    between atoms: C_9  and  C_11
REMARK    4  A    between atoms: C_18  and  O_19
REMARK                            x       y       z     vdW  Elec       q    Type
REMARK                         _______ _______ _______ _____ _____    ______ ____
ROOT
ATOM     11  C   UNL     1      -4.795 -10.448  15.062  0.00  0.00    +0.140 A 
ATOM     12  N   UNL     1      -5.313 -10.192  14.474  0.00  0.00    -0.229 NA
ATOM     13  C   UNL     1      -4.942 -10.295  13.745  0.00  0.00    +0.103 A 
ATOM     14  C   UNL     1      -4.194 -10.616  13.882  0.00  0.00    +0.100 A 
ATOM     15  N   UNL     1      -4.103 -10.710  14.696  0.00  0.00    -0.229 NA
ATOM     16  C   UNL     1      -3.693 -10.779  13.247  0.00  0.00    +0.024 A 
ATOM     17  C   UNL     1      -3.940 -10.623  12.476  0.00  0.00    +0.039 A 
ATOM     18  C   UNL     1      -4.688 -10.303  12.339  0.00  0.00    +0.140 A 
ATOM     21  C   UNL     1      -5.189 -10.139  12.973  0.00  0.00    +0.058 A 
ENDROOT
BRANCH  11   9
ATOM      4  C   UNL     1      -6.151 -10.614  17.624  0.00  0.00    +0.256 C 
ATOM      5  O   UNL     1      -6.927 -10.780  17.397  0.00  0.00    -0.272 OA
ATOM      6  N   UNL     1      -5.565 -10.520  17.052  0.00  0.00    -0.277 N 
ATOM      7  C   UNL     1      -4.770 -10.354  17.195  0.00  0.00    +0.094 C 
ATOM      8  C   UNL     1      -4.384 -10.307  16.467  0.00  0.00    +0.031 C 
ATOM      9  C   UNL     1      -4.942 -10.444  15.874  0.00  0.00    +0.080 C 
ATOM     10  C   UNL     1      -5.671 -10.576  16.235  0.00  0.00    +0.101 C 
BRANCH   4   3
ATOM      3  C   UNL     1      -5.963 -10.543  18.424  0.00  0.00    +0.227 C 
BRANCH   3   2
ATOM      1  C   UNL     1      -6.363 -10.574  19.796  0.00  0.00    +0.175 C 
ATOM      2  O   UNL     1      -6.558 -10.580  18.994  0.00  0.00    -0.342 OA
ENDBRANCH   3   2
ENDBRANCH   4   3
ENDBRANCH  11   9
BRANCH  18  19
ATOM     19  O   UNL     1      -4.935 -10.147  11.567  0.00  0.00    -0.471 OA
ATOM     20  C   UNL     1      -4.494 -10.428  10.928  0.00  0.00    +0.252 C 
ENDBRANCH  18  19
TORSDOF 4
ENDMDL
