MODEL 1
REMARK VINA RESULT:     -10.2      0.000      0.000
REMARK  Name = 
REMARK  6 active torsions:
REMARK  status: ('A' for Active; 'I' for Inactive)
REMARK    1  A    between atoms: C_2  and  N_4
REMARK    2  A    between atoms: C_5  and  O_7
REMARK    3  A    between atoms: O_7  and  C_8
REMARK    4  A    between atoms: C_8  and  C_9
REMARK    5  A    between atoms: C_16  and  C_17
REMARK    6  A    between atoms: C_22  and  C_24
REMARK                            x       y       z     vdW  Elec       q    Type
REMARK                         _______ _______ _______ _____ _____    ______ ____
ROOT
ATOM      9  C   UNL     1       0.600   1.562  24.229  0.00  0.00    +0.102 C 
ATOM     10  C   UNL     1       0.337   1.783  24.927  0.00  0.00    +0.020 C 
ATOM     11  C   UNL     1      -0.271   2.301  25.060  0.00  0.00    +0.010 C 
ATOM     12  C   UNL     1      -0.419   2.423  25.936  0.00  0.00    +0.018 C 
ATOM     13  C   UNL     1      -0.121   2.171  25.412  0.00  0.00    +0.072 C 
ATOM     14  N   UNL     1      -0.019   2.089  24.372  0.00  0.00    -0.270 NA
ATOM     15  C   UNL     1      -0.565   2.557  23.810  0.00  0.00    +0.078 C 
ATOM     16  C   UNL     1      -0.793   2.748  24.514  0.00  0.00    +0.056 C 
ENDROOT
BRANCH  16  17
ATOM     17  C   UNL     1      -1.402   3.266  24.718  0.00  0.00    +0.063 A 
ATOM     18  N   UNL     1      -1.233   4.058  24.876  0.00  0.00    -0.235 NA
ATOM     19  C   UNL     1      -1.842   4.575  25.080  0.00  0.00    +0.139 A 
ATOM     20  C   UNL     1      -1.674   5.368  25.239  0.00  0.00    +0.074 C 
ATOM     21  N   UNL     1      -2.619   4.302  25.125  0.00  0.00    -0.231 NA
ATOM     22  C   UNL     1      -2.787   3.510  24.967  0.00  0.00    +0.084 A 
ATOM     23  C   UNL     1      -2.178   2.992  24.763  0.00  0.00    +0.034 A 
BRANCH  22  24
ATOM     24  C   UNL     1      -3.564   3.236  25.012  0.00  0.00    +0.018 A 
ATOM     25  C   UNL     1      -3.998   3.339  25.706  0.00  0.00    +0.004 A 
ATOM     26  C   UNL     1      -4.775   3.065  25.752  0.00  0.00    +0.030 A 
ATOM     27  C   UNL     1      -5.118   2.688  25.104  0.00  0.00    +0.140 A 
ATOM     28  F   UNL     1      -5.894   2.413  25.149  0.00  0.00    -0.204 F 
ATOM     29  C   UNL     1      -4.683   2.584  24.409  0.00  0.00    +0.030 A 
ATOM     30  C   UNL     1      -3.907   2.858  24.364  0.00  0.00    +0.004 A 
ENDBRANCH  22  24
ENDBRANCH  16  17
BRANCH   9   8
ATOM      8  C   UNL     1       1.103   1.136  23.733  0.00  0.00    +0.226 C 
BRANCH   8   7
ATOM      7  O   UNL     1       1.885   1.377  23.632  0.00  0.00    -0.432 OA
BRANCH   7   5
ATOM      4  N   UNL     1       3.201   1.129  23.136  0.00  0.00    -0.170 NA
ATOM      5  C   UNL     1       2.413   0.900  23.213  0.00  0.00    +0.421 C 
ATOM      6  O   UNL     1       2.152   0.196  22.873  0.00  0.00    -0.225 OA
BRANCH   4   2
ATOM      1  C   UNL     1       3.600   0.496  21.918  0.00  0.00    +0.024 C 
ATOM      2  C   UNL     1       3.729   0.653  22.717  0.00  0.00    +0.099 C 
ATOM      3  C   UNL     1       4.388   0.333  23.099  0.00  0.00    +0.024 C 
ENDBRANCH   4   2
ENDBRANCH   7   5
ENDBRANCH   8   7
ENDBRANCH   9   8
TORSDOF 6
ENDMDL
MODEL 2
REMARK VINA RESULT:     -10.0      3.262      5.050
REMARK  Name = 
REMARK  6 active torsions:
REMARK  status: ('A' for Active; 'I' for Inactive)
REMARK    1  A    between atoms: C_2  and  N_4
REMARK    2  A    between atoms: C_5  and  O_7
REMARK    3  A    between atoms: O_7  and  C_8
REMARK    4  A    between atoms: C_8  and  C_9
REMARK    5  A    between atoms: C_16  and  C_17
REMARK    6  A    between atoms: C_22  and  C_24
REMARK                            x       y       z     vdW  Elec       q    Type
REMARK                         _______ _______ _______ _____ _____    ______ ____
ROOT
ATOM      9  C   UNL     1      -0.219   1.897  24.677  0.00  0.00    +0.102 C 
ATOM     10  C   UNL     1      -0.082   1.315  24.178  0.00  0.00    +0.020 C 
ATOM     11  C   UNL     1      -0.335   0.551  24.264  0.00  0.00    +0.010 C 
ATOM     12  C   UNL     1      -0.073   0.034  23.579  0.00  0.00    +0.018 C 
ATOM     13  C   UNL     1      -0.125   0.589  23.920  0.00  0.00    +0.072 C 
ATOM     14  N   UNL     1      -0.474   1.115  24.757  0.00  0.00    -0.270 NA
ATOM     15  C   UNL     1      -0.963   0.696  25.403  0.00  0.00    +0.078 C 
ATOM     16  C   UNL     1      -0.806   0.154  24.889  0.00  0.00    +0.056 C 
ENDROOT
BRANCH  16  17
ATOM     17  C   UNL     1      -1.032  -0.640  24.916  0.00  0.00    +0.063 A 
ATOM     18  N   UNL     1      -0.502  -1.210  25.188  0.00  0.00    -0.235 NA
ATOM     19  C   UNL     1      -0.729  -2.003  25.215  0.00  0.00    +0.139 A 
ATOM     20  C   UNL     1      -0.199  -2.574  25.487  0.00  0.00    +0.074 C 
ATOM     21  N   UNL     1      -1.484  -2.225  24.969  0.00  0.00    -0.231 NA
ATOM     22  C   UNL     1      -2.013  -1.654  24.697  0.00  0.00    +0.084 A 
ATOM     23  C   UNL     1      -1.787  -0.861  24.670  0.00  0.00    +0.034 A 
BRANCH  22  24
ATOM     24  C   UNL     1      -2.769  -1.876  24.451  0.00  0.00    +0.018 A 
ATOM     25  C   UNL     1      -3.345  -1.301  24.317  0.00  0.00    +0.004 A 
ATOM     26  C   UNL     1      -4.101  -1.521  24.071  0.00  0.00    +0.030 A 
ATOM     27  C   UNL     1      -4.281  -2.318  23.959  0.00  0.00    +0.140 A 
ATOM     28  F   UNL     1      -5.037  -2.540  23.713  0.00  0.00    -0.204 F 
ATOM     29  C   UNL     1      -3.705  -2.895  24.092  0.00  0.00    +0.030 A 
ATOM     30  C   UNL     1      -2.949  -2.673  24.338  0.00  0.00    +0.004 A 
ENDBRANCH  22  24
ENDBRANCH  16  17
BRANCH   9   8
ATOM      8  C   UNL     1      -0.158   2.680  24.928  0.00  0.00    +0.226 C 
BRANCH   8   7
ATOM      7  O   UNL     1      -0.554   3.277  24.519  0.00  0.00    -0.432 OA
BRANCH   7   5
ATOM      4  N   UNL     1      -1.632   4.162  24.825  0.00  0.00    -0.170 NA
ATOM      5  C   UNL     1      -0.846   3.932  24.926  0.00  0.00    +0.421 C 
ATOM      6  O   UNL     1      -0.354   4.356  25.434  0.00  0.00    -0.225 OA
BRANCH   4   2
ATOM      1  C   UNL     1      -1.636   5.571  25.065  0.00  0.00    +0.024 C 
ATOM      2  C   UNL     1      -1.925   4.817  25.232  0.00  0.00    +0.099 C 
ATOM      3  C   UNL     1      -2.509   4.718  25.807  0.00  0.00    +0.024 C 
ENDBRANCH   4   2
ENDBRANCH   7   5
ENDBRANCH   8   7
ENDBRANCH   9   8
TORSDOF 6
ENDMDL
MODEL 3
REMARK VINA RESULT:      -9.9      2.036      2.675
REMARK  Name = 
REMARK  6 active torsions:
REMARK  status: ('A' for Active; 'I' for Inactive)
REMARK    1  A    between atoms: C_2  and  N_4
REMARK    2  A    between atoms: C_5  and  O_7
REMARK    3  A    between atoms: O_7  and  C_8
REMARK    4  A    between atoms: C_8  and  C_9
REMARK    5  A    between atoms: C_16  and  C_17
REMARK    6  A    between atoms: C_22  and  C_24
REMARK                            x       y       z     vdW  Elec       q    Type
REMARK                         _______ _______ _______ _____ _____    ______ ____
ROOT
ATOM      9  C   UNL     1      -0.157   0.652  24.046  0.00  0.00    +0.102 C 
ATOM     10  C   UNL     1      -0.546   0.342  24.645  0.00  0.00    +0.020 C 
ATOM     11  C   UNL     1      -1.350   0.260  24.693  0.00  0.00    +0.010 C 
ATOM     12  C   UNL     1      -1.601  -0.121  25.465  0.00  0.00    +0.018 C 
ATOM     13  C   UNL     1      -1.176   0.115  25.028  0.00  0.00    +0.072 C 
ATOM     14  N   UNL     1      -0.976   0.564  24.102  0.00  0.00    -0.270 NA
ATOM     15  C   UNL     1      -1.653   0.781  23.531  0.00  0.00    +0.078 C 
ATOM     16  C   UNL     1      -1.997   0.471  24.138  0.00  0.00    +0.056 C 
ENDROOT
BRANCH  16  17
ATOM     17  C   UNL     1      -2.807   0.358  24.250  0.00  0.00    +0.063 A 
ATOM     18  N   UNL     1      -3.142  -0.384  24.114  0.00  0.00    -0.235 NA
ATOM     19  C   UNL     1      -3.951  -0.496  24.226  0.00  0.00    +0.139 A 
ATOM     20  C   UNL     1      -4.287  -1.238  24.091  0.00  0.00    +0.074 C 
ATOM     21  N   UNL     1      -4.425   0.132  24.474  0.00  0.00    -0.231 NA
ATOM     22  C   UNL     1      -4.090   0.873  24.609  0.00  0.00    +0.084 A 
ATOM     23  C   UNL     1      -3.280   0.986  24.497  0.00  0.00    +0.034 A 
BRANCH  22  24
ATOM     24  C   UNL     1      -4.564   1.501  24.857  0.00  0.00    +0.018 A 
ATOM     25  C   UNL     1      -4.466   2.248  24.521  0.00  0.00    +0.004 A 
ATOM     26  C   UNL     1      -4.940   2.877  24.767  0.00  0.00    +0.030 A 
ATOM     27  C   UNL     1      -5.510   2.759  25.351  0.00  0.00    +0.140 A 
ATOM     28  F   UNL     1      -5.984   3.388  25.598  0.00  0.00    -0.204 F 
ATOM     29  C   UNL     1      -5.608   2.012  25.687  0.00  0.00    +0.030 A 
ATOM     30  C   UNL     1      -5.134   1.383  25.440  0.00  0.00    +0.004 A 
ENDBRANCH  22  24
ENDBRANCH  16  17
BRANCH   9   8
ATOM      8  C   UNL     1       0.533   0.885  23.658  0.00  0.00    +0.226 C 
BRANCH   8   7
ATOM      7  O   UNL     1       1.126   0.334  23.504  0.00  0.00    -0.432 OA
BRANCH   7   5
ATOM      4  N   UNL     1       2.359   0.037  22.847  0.00  0.00    -0.170 NA
ATOM      5  C   UNL     1       1.852   0.583  23.200  0.00  0.00    +0.421 C 
ATOM      6  O   UNL     1       2.068   1.377  23.248  0.00  0.00    -0.225 OA
BRANCH   4   2
ATOM      1  C   UNL     1       3.194   0.332  21.725  0.00  0.00    +0.024 C 
ATOM      2  C   UNL     1       3.084   0.285  22.542  0.00  0.00    +0.099 C 
ATOM      3  C   UNL     1       3.700   0.487  23.053  0.00  0.00    +0.024 C 
ENDBRANCH   4   2
ENDBRANCH   7   5
ENDBRANCH   8   7
ENDBRANCH   9   8
TORSDOF 6
ENDMDL
MODEL 4
REMARK VINA RESULT:      -9.7      3.101      3.775
REMARK  Name = 
REMARK  6 active torsions:
REMARK  status: ('A' for Active; 'I' for Inactive)
REMARK    1  A    between atoms: C_2  and  N_4
REMARK    2  A    between atoms: C_5  and  O_7
REMARK    3  A    between atoms: O_7  and  C_8
REMARK    4  A    between atoms: C_8  and  C_9
REMARK    5  A    between atoms: C_16  and  C_17
REMARK    6  A    between atoms: C_22  and  C_24
REMARK                            x       y       z     vdW  Elec       q    Type
REMARK                         _______ _______ _______ _____ _____    ______ ____
ROOT
ATOM      9  C   UNL     1       0.874   0.200  23.237  0.00  0.00    +0.102 C 
ATOM     10  C   UNL     1       0.252   0.601  23.479  0.00  0.00    +0.020 C 
ATOM     11  C   UNL     1      -0.345   0.311  23.942  0.00  0.00    +0.010 C 
ATOM     12  C   UNL     1      -0.969   0.933  24.109  0.00  0.00    +0.018 C 
ATOM     13  C   UNL     1      -0.416   0.699  23.852  0.00  0.00    +0.072 C 
ATOM     14  N   UNL     1       0.261  -0.088  23.709  0.00  0.00    -0.270 NA
ATOM     15  C   UNL     1       0.111  -0.908  24.082  0.00  0.00    +0.078 C 
ATOM     16  C   UNL     1      -0.483  -0.479  24.297  0.00  0.00    +0.056 C 
ENDROOT
BRANCH  16  17
ATOM     17  C   UNL     1      -1.122  -0.711  24.766  0.00  0.00    +0.063 A 
ATOM     18  N   UNL     1      -1.102  -0.583  25.581  0.00  0.00    -0.235 NA
ATOM     19  C   UNL     1      -1.741  -0.815  26.049  0.00  0.00    +0.139 A 
ATOM     20  C   UNL     1      -1.722  -0.688  26.864  0.00  0.00    +0.074 C 
ATOM     21  N   UNL     1      -2.398  -1.175  25.703  0.00  0.00    -0.231 NA
ATOM     22  C   UNL     1      -2.416  -1.303  24.888  0.00  0.00    +0.084 A 
ATOM     23  C   UNL     1      -1.778  -1.071  24.420  0.00  0.00    +0.034 A 
BRANCH  22  24
ATOM     24  C   UNL     1      -3.073  -1.662  24.542  0.00  0.00    +0.018 A 
ATOM     25  C   UNL     1      -3.118  -2.485  24.498  0.00  0.00    +0.004 A 
ATOM     26  C   UNL     1      -3.774  -2.845  24.152  0.00  0.00    +0.030 A 
ATOM     27  C   UNL     1      -4.386  -2.382  23.849  0.00  0.00    +0.140 A 
ATOM     28  F   UNL     1      -5.043  -2.742  23.502  0.00  0.00    -0.204 F 
ATOM     29  C   UNL     1      -4.341  -1.559  23.892  0.00  0.00    +0.030 A 
ATOM     30  C   UNL     1      -3.685  -1.200  24.238  0.00  0.00    +0.004 A 
ENDBRANCH  22  24
ENDBRANCH  16  17
BRANCH   9   8
ATOM      8  C   UNL     1       1.586   0.123  22.829  0.00  0.00    +0.226 C 
BRANCH   8   7
ATOM      7  O   UNL     1       2.188   0.676  22.941  0.00  0.00    -0.432 OA
BRANCH   7   5
ATOM      4  N   UNL     1       3.590   0.720  23.213  0.00  0.00    -0.170 NA
ATOM      5  C   UNL     1       2.963   0.490  22.728  0.00  0.00    +0.421 C 
ATOM      6  O   UNL     1       3.112   0.075  22.032  0.00  0.00    -0.225 OA
BRANCH   4   2
ATOM      1  C   UNL     1       4.700   0.871  22.327  0.00  0.00    +0.024 C 
ATOM      2  C   UNL     1       4.365   0.535  23.001  0.00  0.00    +0.099 C 
ATOM      3  C   UNL     1       4.806   0.013  23.465  0.00  0.00    +0.024 C 
ENDBRANCH   4   2
ENDBRANCH   7   5
ENDBRANCH   8   7
ENDBRANCH   9   8
TORSDOF 6
ENDMDL
MODEL 5
REMARK VINA RESULT:      -9.4      2.808      3.671
REMARK  Name = 
REMARK  6 active torsions:
REMARK  status: ('A' for Active; 'I' for Inactive)
REMARK    1  A    between atoms: C_2  and  N_4
REMARK    2  A    between atoms: C_5  and  O_7
REMARK    3  A    between atoms: O_7  and  C_8
REMARK    4  A    between atoms: C_8  and  C_9
REMARK    5  A    between atoms: C_16  and  C_17
REMARK    6  A    between atoms: C_22  and  C_24
REMARK                            x       y       z     vdW  Elec       q    Type
REMARK                         _______ _______ _______ _____ _____    ______ ____
ROOT
ATOM      9  C   UNL     1      -1.032  -0.352  24.874  0.00  0.00    +0.102 C 
ATOM     10  C   UNL     1      -0.816   0.197  25.382  0.00  0.00    +0.020 C 
ATOM     11  C   UNL     1      -1.019   0.980  25.345  0.00  0.00    +0.010 C 
ATOM     12  C   UNL     1      -0.669   1.448  26.026  0.00  0.00    +0.018 C 
ATOM     13  C   UNL     1      -0.786   0.913  25.669  0.00  0.00    +0.072 C 
ATOM     14  N   UNL     1      -1.235   0.448  24.844  0.00  0.00    -0.270 NA
ATOM     15  C   UNL     1      -1.740   0.927  24.254  0.00  0.00    +0.078 C 
ATOM     16  C   UNL     1      -1.506   1.435  24.774  0.00  0.00    +0.056 C 
ENDROOT
BRANCH  16  17
ATOM     17  C   UNL     1      -1.676   2.242  24.795  0.00  0.00    +0.063 A 
ATOM     18  N   UNL     1      -1.077   2.793  24.657  0.00  0.00    -0.235 NA
ATOM     19  C   UNL     1      -1.247   3.600  24.678  0.00  0.00    +0.139 A 
ATOM     20  C   UNL     1      -0.648   4.151  24.541  0.00  0.00    +0.074 C 
ATOM     21  N   UNL     1      -2.015   3.856  24.837  0.00  0.00    -0.231 NA
ATOM     22  C   UNL     1      -2.613   3.306  24.974  0.00  0.00    +0.084 A 
ATOM     23  C   UNL     1      -2.443   2.498  24.953  0.00  0.00    +0.034 A 
BRANCH  22  24
ATOM     24  C   UNL     1      -3.381   3.561  25.132  0.00  0.00    +0.018 A 
ATOM     25  C   UNL     1      -3.932   3.614  24.522  0.00  0.00    +0.004 A 
ATOM     26  C   UNL     1      -4.701   3.869  24.679  0.00  0.00    +0.030 A 
ATOM     27  C   UNL     1      -4.918   4.073  25.448  0.00  0.00    +0.140 A 
ATOM     28  F   UNL     1      -5.686   4.329  25.607  0.00  0.00    -0.204 F 
ATOM     29  C   UNL     1      -4.366   4.020  26.060  0.00  0.00    +0.030 A 
ATOM     30  C   UNL     1      -3.598   3.765  25.902  0.00  0.00    +0.004 A 
ENDBRANCH  22  24
ENDBRANCH  16  17
BRANCH   9   8
ATOM      8  C   UNL     1      -1.047  -1.125  24.589  0.00  0.00    +0.226 C 
BRANCH   8   7
ATOM      7  O   UNL     1      -1.445  -1.713  25.010  0.00  0.00    -0.432 OA
BRANCH   7   5
ATOM      4  N   UNL     1      -2.785  -2.194  24.890  0.00  0.00    -0.170 NA
ATOM      5  C   UNL     1      -2.002  -2.187  24.629  0.00  0.00    +0.421 C 
ATOM      6  O   UNL     1      -1.777  -2.655  23.989  0.00  0.00    -0.225 OA
BRANCH   4   2
ATOM      1  C   UNL     1      -3.357  -3.481  24.649  0.00  0.00    +0.024 C 
ATOM      2  C   UNL     1      -3.342  -2.668  24.510  0.00  0.00    +0.099 C 
ATOM      3  C   UNL     1      -3.886  -2.329  23.989  0.00  0.00    +0.024 C 
ENDBRANCH   4   2
ENDBRANCH   7   5
ENDBRANCH   8   7
ENDBRANCH   9   8
TORSDOF 6
ENDMDL
MODEL 6
REMARK VINA RESULT:      -9.2      2.824      3.611
REMARK  Name = 
REMARK  6 active torsions:
REMARK  status: ('A' for Active; 'I' for Inactive)
REMARK    1  A    between atoms: C_2  and  N_4
REMARK    2  A    between atoms: C_5  and  O_7
REMARK    3  A    between atoms: O_7  and  C_8
REMARK    4  A    between atoms: C_8  and  C_9
REMARK    5  A    between atoms: C_16  and  C_17
REMARK    6  A    between atoms: C_22  and  C_24
REMARK                            x       y       z     vdW  Elec       q    Type
REMARK                         _______ _______ _______ _____ _____    ______ ____
ROOT
ATOM      9  C   UNL     1      -0.115   2.627  26.341  0.00  0.00    +0.102 C 
ATOM     10  C   UNL     1      -0.544   3.158  25.967  0.00  0.00    +0.020 C 
ATOM     11  C   UNL     1      -1.144   2.998  25.448  0.00  0.00    +0.010 C 
ATOM     12  C   UNL     1      -1.514   3.748  25.125  0.00  0.00    +0.018 C 
ATOM     13  C   UNL     1      -1.098   3.398  25.486  0.00  0.00    +0.072 C 
ATOM     14  N   UNL     1      -0.728   2.472  25.811  0.00  0.00    -0.270 NA
ATOM     15  C   UNL     1      -1.087   1.692  25.504  0.00  0.00    +0.078 C 
ATOM     16  C   UNL     1      -1.485   2.244  25.157  0.00  0.00    +0.056 C 
ENDROOT
BRANCH  16  17
ATOM     17  C   UNL     1      -2.106   2.150  24.621  0.00  0.00    +0.063 A 
ATOM     18  N   UNL     1      -1.948   2.110  23.812  0.00  0.00    -0.235 NA
ATOM     19  C   UNL     1      -2.568   2.016  23.276  0.00  0.00    +0.139 A 
ATOM     20  C   UNL     1      -2.412   1.975  22.467  0.00  0.00    +0.074 C 
ATOM     21  N   UNL     1      -3.345   1.963  23.549  0.00  0.00    -0.231 NA
ATOM     22  C   UNL     1      -3.502   2.003  24.357  0.00  0.00    +0.084 A 
ATOM     23  C   UNL     1      -2.881   2.097  24.894  0.00  0.00    +0.034 A 
BRANCH  22  24
ATOM     24  C   UNL     1      -4.278   1.950  24.631  0.00  0.00    +0.018 A 
ATOM     25  C   UNL     1      -4.611   1.212  24.788  0.00  0.00    +0.004 A 
ATOM     26  C   UNL     1      -5.388   1.158  25.061  0.00  0.00    +0.030 A 
ATOM     27  C   UNL     1      -5.832   1.843  25.177  0.00  0.00    +0.140 A 
ATOM     28  F   UNL     1      -6.609   1.790  25.451  0.00  0.00    -0.204 F 
ATOM     29  C   UNL     1      -5.499   2.582  25.020  0.00  0.00    +0.030 A 
ATOM     30  C   UNL     1      -4.723   2.635  24.747  0.00  0.00    +0.004 A 
ENDBRANCH  22  24
ENDBRANCH  16  17
BRANCH   9   8
ATOM      8  C   UNL     1       0.484   2.398  26.860  0.00  0.00    +0.226 C 
BRANCH   8   7
ATOM      7  O   UNL     1       0.476   2.661  27.642  0.00  0.00    -0.432 OA
BRANCH   7   5
ATOM      4  N   UNL     1       1.093   2.559  28.926  0.00  0.00    -0.170 NA
ATOM      5  C   UNL     1       1.156   2.599  28.105  0.00  0.00    +0.421 C 
ATOM      6  O   UNL     1       1.898   2.577  27.747  0.00  0.00    -0.225 OA
BRANCH   4   2
ATOM      1  C   UNL     1       2.431   2.963  29.221  0.00  0.00    +0.024 C 
ATOM      2  C   UNL     1       1.772   2.496  29.390  0.00  0.00    +0.099 C 
ATOM      3  C   UNL     1       1.792   1.967  30.023  0.00  0.00    +0.024 C 
ENDBRANCH   4   2
ENDBRANCH   7   5
ENDBRANCH   8   7
ENDBRANCH   9   8
TORSDOF 6
ENDMDL
MODEL 7
REMARK VINA RESULT:      -9.2      3.640      4.581
REMARK  Name = 
REMARK  6 active torsions:
REMARK  status: ('A' for Active; 'I' for Inactive)
REMARK    1  A    between atoms: C_2  and  N_4
REMARK    2  A    between atoms: C_5  and  O_7
REMARK    3  A    between atoms: O_7  and  C_8
REMARK    4  A    between atoms: C_8  and  C_9
REMARK    5  A    between atoms: C_16  and  C_17
REMARK    6  A    between atoms: C_22  and  C_24
REMARK                            x       y       z     vdW  Elec       q    Type
REMARK                         _______ _______ _______ _____ _____    ______ ____
ROOT
ATOM      9  C   UNL     1      -3.983  -0.040  24.407  0.00  0.00    +0.102 C 
ATOM     10  C   UNL     1      -3.972   0.575  23.931  0.00  0.00    +0.020 C 
ATOM     11  C   UNL     1      -3.930   1.350  24.162  0.00  0.00    +0.010 C 
ATOM     12  C   UNL     1      -3.929   1.909  23.461  0.00  0.00    +0.018 C 
ATOM     13  C   UNL     1      -3.945   1.327  23.759  0.00  0.00    +0.072 C 
ATOM     14  N   UNL     1      -3.940   0.752  24.635  0.00  0.00    -0.270 NA
ATOM     15  C   UNL     1      -3.893   1.149  25.455  0.00  0.00    +0.078 C 
ATOM     16  C   UNL     1      -3.885   1.725  24.954  0.00  0.00    +0.056 C 
ENDROOT
BRANCH  16  17
ATOM     17  C   UNL     1      -3.843   2.532  25.123  0.00  0.00    +0.063 A 
ATOM     18  N   UNL     1      -4.524   2.944  25.341  0.00  0.00    -0.235 NA
ATOM     19  C   UNL     1      -4.481   3.750  25.509  0.00  0.00    +0.139 A 
ATOM     20  C   UNL     1      -5.162   4.163  25.727  0.00  0.00    +0.074 C 
ATOM     21  N   UNL     1      -3.759   4.145  25.459  0.00  0.00    -0.231 NA
ATOM     22  C   UNL     1      -3.078   3.733  25.241  0.00  0.00    +0.084 A 
ATOM     23  C   UNL     1      -3.120   2.926  25.073  0.00  0.00    +0.034 A 
BRANCH  22  24
ATOM     24  C   UNL     1      -2.355   4.128  25.191  0.00  0.00    +0.018 A 
ATOM     25  C   UNL     1      -2.331   4.914  24.945  0.00  0.00    +0.004 A 
ATOM     26  C   UNL     1      -1.608   5.309  24.895  0.00  0.00    +0.030 A 
ATOM     27  C   UNL     1      -0.910   4.917  25.091  0.00  0.00    +0.140 A 
ATOM     28  F   UNL     1      -0.187   5.311  25.041  0.00  0.00    -0.204 F 
ATOM     29  C   UNL     1      -0.934   4.129  25.337  0.00  0.00    +0.030 A 
ATOM     30  C   UNL     1      -1.657   3.735  25.387  0.00  0.00    +0.004 A 
ENDBRANCH  22  24
ENDBRANCH  16  17
BRANCH   9   8
ATOM      8  C   UNL     1      -4.014  -0.849  24.562  0.00  0.00    +0.226 C 
BRANCH   8   7
ATOM      7  O   UNL     1      -3.639  -1.382  24.056  0.00  0.00    -0.432 OA
BRANCH   7   5
ATOM      4  N   UNL     1      -2.358  -2.006  24.154  0.00  0.00    -0.170 NA
ATOM      5  C   UNL     1      -3.155  -1.974  24.365  0.00  0.00    +0.421 C 
ATOM      6  O   UNL     1      -3.467  -2.533  24.885  0.00  0.00    -0.225 OA
BRANCH   4   2
ATOM      1  C   UNL     1      -1.921  -3.366  24.169  0.00  0.00    +0.024 C 
ATOM      2  C   UNL     1      -1.873  -2.597  24.463  0.00  0.00    +0.099 C 
ATOM      3  C   UNL     1      -1.339  -2.419  25.067  0.00  0.00    +0.024 C 
ENDBRANCH   4   2
ENDBRANCH   7   5
ENDBRANCH   8   7
ENDBRANCH   9   8
TORSDOF 6
ENDMDL
MODEL 8
REMARK VINA RESULT:      -9.0      3.658      5.881
REMARK  Name = 
REMARK  6 active torsions:
REMARK  status: ('A' for Active; 'I' for Inactive)
REMARK    1  A    between atoms: C_2  and  N_4
REMARK    2  A    between atoms: C_5  and  O_7
REMARK    3  A    between atoms: O_7  and  C_8
REMARK    4  A    between atoms: C_8  and  C_9
REMARK    5  A    between atoms: C_16  and  C_17
REMARK    6  A    between atoms: C_22  and  C_24
REMARK                            x       y       z     vdW  Elec       q    Type
REMARK                         _______ _______ _______ _____ _____    ______ ____
ROOT
ATOM      9  C   UNL     1      -4.148   2.392  24.596  0.00  0.00    +0.102 C 
ATOM     10  C   UNL     1      -4.481   1.796  24.968  0.00  0.00    +0.020 C 
ATOM     11  C   UNL     1      -4.283   1.016  24.880  0.00  0.00    +0.010 C 
ATOM     12  C   UNL     1      -4.786   0.484  25.399  0.00  0.00    +0.018 C 
ATOM     13  C   UNL     1      -4.584   1.052  25.149  0.00  0.00    +0.072 C 
ATOM     14  N   UNL     1      -3.952   1.595  24.512  0.00  0.00    -0.270 NA
ATOM     15  C   UNL     1      -3.330   1.170  23.997  0.00  0.00    +0.078 C 
ATOM     16  C   UNL     1      -3.683   0.613  24.383  0.00  0.00    +0.056 C 
ENDROOT
BRANCH  16  17
ATOM     17  C   UNL     1      -3.531  -0.197  24.340  0.00  0.00    +0.063 A 
ATOM     18  N   UNL     1      -4.104  -0.708  24.035  0.00  0.00    -0.235 NA
ATOM     19  C   UNL     1      -3.952  -1.517  23.993  0.00  0.00    +0.139 A 
ATOM     20  C   UNL     1      -4.523  -2.029  23.688  0.00  0.00    +0.074 C 
ATOM     21  N   UNL     1      -3.229  -1.817  24.255  0.00  0.00    -0.231 NA
ATOM     22  C   UNL     1      -2.658  -1.306  24.559  0.00  0.00    +0.084 A 
ATOM     23  C   UNL     1      -2.809  -0.495  24.602  0.00  0.00    +0.034 A 
BRANCH  22  24
ATOM     24  C   UNL     1      -1.934  -1.604  24.822  0.00  0.00    +0.018 A 
ATOM     25  C   UNL     1      -1.649  -2.316  24.520  0.00  0.00    +0.004 A 
ATOM     26  C   UNL     1      -0.926  -2.616  24.782  0.00  0.00    +0.030 A 
ATOM     27  C   UNL     1      -0.488  -2.202  25.345  0.00  0.00    +0.140 A 
ATOM     28  F   UNL     1       0.235  -2.500  25.608  0.00  0.00    -0.204 F 
ATOM     29  C   UNL     1      -0.774  -1.489  25.647  0.00  0.00    +0.030 A 
ATOM     30  C   UNL     1      -1.497  -1.190  25.385  0.00  0.00    +0.004 A 
ENDBRANCH  22  24
ENDBRANCH  16  17
BRANCH   9   8
ATOM      8  C   UNL     1      -4.059   3.193  24.421  0.00  0.00    +0.226 C 
BRANCH   8   7
ATOM      7  O   UNL     1      -3.763   3.710  24.992  0.00  0.00    -0.432 OA
BRANCH   7   5
ATOM      4  N   UNL     1      -2.515   4.283  25.389  0.00  0.00    -0.170 NA
ATOM      5  C   UNL     1      -3.105   4.179  24.822  0.00  0.00    +0.421 C 
ATOM      6  O   UNL     1      -3.039   4.544  24.086  0.00  0.00    -0.225 OA
BRANCH   4   2
ATOM      1  C   UNL     1      -1.133   4.399  25.047  0.00  0.00    +0.024 C 
ATOM      2  C   UNL     1      -1.858   4.752  25.220  0.00  0.00    +0.099 C 
ATOM      3  C   UNL     1      -1.927   5.574  25.223  0.00  0.00    +0.024 C 
ENDBRANCH   4   2
ENDBRANCH   7   5
ENDBRANCH   8   7
ENDBRANCH   9   8
TORSDOF 6
ENDMDL
MODEL 9
REMARK VINA RESULT:      -8.5      2.938      5.734
REMARK  Name = 
REMARK  6 active torsions:
REMARK  status: ('A' for Active; 'I' for Inactive)
REMARK    1  A    between atoms: C_2  and  N_4
REMARK    2  A    between atoms: C_5  and  O_7
REMARK    3  A    between atoms: O_7  and  C_8
REMARK    4  A    between atoms: C_8  and  C_9
REMARK    5  A    between atoms: C_16  and  C_17
REMARK    6  A    between atoms: C_22  and  C_24
REMARK                            x       y       z     vdW  Elec       q    Type
REMARK                         _______ _______ _______ _____ _____    ______ ____
ROOT
ATOM      9  C   UNL     1      -2.030   3.286  25.162  0.00  0.00    +0.102 C 
ATOM     10  C   UNL     1      -1.407   2.962  25.497  0.00  0.00    +0.020 C 
ATOM     11  C   UNL     1      -1.019   2.302  25.232  0.00  0.00    +0.010 C 
ATOM     12  C   UNL     1      -0.324   2.090  25.759  0.00  0.00    +0.018 C 
ATOM     13  C   UNL     1      -0.841   2.442  25.568  0.00  0.00    +0.072 C 
ATOM     14  N   UNL     1      -1.629   2.614  24.899  0.00  0.00    -0.270 NA
ATOM     15  C   UNL     1      -1.765   2.063  24.184  0.00  0.00    +0.078 C 
ATOM     16  C   UNL     1      -1.155   1.777  24.543  0.00  0.00    +0.056 C 
ENDROOT
BRANCH  16  17
ATOM     17  C   UNL     1      -0.716   1.112  24.328  0.00  0.00    +0.063 A 
ATOM     18  N   UNL     1      -0.013   1.201  23.904  0.00  0.00    -0.235 NA
ATOM     19  C   UNL     1       0.425   0.537  23.690  0.00  0.00    +0.139 A 
ATOM     20  C   UNL     1       1.128   0.626  23.266  0.00  0.00    +0.074 C 
ATOM     21  N   UNL     1       0.162  -0.217  23.898  0.00  0.00    -0.231 NA
ATOM     22  C   UNL     1      -0.540  -0.306  24.321  0.00  0.00    +0.084 A 
ATOM     23  C   UNL     1      -0.979   0.359  24.536  0.00  0.00    +0.034 A 
BRANCH  22  24
ATOM     24  C   UNL     1      -0.804  -1.059  24.529  0.00  0.00    +0.018 A 
ATOM     25  C   UNL     1      -0.493  -1.436  25.194  0.00  0.00    +0.004 A 
ATOM     26  C   UNL     1      -0.756  -2.189  25.403  0.00  0.00    +0.030 A 
ATOM     27  C   UNL     1      -1.330  -2.566  24.947  0.00  0.00    +0.140 A 
ATOM     28  F   UNL     1      -1.594  -3.320  25.156  0.00  0.00    -0.204 F 
ATOM     29  C   UNL     1      -1.642  -2.190  24.282  0.00  0.00    +0.030 A 
ATOM     30  C   UNL     1      -1.378  -1.436  24.073  0.00  0.00    +0.004 A 
ENDBRANCH  22  24
ENDBRANCH  16  17
BRANCH   9   8
ATOM      8  C   UNL     1      -2.626   3.854  25.110  0.00  0.00    +0.226 C 
BRANCH   8   7
ATOM      7  O   UNL     1      -3.232   3.868  25.669  0.00  0.00    -0.432 OA
BRANCH   7   5
ATOM      4  N   UNL     1      -4.582   3.442  25.866  0.00  0.00    -0.170 NA
ATOM      5  C   UNL     1      -4.020   3.852  25.423  0.00  0.00    +0.421 C 
ATOM      6  O   UNL     1      -4.245   4.245  24.733  0.00  0.00    -0.225 OA
BRANCH   4   2
ATOM      1  C   UNL     1      -5.828   4.109  25.662  0.00  0.00    +0.024 C 
ATOM      2  C   UNL     1      -5.369   3.426  25.621  0.00  0.00    +0.099 C 
ATOM      3  C   UNL     1      -5.697   2.724  25.335  0.00  0.00    +0.024 C 
ENDBRANCH   4   2
ENDBRANCH   7   5
ENDBRANCH   8   7
ENDBRANCH   9   8
TORSDOF 6
ENDMDL
