MODEL 1
REMARK VINA RESULT:      -9.6      0.000      0.000
REMARK  Name = 
REMARK  6 active torsions:
REMARK  status: ('A' for Active; 'I' for Inactive)
REMARK    1  A    between atoms: C_2  and  N_4
REMARK    2  A    between atoms: C_13  and  C_14
REMARK    3  A    between atoms: C_14  and  C_15
REMARK    4  A    between atoms: C_15  and  C_16
REMARK    5  A    between atoms: N_18  and  C_19
REMARK    6  A    between atoms: C_19  and  C_20
REMARK                            x       y       z     vdW  Elec       q    Type
REMARK                         _______ _______ _______ _____ _____    ______ ____
ROOT
ATOM      4  N   UNL     1      -2.647  -2.197  24.551  0.00  0.00    -0.267 NA
ATOM      5  C   UNL     1      -1.966  -2.549  24.246  0.00  0.00    +0.074 C 
ATOM      6  C   UNL     1      -1.355  -1.996  24.284  0.00  0.00    +0.035 C 
ATOM      7  C   UNL     1      -1.658  -1.302  24.613  0.00  0.00    +0.083 C 
ATOM      8  C   UNL     1      -2.457  -1.427  24.778  0.00  0.00    +0.151 C 
ATOM      9  C   UNL     1      -3.002  -0.903  25.109  0.00  0.00    +0.257 C 
ATOM     10  O   UNL     1      -3.767  -1.196  25.205  0.00  0.00    -0.272 OA
ATOM     11  N   UNL     1      -2.882  -0.125  25.357  0.00  0.00    -0.203 NA
ATOM     12  C   UNL     1      -2.189   0.321  25.335  0.00  0.00    +0.131 C 
ATOM     13  C   UNL     1      -1.443   0.099  25.059  0.00  0.00    +0.080 C 
ATOM     25  N   UNL     1      -1.207  -0.623  24.738  0.00  0.00    -0.271 NA
ATOM     26  C   UNL     1      -0.416  -0.673  24.512  0.00  0.00    +0.090 C 
ENDROOT
BRANCH   4   2
ATOM      1  C   UNL     1      -3.585  -2.972  25.301  0.00  0.00    +0.017 C 
ATOM      2  C   UNL     1      -3.388  -2.554  24.618  0.00  0.00    +0.058 C 
ATOM      3  C   UNL     1      -3.933  -2.492  24.002  0.00  0.00    +0.017 C 
ENDBRANCH   4   2
BRANCH  13  14
ATOM     14  C   UNL     1      -0.856   0.676  25.112  0.00  0.00    +0.027 C 
BRANCH  14  15
ATOM     15  C   UNL     1      -0.945   1.309  25.633  0.00  0.00    +0.088 C 
BRANCH  15  16
ATOM     16  C   UNL     1      -0.547   2.018  25.494  0.00  0.00    +0.242 C 
ATOM     17  O   UNL     1       0.275   2.020  25.410  0.00  0.00    -0.273 OA
ATOM     18  N   UNL     1      -0.969   2.725  25.438  0.00  0.00    -0.200 NA
BRANCH  18  19
ATOM     19  C   UNL     1      -0.571   3.433  25.299  0.00  0.00    +0.148 C 
BRANCH  19  20
ATOM     20  C   UNL     1      -0.994   4.137  25.223  0.00  0.00    +0.029 A 
ATOM     21  C   UNL     1      -0.692   4.859  24.965  0.00  0.00    +0.004 A 
ATOM     22  C   UNL     1      -1.306   5.410  24.975  0.00  0.00    +0.007 A 
ATOM     23  C   UNL     1      -1.988   5.028  25.238  0.00  0.00    +0.035 A 
ATOM     24  S   UNL     1      -1.796   4.241  25.391  0.00  0.00    -0.089 S 
ENDBRANCH  19  20
ENDBRANCH  18  19
ENDBRANCH  15  16
ENDBRANCH  14  15
ENDBRANCH  13  14
TORSDOF 6
ENDMDL
MODEL 2
REMARK VINA RESULT:      -9.4      2.212      5.934
REMARK  Name = 
REMARK  6 active torsions:
REMARK  status: ('A' for Active; 'I' for Inactive)
REMARK    1  A    between atoms: C_2  and  N_4
REMARK    2  A    between atoms: C_13  and  C_14
REMARK    3  A    between atoms: C_14  and  C_15
REMARK    4  A    between atoms: C_15  and  C_16
REMARK    5  A    between atoms: N_18  and  C_19
REMARK    6  A    between atoms: C_19  and  C_20
REMARK                            x       y       z     vdW  Elec       q    Type
REMARK                         _______ _______ _______ _____ _____    ______ ____
ROOT
ATOM      4  N   UNL     1      -1.718   4.296  25.247  0.00  0.00    -0.267 NA
ATOM      5  C   UNL     1      -2.275   4.587  25.782  0.00  0.00    +0.074 C 
ATOM      6  C   UNL     1      -2.921   4.075  25.781  0.00  0.00    +0.035 C 
ATOM      7  C   UNL     1      -2.764   3.467  25.245  0.00  0.00    +0.083 C 
ATOM      8  C   UNL     1      -2.020   3.604  24.915  0.00  0.00    +0.151 C 
ATOM      9  C   UNL     1      -1.616   3.155  24.352  0.00  0.00    +0.257 C 
ATOM     10  O   UNL     1      -0.874   3.441  24.133  0.00  0.00    -0.272 OA
ATOM     11  N   UNL     1      -1.856   2.458  23.981  0.00  0.00    -0.203 NA
ATOM     12  C   UNL     1      -2.559   2.039  24.081  0.00  0.00    +0.131 C 
ATOM     13  C   UNL     1      -3.197   2.212  24.576  0.00  0.00    +0.080 C 
ATOM     25  N   UNL     1      -3.288   2.848  25.094  0.00  0.00    -0.271 NA
ATOM     26  C   UNL     1      -3.995   2.866  25.517  0.00  0.00    +0.090 C 
ENDROOT
BRANCH   4   2
ATOM      1  C   UNL     1      -0.294   4.297  25.364  0.00  0.00    +0.017 C 
ATOM      2  C   UNL     1      -0.987   4.638  25.074  0.00  0.00    +0.058 C 
ATOM      3  C   UNL     1      -0.949   5.319  24.611  0.00  0.00    +0.017 C 
ENDBRANCH   4   2
BRANCH  13  14
ATOM     14  C   UNL     1      -3.825   1.680  24.550  0.00  0.00    +0.027 C 
BRANCH  14  15
ATOM     15  C   UNL     1      -3.776   1.005  24.077  0.00  0.00    +0.088 C 
BRANCH  15  16
ATOM     16  C   UNL     1      -4.224   0.338  24.261  0.00  0.00    +0.242 C 
ATOM     17  O   UNL     1      -5.022   0.418  24.459  0.00  0.00    -0.273 OA
ATOM     18  N   UNL     1      -3.875  -0.410  24.248  0.00  0.00    -0.200 NA
BRANCH  18  19
ATOM     19  C   UNL     1      -4.323  -1.077  24.433  0.00  0.00    +0.148 C 
BRANCH  19  20
ATOM     20  C   UNL     1      -3.970  -1.823  24.439  0.00  0.00    +0.029 A 
ATOM     21  C   UNL     1      -4.072  -2.412  23.871  0.00  0.00    +0.004 A 
ATOM     22  C   UNL     1      -3.617  -3.064  24.097  0.00  0.00    +0.007 A 
ATOM     23  C   UNL     1      -3.235  -2.876  24.803  0.00  0.00    +0.035 A 
ATOM     24  S   UNL     1      -3.453  -2.109  25.015  0.00  0.00    -0.089 S 
ENDBRANCH  19  20
ENDBRANCH  18  19
ENDBRANCH  15  16
ENDBRANCH  14  15
ENDBRANCH  13  14
TORSDOF 6
ENDMDL
MODEL 3
REMARK VINA RESULT:      -8.7      1.490      2.097
REMARK  Name = 
REMARK  6 active torsions:
REMARK  status: ('A' for Active; 'I' for Inactive)
REMARK    1  A    between atoms: C_2  and  N_4
REMARK    2  A    between atoms: C_13  and  C_14
REMARK    3  A    between atoms: C_14  and  C_15
REMARK    4  A    between atoms: C_15  and  C_16
REMARK    5  A    between atoms: N_18  and  C_19
REMARK    6  A    between atoms: C_19  and  C_20
REMARK                            x       y       z     vdW  Elec       q    Type
REMARK                         _______ _______ _______ _____ _____    ______ ____
ROOT
ATOM      4  N   UNL     1      -3.430  -1.931  24.442  0.00  0.00    -0.267 NA
ATOM      5  C   UNL     1      -4.126  -1.904  23.998  0.00  0.00    +0.074 C 
ATOM      6  C   UNL     1      -4.364  -1.117  23.945  0.00  0.00    +0.035 C 
ATOM      7  C   UNL     1      -3.816  -0.656  24.356  0.00  0.00    +0.083 C 
ATOM      8  C   UNL     1      -3.239  -1.160  24.663  0.00  0.00    +0.151 C 
ATOM      9  C   UNL     1      -2.575  -0.967  25.114  0.00  0.00    +0.257 C 
ATOM     10  O   UNL     1      -2.099  -1.602  25.339  0.00  0.00    -0.272 OA
ATOM     11  N   UNL     1      -2.324  -0.223  25.369  0.00  0.00    -0.203 NA
ATOM     12  C   UNL     1      -2.675   0.511  25.236  0.00  0.00    +0.131 C 
ATOM     13  C   UNL     1      -3.364   0.684  24.816  0.00  0.00    +0.080 C 
ATOM     25  N   UNL     1      -3.872   0.164  24.424  0.00  0.00    -0.271 NA
ATOM     26  C   UNL     1      -4.520   0.511  24.051  0.00  0.00    +0.090 C 
ENDROOT
BRANCH   4   2
ATOM      1  C   UNL     1      -3.207  -3.056  25.294  0.00  0.00    +0.017 C 
ATOM      2  C   UNL     1      -3.001  -2.610  24.631  0.00  0.00    +0.058 C 
ATOM      3  C   UNL     1      -2.367  -2.843  24.158  0.00  0.00    +0.017 C 
ENDBRANCH   4   2
BRANCH  13  14
ATOM     14  C   UNL     1      -3.573   1.480  24.783  0.00  0.00    +0.027 C 
BRANCH  14  15
ATOM     15  C   UNL     1      -3.327   1.997  25.377  0.00  0.00    +0.088 C 
BRANCH  15  16
ATOM     16  C   UNL     1      -3.328   2.811  25.243  0.00  0.00    +0.242 C 
ATOM     17  O   UNL     1      -4.041   3.207  25.113  0.00  0.00    -0.273 OA
ATOM     18  N   UNL     1      -2.617   3.230  25.238  0.00  0.00    -0.200 NA
BRANCH  18  19
ATOM     19  C   UNL     1      -2.617   4.043  25.104  0.00  0.00    +0.148 C 
BRANCH  19  20
ATOM     20  C   UNL     1      -1.904   4.454  25.051  0.00  0.00    +0.029 A 
ATOM     21  C   UNL     1      -1.814   5.273  25.070  0.00  0.00    +0.004 A 
ATOM     22  C   UNL     1      -1.008   5.442  25.000  0.00  0.00    +0.007 A 
ATOM     23  C   UNL     1      -0.602   4.727  24.937  0.00  0.00    +0.035 A 
ATOM     24  S   UNL     1      -1.155   4.116  24.969  0.00  0.00    -0.089 S 
ENDBRANCH  19  20
ENDBRANCH  18  19
ENDBRANCH  15  16
ENDBRANCH  14  15
ENDBRANCH  13  14
TORSDOF 6
ENDMDL
MODEL 4
REMARK VINA RESULT:      -8.6      1.931      5.370
REMARK  Name = 
REMARK  6 active torsions:
REMARK  status: ('A' for Active; 'I' for Inactive)
REMARK    1  A    between atoms: C_2  and  N_4
REMARK    2  A    between atoms: C_13  and  C_14
REMARK    3  A    between atoms: C_14  and  C_15
REMARK    4  A    between atoms: C_15  and  C_16
REMARK    5  A    between atoms: N_18  and  C_19
REMARK    6  A    between atoms: C_19  and  C_20
REMARK                            x       y       z     vdW  Elec       q    Type
REMARK                         _______ _______ _______ _____ _____    ______ ____
ROOT
ATOM      4  N   UNL     1      -2.291   3.734  24.975  0.00  0.00    -0.267 NA
ATOM      5  C   UNL     1      -2.810   3.653  24.338  0.00  0.00    +0.074 C 
ATOM      6  C   UNL     1      -2.697   2.905  24.011  0.00  0.00    +0.035 C 
ATOM      7  C   UNL     1      -2.109   2.522  24.445  0.00  0.00    +0.083 C 
ATOM      8  C   UNL     1      -1.858   3.035  25.041  0.00  0.00    +0.151 C 
ATOM      9  C   UNL     1      -1.281   2.910  25.618  0.00  0.00    +0.257 C 
ATOM     10  O   UNL     1      -1.156   3.536  26.140  0.00  0.00    -0.272 OA
ATOM     11  N   UNL     1      -0.813   2.241  25.741  0.00  0.00    -0.203 NA
ATOM     12  C   UNL     1      -0.807   1.533  25.319  0.00  0.00    +0.131 C 
ATOM     13  C   UNL     1      -1.267   1.318  24.668  0.00  0.00    +0.080 C 
ATOM     25  N   UNL     1      -1.846   1.758  24.279  0.00  0.00    -0.271 NA
ATOM     26  C   UNL     1      -2.210   1.385  23.641  0.00  0.00    +0.090 C 
ENDROOT
BRANCH   4   2
ATOM      1  C   UNL     1      -1.681   4.993  25.267  0.00  0.00    +0.017 C 
ATOM      2  C   UNL     1      -2.217   4.397  25.460  0.00  0.00    +0.058 C 
ATOM      3  C   UNL     1      -2.681   4.465  26.139  0.00  0.00    +0.017 C 
ENDBRANCH   4   2
BRANCH  13  14
ATOM     14  C   UNL     1      -1.129   0.563  24.366  0.00  0.00    +0.027 C 
BRANCH  14  15
ATOM     15  C   UNL     1      -0.866  -0.040  24.865  0.00  0.00    +0.088 C 
BRANCH  15  16
ATOM     16  C   UNL     1      -0.975  -0.829  24.651  0.00  0.00    +0.242 C 
ATOM     17  O   UNL     1      -0.378  -1.233  24.247  0.00  0.00    -0.273 OA
ATOM     18  N   UNL     1      -1.679  -1.215  24.840  0.00  0.00    -0.200 NA
BRANCH  18  19
ATOM     19  C   UNL     1      -1.787  -2.004  24.627  0.00  0.00    +0.148 C 
BRANCH  19  20
ATOM     20  C   UNL     1      -2.542  -2.337  24.645  0.00  0.00    +0.029 A 
ATOM     21  C   UNL     1      -2.980  -2.582  23.990  0.00  0.00    +0.004 A 
ATOM     22  C   UNL     1      -3.700  -2.880  24.263  0.00  0.00    +0.007 A 
ATOM     23  C   UNL     1      -3.706  -2.820  25.085  0.00  0.00    +0.035 A 
ATOM     24  S   UNL     1      -2.991  -2.484  25.322  0.00  0.00    -0.089 S 
ENDBRANCH  19  20
ENDBRANCH  18  19
ENDBRANCH  15  16
ENDBRANCH  14  15
ENDBRANCH  13  14
TORSDOF 6
ENDMDL
MODEL 5
REMARK VINA RESULT:      -8.1      2.787      4.519
REMARK  Name = 
REMARK  6 active torsions:
REMARK  status: ('A' for Active; 'I' for Inactive)
REMARK    1  A    between atoms: C_2  and  N_4
REMARK    2  A    between atoms: C_13  and  C_14
REMARK    3  A    between atoms: C_14  and  C_15
REMARK    4  A    between atoms: C_15  and  C_16
REMARK    5  A    between atoms: N_18  and  C_19
REMARK    6  A    between atoms: C_19  and  C_20
REMARK                            x       y       z     vdW  Elec       q    Type
REMARK                         _______ _______ _______ _____ _____    ______ ____
ROOT
ATOM      4  N   UNL     1      -4.715   2.316  25.067  0.00  0.00    -0.267 NA
ATOM      5  C   UNL     1      -5.158   1.657  24.844  0.00  0.00    +0.074 C 
ATOM      6  C   UNL     1      -4.634   1.064  24.613  0.00  0.00    +0.035 C 
ATOM      7  C   UNL     1      -3.867   1.356  24.694  0.00  0.00    +0.083 C 
ATOM      8  C   UNL     1      -3.917   2.130  24.975  0.00  0.00    +0.151 C 
ATOM      9  C   UNL     1      -3.304   2.657  25.145  0.00  0.00    +0.257 C 
ATOM     10  O   UNL     1      -3.537   3.399  25.420  0.00  0.00    -0.272 OA
ATOM     11  N   UNL     1      -2.491   2.539  25.076  0.00  0.00    -0.203 NA
ATOM     12  C   UNL     1      -2.088   1.866  24.821  0.00  0.00    +0.131 C 
ATOM     13  C   UNL     1      -2.400   1.143  24.570  0.00  0.00    +0.080 C 
ATOM     25  N   UNL     1      -3.192   0.916  24.514  0.00  0.00    -0.271 NA
ATOM     26  C   UNL     1      -3.326   0.150  24.242  0.00  0.00    +0.090 C 
ENDROOT
BRANCH   4   2
ATOM      1  C   UNL     1      -5.100   3.669  24.815  0.00  0.00    +0.017 C 
ATOM      2  C   UNL     1      -5.017   3.036  25.336  0.00  0.00    +0.058 C 
ATOM      3  C   UNL     1      -5.237   3.121  26.127  0.00  0.00    +0.017 C 
ENDBRANCH   4   2
BRANCH  13  14
ATOM     14  C   UNL     1      -1.848   0.573  24.347  0.00  0.00    +0.027 C 
BRANCH  14  15
ATOM     15  C   UNL     1      -1.041   0.727  24.423  0.00  0.00    +0.088 C 
BRANCH  15  16
ATOM     16  C   UNL     1      -0.491   0.137  24.255  0.00  0.00    +0.242 C 
ATOM     17  O   UNL     1      -0.528  -0.587  24.651  0.00  0.00    -0.273 OA
ATOM     18  N   UNL     1       0.098   0.269  23.691  0.00  0.00    -0.200 NA
BRANCH  18  19
ATOM     19  C   UNL     1       0.648  -0.321  23.523  0.00  0.00    +0.148 C 
BRANCH  19  20
ATOM     20  C   UNL     1       1.255  -0.179  22.983  0.00  0.00    +0.029 A 
ATOM     21  C   UNL     1       1.251  -0.385  22.184  0.00  0.00    +0.004 A 
ATOM     22  C   UNL     1       1.967  -0.138  21.855  0.00  0.00    +0.007 A 
ATOM     23  C   UNL     1       2.412   0.220  22.450  0.00  0.00    +0.035 A 
ATOM     24  S   UNL     1       1.972   0.195  23.147  0.00  0.00    -0.089 S 
ENDBRANCH  19  20
ENDBRANCH  18  19
ENDBRANCH  15  16
ENDBRANCH  14  15
ENDBRANCH  13  14
TORSDOF 6
ENDMDL
MODEL 6
REMARK VINA RESULT:      -8.1      3.015      4.110
REMARK  Name = 
REMARK  6 active torsions:
REMARK  status: ('A' for Active; 'I' for Inactive)
REMARK    1  A    between atoms: C_2  and  N_4
REMARK    2  A    between atoms: C_13  and  C_14
REMARK    3  A    between atoms: C_14  and  C_15
REMARK    4  A    between atoms: C_15  and  C_16
REMARK    5  A    between atoms: N_18  and  C_19
REMARK    6  A    between atoms: C_19  and  C_20
REMARK                            x       y       z     vdW  Elec       q    Type
REMARK                         _______ _______ _______ _____ _____    ______ ____
ROOT
ATOM      4  N   UNL     1      -2.862  -0.275  24.983  0.00  0.00    -0.267 NA
ATOM      5  C   UNL     1      -3.007   0.530  24.874  0.00  0.00    +0.074 C 
ATOM      6  C   UNL     1      -2.346   0.861  24.509  0.00  0.00    +0.035 C 
ATOM      7  C   UNL     1      -1.791   0.261  24.393  0.00  0.00    +0.083 C 
ATOM      8  C   UNL     1      -2.110  -0.441  24.686  0.00  0.00    +0.151 C 
ATOM      9  C   UNL     1      -1.772  -1.194  24.699  0.00  0.00    +0.257 C 
ATOM     10  O   UNL     1      -2.236  -1.789  25.033  0.00  0.00    -0.272 OA
ATOM     11  N   UNL     1      -1.031  -1.430  24.422  0.00  0.00    -0.203 NA
ATOM     12  C   UNL     1      -0.446  -0.972  24.064  0.00  0.00    +0.131 C 
ATOM     13  C   UNL     1      -0.457  -0.165  23.894  0.00  0.00    +0.080 C 
ATOM     25  N   UNL     1      -1.055   0.385  24.041  0.00  0.00    -0.271 NA
ATOM     26  C   UNL     1      -0.897   1.158  23.804  0.00  0.00    +0.090 C 
ENDROOT
BRANCH   4   2
ATOM      1  C   UNL     1      -3.330  -0.975  26.137  0.00  0.00    +0.017 C 
ATOM      2  C   UNL     1      -3.377  -0.819  25.329  0.00  0.00    +0.058 C 
ATOM      3  C   UNL     1      -3.940  -1.206  24.866  0.00  0.00    +0.017 C 
ENDBRANCH   4   2
BRANCH  13  14
ATOM     14  C   UNL     1       0.220   0.133  23.530  0.00  0.00    +0.027 C 
BRANCH  14  15
ATOM     15  C   UNL     1       0.843  -0.373  23.337  0.00  0.00    +0.088 C 
BRANCH  15  16
ATOM     16  C   UNL     1       1.424  -0.128  22.807  0.00  0.00    +0.242 C 
ATOM     17  O   UNL     1       1.235  -0.010  22.012  0.00  0.00    -0.273 OA
ATOM     18  N   UNL     1       2.196  -0.002  23.069  0.00  0.00    -0.200 NA
BRANCH  18  19
ATOM     19  C   UNL     1       2.778   0.243  22.539  0.00  0.00    +0.148 C 
BRANCH  19  20
ATOM     20  C   UNL     1       3.557   0.338  22.794  0.00  0.00    +0.029 A 
ATOM     21  C   UNL     1       3.991   1.038  22.774  0.00  0.00    +0.004 A 
ATOM     22  C   UNL     1       4.741   0.881  23.083  0.00  0.00    +0.007 A 
ATOM     23  C   UNL     1       4.769   0.085  23.292  0.00  0.00    +0.035 A 
ATOM     24  S   UNL     1       4.037  -0.252  23.114  0.00  0.00    -0.089 S 
ENDBRANCH  19  20
ENDBRANCH  18  19
ENDBRANCH  15  16
ENDBRANCH  14  15
ENDBRANCH  13  14
TORSDOF 6
ENDMDL
MODEL 7
REMARK VINA RESULT:      -7.2     17.135     18.763
REMARK  Name = 
REMARK  6 active torsions:
REMARK  status: ('A' for Active; 'I' for Inactive)
REMARK    1  A    between atoms: C_2  and  N_4
REMARK    2  A    between atoms: C_13  and  C_14
REMARK    3  A    between atoms: C_14  and  C_15
REMARK    4  A    between atoms: C_15  and  C_16
REMARK    5  A    between atoms: N_18  and  C_19
REMARK    6  A    between atoms: C_19  and  C_20
REMARK                            x       y       z     vdW  Elec       q    Type
REMARK                         _______ _______ _______ _____ _____    ______ ____
ROOT
ATOM      4  N   UNL     1      16.516   7.307  20.408  0.00  0.00    -0.267 NA
ATOM      5  C   UNL     1      16.742   8.092  20.291  0.00  0.00    +0.074 C 
ATOM      6  C   UNL     1      16.076   8.515  20.051  0.00  0.00    +0.035 C 
ATOM      7  C   UNL     1      15.438   7.992  20.020  0.00  0.00    +0.083 C 
ATOM      8  C   UNL     1      15.711   7.245  20.240  0.00  0.00    +0.151 C 
ATOM      9  C   UNL     1      15.287   6.538  20.296  0.00  0.00    +0.257 C 
ATOM     10  O   UNL     1      15.722   5.879  20.533  0.00  0.00    -0.272 OA
ATOM     11  N   UNL     1      14.487   6.406  20.144  0.00  0.00    -0.203 NA
ATOM     12  C   UNL     1      13.913   6.945  19.901  0.00  0.00    +0.131 C 
ATOM     13  C   UNL     1      13.997   7.752  19.748  0.00  0.00    +0.080 C 
ATOM     25  N   UNL     1      14.676   8.218  19.801  0.00  0.00    -0.271 NA
ATOM     26  C   UNL     1      14.579   9.014  19.609  0.00  0.00    +0.090 C 
ENDROOT
BRANCH   4   2
ATOM      1  C   UNL     1      17.156   6.571  21.452  0.00  0.00    +0.017 C 
ATOM      2  C   UNL     1      17.010   6.691  20.649  0.00  0.00    +0.058 C 
ATOM      3  C   UNL     1      17.357   6.196  20.089  0.00  0.00    +0.017 C 
ENDBRANCH   4   2
BRANCH  13  14
ATOM     14  C   UNL     1      13.312   8.144  19.510  0.00  0.00    +0.027 C 
BRANCH  14  15
ATOM     15  C   UNL     1      12.687   7.720  19.178  0.00  0.00    +0.088 C 
BRANCH  15  16
ATOM     16  C   UNL     1      12.036   8.119  18.866  0.00  0.00    +0.242 C 
ATOM     17  O   UNL     1      11.481   8.463  19.373  0.00  0.00    -0.273 OA
ATOM     18  N   UNL     1      11.939   8.176  18.049  0.00  0.00    -0.200 NA
BRANCH  18  19
ATOM     19  C   UNL     1      11.288   8.575  17.737  0.00  0.00    +0.148 C 
BRANCH  19  20
ATOM     20  C   UNL     1      11.259   8.752  16.932  0.00  0.00    +0.029 A 
ATOM     21  C   UNL     1      11.899   8.969  16.459  0.00  0.00    +0.004 A 
ATOM     22  C   UNL     1      11.618   9.093  15.693  0.00  0.00    +0.007 A 
ATOM     23  C   UNL     1      10.806   8.954  15.693  0.00  0.00    +0.035 A 
ATOM     24  S   UNL     1      10.583   8.743  16.458  0.00  0.00    -0.089 S 
ENDBRANCH  19  20
ENDBRANCH  18  19
ENDBRANCH  15  16
ENDBRANCH  14  15
ENDBRANCH  13  14
TORSDOF 6
ENDMDL
MODEL 8
REMARK VINA RESULT:      -6.7     16.025     18.341
REMARK  Name = 
REMARK  6 active torsions:
REMARK  status: ('A' for Active; 'I' for Inactive)
REMARK    1  A    between atoms: C_2  and  N_4
REMARK    2  A    between atoms: C_13  and  C_14
REMARK    3  A    between atoms: C_14  and  C_15
REMARK    4  A    between atoms: C_15  and  C_16
REMARK    5  A    between atoms: N_18  and  C_19
REMARK    6  A    between atoms: C_19  and  C_20
REMARK                            x       y       z     vdW  Elec       q    Type
REMARK                         _______ _______ _______ _____ _____    ______ ____
ROOT
ATOM      4  N   UNL     1      16.634   7.294  20.216  0.00  0.00    -0.267 NA
ATOM      5  C   UNL     1      16.836   8.090  20.299  0.00  0.00    +0.074 C 
ATOM      6  C   UNL     1      16.165   8.542  20.136  0.00  0.00    +0.035 C 
ATOM      7  C   UNL     1      15.548   8.025  19.952  0.00  0.00    +0.083 C 
ATOM      8  C   UNL     1      15.838   7.254  20.002  0.00  0.00    +0.151 C 
ATOM      9  C   UNL     1      15.438   6.544  19.869  0.00  0.00    +0.257 C 
ATOM     10  O   UNL     1      15.885   5.859  19.964  0.00  0.00    -0.272 OA
ATOM     11  N   UNL     1      14.649   6.431  19.654  0.00  0.00    -0.203 NA
ATOM     12  C   UNL     1      14.066   6.999  19.518  0.00  0.00    +0.131 C 
ATOM     13  C   UNL     1      14.128   7.821  19.564  0.00  0.00    +0.080 C 
ATOM     25  N   UNL     1      14.787   8.278  19.757  0.00  0.00    -0.271 NA
ATOM     26  C   UNL     1      14.670   9.093  19.755  0.00  0.00    +0.090 C 
ENDROOT
BRANCH   4   2
ATOM      1  C   UNL     1      17.377   6.442  21.089  0.00  0.00    +0.017 C 
ATOM      2  C   UNL     1      17.139   6.651  20.328  0.00  0.00    +0.058 C 
ATOM      3  C   UNL     1      17.405   6.218  19.679  0.00  0.00    +0.017 C 
ENDBRANCH   4   2
BRANCH  13  14
ATOM     14  C   UNL     1      13.439   8.241  19.395  0.00  0.00    +0.027 C 
BRANCH  14  15
ATOM     15  C   UNL     1      12.716   7.846  19.343  0.00  0.00    +0.088 C 
BRANCH  15  16
ATOM     16  C   UNL     1      12.024   8.218  19.590  0.00  0.00    +0.242 C 
ATOM     17  O   UNL     1      11.671   8.794  19.114  0.00  0.00    -0.273 OA
ATOM     18  N   UNL     1      11.682   8.017  20.314  0.00  0.00    -0.200 NA
BRANCH  18  19
ATOM     19  C   UNL     1      10.989   8.389  20.561  0.00  0.00    +0.148 C 
BRANCH  19  20
ATOM     20  C   UNL     1      10.778   8.383  21.359  0.00  0.00    +0.029 A 
ATOM     21  C   UNL     1      10.700   7.713  21.834  0.00  0.00    +0.004 A 
ATOM     22  C   UNL     1      10.483   7.963  22.591  0.00  0.00    +0.007 A 
ATOM     23  C   UNL     1      10.426   8.785  22.582  0.00  0.00    +0.035 A 
ATOM     24  S   UNL     1      10.609   9.046  21.821  0.00  0.00    -0.089 S 
ENDBRANCH  19  20
ENDBRANCH  18  19
ENDBRANCH  15  16
ENDBRANCH  14  15
ENDBRANCH  13  14
TORSDOF 6
ENDMDL
MODEL 9
REMARK VINA RESULT:      -6.5     14.243     15.117
REMARK  Name = 
REMARK  6 active torsions:
REMARK  status: ('A' for Active; 'I' for Inactive)
REMARK    1  A    between atoms: C_2  and  N_4
REMARK    2  A    between atoms: C_13  and  C_14
REMARK    3  A    between atoms: C_14  and  C_15
REMARK    4  A    between atoms: C_15  and  C_16
REMARK    5  A    between atoms: N_18  and  C_19
REMARK    6  A    between atoms: C_19  and  C_20
REMARK                            x       y       z     vdW  Elec       q    Type
REMARK                         _______ _______ _______ _____ _____    ______ ____
ROOT
ATOM      4  N   UNL     1      -9.179  -9.320  16.560  0.00  0.00    -0.267 NA
ATOM      5  C   UNL     1      -9.518  -9.535  15.839  0.00  0.00    +0.074 C 
ATOM      6  C   UNL     1      -8.913  -9.795  15.341  0.00  0.00    +0.035 C 
ATOM      7  C   UNL     1      -8.201  -9.741  15.754  0.00  0.00    +0.083 C 
ATOM      8  C   UNL     1      -8.366  -9.448  16.508  0.00  0.00    +0.151 C 
ATOM      9  C   UNL     1      -7.841  -9.295  17.127  0.00  0.00    +0.257 C 
ATOM     10  O   UNL     1      -8.180  -9.001  17.818  0.00  0.00    -0.272 OA
ATOM     11  N   UNL     1      -7.022  -9.397  17.144  0.00  0.00    -0.203 NA
ATOM     12  C   UNL     1      -6.527  -9.678  16.548  0.00  0.00    +0.131 C 
ATOM     13  C   UNL     1      -6.726  -9.926  15.786  0.00  0.00    +0.080 C 
ATOM     25  N   UNL     1      -7.472  -9.954  15.433  0.00  0.00    -0.271 NA
ATOM     26  C   UNL     1      -7.490 -10.230  14.657  0.00  0.00    +0.090 C 
ENDROOT
BRANCH   4   2
ATOM      1  C   UNL     1      -9.872  -9.551  17.788  0.00  0.00    +0.017 C 
ATOM      2  C   UNL     1      -9.583  -9.030  17.218  0.00  0.00    +0.058 C 
ATOM      3  C   UNL     1      -9.699  -8.218  17.306  0.00  0.00    +0.017 C 
ENDBRANCH   4   2
BRANCH  13  14
ATOM     14  C   UNL     1      -6.098 -10.178  15.316  0.00  0.00    +0.027 C 
BRANCH  14  15
ATOM     15  C   UNL     1      -5.323 -10.111  15.590  0.00  0.00    +0.088 C 
BRANCH  15  16
ATOM     16  C   UNL     1      -4.698 -10.396  15.135  0.00  0.00    +0.242 C 
ATOM     17  O   UNL     1      -4.819 -10.590  14.342  0.00  0.00    -0.273 OA
ATOM     18  N   UNL     1      -3.950 -10.488  15.472  0.00  0.00    -0.200 NA
BRANCH  18  19
ATOM     19  C   UNL     1      -3.325 -10.774  15.017  0.00  0.00    +0.148 C 
BRANCH  19  20
ATOM     20  C   UNL     1      -2.554 -10.745  15.309  0.00  0.00    +0.029 A 
ATOM     21  C   UNL     1      -2.338 -10.676  16.102  0.00  0.00    +0.004 A 
ATOM     22  C   UNL     1      -1.514 -10.668  16.142  0.00  0.00    +0.007 A 
ATOM     23  C   UNL     1      -1.220 -10.733  15.374  0.00  0.00    +0.035 A 
ATOM     24  S   UNL     1      -1.863 -10.780  14.859  0.00  0.00    -0.089 S 
ENDBRANCH  19  20
ENDBRANCH  18  19
ENDBRANCH  15  16
ENDBRANCH  14  15
ENDBRANCH  13  14
TORSDOF 6
ENDMDL
MODEL 10
REMARK VINA RESULT:      -6.3     14.281     16.108
REMARK  Name = 
REMARK  6 active torsions:
REMARK  status: ('A' for Active; 'I' for Inactive)
REMARK    1  A    between atoms: C_2  and  N_4
REMARK    2  A    between atoms: C_13  and  C_14
REMARK    3  A    between atoms: C_14  and  C_15
REMARK    4  A    between atoms: C_15  and  C_16
REMARK    5  A    between atoms: N_18  and  C_19
REMARK    6  A    between atoms: C_19  and  C_20
REMARK                            x       y       z     vdW  Elec       q    Type
REMARK                         _______ _______ _______ _____ _____    ______ ____
ROOT
ATOM      4  N   UNL     1      -6.221 -10.282  16.955  0.00  0.00    -0.267 NA
ATOM      5  C   UNL     1      -5.534 -10.453  17.379  0.00  0.00    +0.074 C 
ATOM      6  C   UNL     1      -4.919 -10.554  16.839  0.00  0.00    +0.035 C 
ATOM      7  C   UNL     1      -5.225 -10.445  16.081  0.00  0.00    +0.083 C 
ATOM      8  C   UNL     1      -6.030 -10.277  16.152  0.00  0.00    +0.151 C 
ATOM      9  C   UNL     1      -6.579 -10.125  15.555  0.00  0.00    +0.257 C 
ATOM     10  O   UNL     1      -7.349  -9.974  15.808  0.00  0.00    -0.272 OA
ATOM     11  N   UNL     1      -6.459 -10.104  14.739  0.00  0.00    -0.203 NA
ATOM     12  C   UNL     1      -5.761 -10.230  14.319  0.00  0.00    +0.131 C 
ATOM     13  C   UNL     1      -5.009 -10.407  14.610  0.00  0.00    +0.080 C 
ATOM     25  N   UNL     1      -4.771 -10.503  15.394  0.00  0.00    -0.271 NA
ATOM     26  C   UNL     1      -3.974 -10.680  15.507  0.00  0.00    +0.090 C 
ENDROOT
BRANCH   4   2
ATOM      1  C   UNL     1      -7.492 -10.765  17.392  0.00  0.00    +0.017 C 
ATOM      2  C   UNL     1      -6.967 -10.140  17.277  0.00  0.00    +0.058 C 
ATOM      3  C   UNL     1      -7.189  -9.373  17.484  0.00  0.00    +0.017 C 
ENDBRANCH   4   2
BRANCH  13  14
ATOM     14  C   UNL     1      -4.419 -10.502  14.043  0.00  0.00    +0.027 C 
BRANCH  14  15
ATOM     15  C   UNL     1      -4.604 -10.451  13.240  0.00  0.00    +0.088 C 
BRANCH  15  16
ATOM     16  C   UNL     1      -4.003 -10.455  12.677  0.00  0.00    +0.242 C 
ATOM     17  O   UNL     1      -3.267 -10.781  12.860  0.00  0.00    -0.273 OA
ATOM     18  N   UNL     1      -4.135 -10.132  11.929  0.00  0.00    -0.200 NA
BRANCH  18  19
ATOM     19  C   UNL     1      -3.534 -10.136  11.365  0.00  0.00    +0.148 C 
BRANCH  19  20
ATOM     20  C   UNL     1      -3.673  -9.831  10.611  0.00  0.00    +0.029 A 
ATOM     21  C   UNL     1      -3.918 -10.261   9.951  0.00  0.00    +0.004 A 
ATOM     22  C   UNL     1      -3.987  -9.736   9.317  0.00  0.00    +0.007 A 
ATOM     23  C   UNL     1      -3.784  -8.983   9.585  0.00  0.00    +0.035 A 
ATOM     24  S   UNL     1      -3.589  -9.041  10.385  0.00  0.00    -0.089 S 
ENDBRANCH  19  20
ENDBRANCH  18  19
ENDBRANCH  15  16
ENDBRANCH  14  15
ENDBRANCH  13  14
TORSDOF 6
ENDMDL
