MODEL 1
REMARK VINA RESULT:     -19.8      0.000      0.000
REMARK  Name = 
REMARK  3 active torsions:
REMARK  status: ('A' for Active; 'I' for Inactive)
REMARK    1  A    between atoms: O_2  and  C_3
REMARK    2  A    between atoms: C_8  and  N_9
REMARK    3  A    between atoms: C_21  and  C_26
REMARK                            x       y       z     vdW  Elec       q    Type
REMARK                         _______ _______ _______ _____ _____    ______ ____
ROOT
ATOM      9  N   UNL     1      -3.155   1.488  25.076  0.00  0.00    -0.159 NA
ATOM     10  C   UNL     1      -2.507   2.106  25.124  0.00  0.00    +0.328 C 
ATOM     11  O   UNL     1      -1.663   2.161  25.173  0.00  0.00    -0.250 OA
ATOM     12  N   UNL     1      -3.127   2.724  25.099  0.00  0.00    -0.262 N 
ATOM     13  C   UNL     1      -3.227   3.554  25.109  0.00  0.00    +0.097 C 
ATOM     14  C   UNL     1      -4.212   3.602  25.053  0.00  0.00    +0.043 C 
ATOM     15  C   UNL     1      -4.999   3.810  25.012  0.00  0.00    +0.011 C 
ATOM     16  C   UNL     1      -4.618   3.221  25.023  0.00  0.00    +0.058 C 
ATOM     17  C   UNL     1      -3.665   3.190  25.077  0.00  0.00    +0.101 C 
ATOM     18  C   UNL     1      -4.705   2.306  25.002  0.00  0.00    +0.041 A 
ATOM     19  C   UNL     1      -5.281   1.718  24.958  0.00  0.00    +0.013 A 
ATOM     20  C   UNL     1      -5.061   0.923  24.956  0.00  0.00    +0.006 A 
ATOM     21  C   UNL     1      -4.263   0.716  24.998  0.00  0.00    +0.056 A 
ATOM     22  C   UNL     1      -3.686   1.304  25.042  0.00  0.00    +0.261 A 
ATOM     23  O   UNL     1      -2.698   1.180  25.096  0.00  0.00    -0.267 OA
ATOM     24  N   UNL     1      -3.907   2.099  25.044  0.00  0.00    -0.299 N 
ATOM     25  C   UNL     1      -4.293   2.646  25.031  0.00  0.00    +0.110 C 
ENDROOT
BRANCH  21  26
ATOM     26  C   UNL     1      -4.043  -0.078  24.996  0.00  0.00    +0.005 A 
ATOM     27  C   UNL     1      -3.600  -0.385  25.622  0.00  0.00    +0.000 A 
ATOM     28  C   UNL     1      -3.380  -1.180  25.621  0.00  0.00    +0.000 A 
ATOM     29  C   UNL     1      -3.602  -1.668  24.995  0.00  0.00    +0.000 A 
ATOM     30  C   UNL     1      -3.382  -2.464  24.993  0.00  0.00    +0.000 A 
ATOM     31  C   UNL     1      -3.605  -2.952  24.366  0.00  0.00    +0.000 A 
ATOM     32  C   UNL     1      -4.047  -2.646  23.742  0.00  0.00    +0.000 A 
ATOM     33  C   UNL     1      -4.267  -1.851  23.743  0.00  0.00    +0.000 A 
ATOM     34  C   UNL     1      -4.045  -1.363  24.369  0.00  0.00    +0.000 A 
ATOM     35  C   UNL     1      -4.265  -0.567  24.370  0.00  0.00    +0.000 A 
ENDBRANCH  21  26
BRANCH   9   8
ATOM      3  C   UNL     1      -2.257   0.419  24.466  0.00  0.00    +0.154 A 
ATOM      4  C   UNL     1      -1.905  -0.323  24.396  0.00  0.00    +0.038 A 
ATOM      5  C   UNL     1      -2.083  -0.917  24.941  0.00  0.00    +0.003 A 
ATOM      6  C   UNL     1      -2.613  -0.769  25.555  0.00  0.00    +0.002 A 
ATOM      7  C   UNL     1      -2.872   0.087  25.443  0.00  0.00    +0.020 A 
ATOM      8  C   UNL     1      -2.788   0.568  25.080  0.00  0.00    +0.109 A 
BRANCH   3   2
ATOM      1  C   UNL     1      -1.526   0.873  23.325  0.00  0.00    +0.253 C 
ATOM      2  O   UNL     1      -2.079   1.013  23.921  0.00  0.00    -0.470 OA
ENDBRANCH   3   2
ENDBRANCH   9   8
TORSDOF 3
ENDMDL
MODEL 2
REMARK VINA RESULT:     -18.5      1.266      3.950
REMARK  Name = 
REMARK  3 active torsions:
REMARK  status: ('A' for Active; 'I' for Inactive)
REMARK    1  A    between atoms: O_2  and  C_3
REMARK    2  A    between atoms: C_8  and  N_9
REMARK    3  A    between atoms: C_21  and  C_26
REMARK                            x       y       z     vdW  Elec       q    Type
REMARK                         _______ _______ _______ _____ _____    ______ ____
ROOT
ATOM      9  N   UNL     1      -2.341  -0.257  24.327  0.00  0.00    -0.159 NA
ATOM     10  C   UNL     1      -1.537  -0.654  24.337  0.00  0.00    +0.328 C 
ATOM     11  O   UNL     1      -0.716  -0.461  24.262  0.00  0.00    -0.250 OA
ATOM     12  N   UNL     1      -1.943  -1.419  24.468  0.00  0.00    -0.262 N 
ATOM     13  C   UNL     1      -1.789  -2.233  24.574  0.00  0.00    +0.097 C 
ATOM     14  C   UNL     1      -2.714  -2.565  24.675  0.00  0.00    +0.043 C 
ATOM     15  C   UNL     1      -3.402  -2.990  24.774  0.00  0.00    +0.011 C 
ATOM     16  C   UNL     1      -3.216  -2.322  24.669  0.00  0.00    +0.058 C 
ATOM     17  C   UNL     1      -2.316  -2.017  24.574  0.00  0.00    +0.101 C 
ATOM     18  C   UNL     1      -3.574  -1.481  24.570  0.00  0.00    +0.041 A 
ATOM     19  C   UNL     1      -4.301  -1.091  24.557  0.00  0.00    +0.013 A 
ATOM     20  C   UNL     1      -4.329  -0.275  24.443  0.00  0.00    +0.006 A 
ATOM     21  C   UNL     1      -3.630   0.152  24.343  0.00  0.00    +0.056 A 
ATOM     22  C   UNL     1      -2.903  -0.237  24.356  0.00  0.00    +0.261 A 
ATOM     23  O   UNL     1      -1.998   0.167  24.247  0.00  0.00    -0.267 OA
ATOM     24  N   UNL     1      -2.875  -1.053  24.470  0.00  0.00    -0.299 N 
ATOM     25  C   UNL     1      -3.079  -1.683  24.571  0.00  0.00    +0.110 C 
ENDROOT
BRANCH  21  26
ATOM     26  C   UNL     1      -3.659   0.969  24.229  0.00  0.00    +0.005 A 
ATOM     27  C   UNL     1      -3.321   1.303  23.555  0.00  0.00    +0.000 A 
ATOM     28  C   UNL     1      -3.350   2.119  23.440  0.00  0.00    +0.000 A 
ATOM     29  C   UNL     1      -3.717   2.601  24.000  0.00  0.00    +0.000 A 
ATOM     30  C   UNL     1      -3.746   3.419  23.885  0.00  0.00    +0.000 A 
ATOM     31  C   UNL     1      -4.114   3.900  24.445  0.00  0.00    +0.000 A 
ATOM     32  C   UNL     1      -4.452   3.566  25.119  0.00  0.00    +0.000 A 
ATOM     33  C   UNL     1      -4.424   2.750  25.233  0.00  0.00    +0.000 A 
ATOM     34  C   UNL     1      -4.056   2.268  24.674  0.00  0.00    +0.000 A 
ATOM     35  C   UNL     1      -4.027   1.451  24.788  0.00  0.00    +0.000 A 
ENDBRANCH  21  26
BRANCH   9   8
ATOM      3  C   UNL     1      -1.811   1.106  24.752  0.00  0.00    +0.154 A 
ATOM      4  C   UNL     1      -1.698   1.922  24.708  0.00  0.00    +0.038 A 
ATOM      5  C   UNL     1      -2.043   2.353  24.094  0.00  0.00    +0.003 A 
ATOM      6  C   UNL     1      -2.499   1.968  23.525  0.00  0.00    +0.002 A 
ATOM      7  C   UNL     1      -2.490   1.099  23.762  0.00  0.00    +0.020 A 
ATOM      8  C   UNL     1      -2.267   0.721  24.184  0.00  0.00    +0.109 A 
BRANCH   3   2
ATOM      1  C   UNL     1      -0.973   1.053  25.910  0.00  0.00    +0.253 C 
ATOM      2  O   UNL     1      -1.466   0.675  25.366  0.00  0.00    -0.470 OA
ENDBRANCH   3   2
ENDBRANCH   9   8
TORSDOF 3
ENDMDL
MODEL 3
REMARK VINA RESULT:     -17.9      1.093      2.350
REMARK  Name = 
REMARK  3 active torsions:
REMARK  status: ('A' for Active; 'I' for Inactive)
REMARK    1  A    between atoms: O_2  and  C_3
REMARK    2  A    between atoms: C_8  and  N_9
REMARK    3  A    between atoms: C_21  and  C_26
REMARK                            x       y       z     vdW  Elec       q    Type
REMARK                         _______ _______ _______ _____ _____    ______ ____
ROOT
ATOM      9  N   UNL     1      -3.230   2.206  24.645  0.00  0.00    -0.159 NA
ATOM     10  C   UNL     1      -3.742   2.921  24.470  0.00  0.00    +0.328 C 
ATOM     11  O   UNL     1      -4.513   3.112  24.176  0.00  0.00    -0.250 OA
ATOM     12  N   UNL     1      -3.085   3.431  24.745  0.00  0.00    -0.262 N 
ATOM     13  C   UNL     1      -2.878   4.233  24.854  0.00  0.00    +0.097 C 
ATOM     14  C   UNL     1      -1.962   4.120  25.208  0.00  0.00    +0.043 C 
ATOM     15  C   UNL     1      -1.208   4.198  25.506  0.00  0.00    +0.011 C 
ATOM     16  C   UNL     1      -1.641   3.678  25.319  0.00  0.00    +0.058 C 
ATOM     17  C   UNL     1      -2.524   3.803  24.978  0.00  0.00    +0.101 C 
ATOM     18  C   UNL     1      -1.687   2.762  25.268  0.00  0.00    +0.041 A 
ATOM     19  C   UNL     1      -1.236   2.088  25.421  0.00  0.00    +0.013 A 
ATOM     20  C   UNL     1      -1.550   1.340  25.272  0.00  0.00    +0.006 A 
ATOM     21  C   UNL     1      -2.314   1.265  24.970  0.00  0.00    +0.056 A 
ATOM     22  C   UNL     1      -2.765   1.939  24.818  0.00  0.00    +0.261 A 
ATOM     23  O   UNL     1      -3.694   1.977  24.456  0.00  0.00    -0.267 OA
ATOM     24  N   UNL     1      -2.452   2.687  24.967  0.00  0.00    -0.299 N 
ATOM     25  C   UNL     1      -2.020   3.164  25.152  0.00  0.00    +0.110 C 
ENDROOT
BRANCH  21  26
ATOM     26  C   UNL     1      -2.627   0.517  24.822  0.00  0.00    +0.005 A 
ATOM     27  C   UNL     1      -2.896   0.325  24.065  0.00  0.00    +0.000 A 
ATOM     28  C   UNL     1      -3.209  -0.423  23.916  0.00  0.00    +0.000 A 
ATOM     29  C   UNL     1      -3.253  -0.980  24.523  0.00  0.00    +0.000 A 
ATOM     30  C   UNL     1      -3.566  -1.730  24.373  0.00  0.00    +0.000 A 
ATOM     31  C   UNL     1      -3.609  -2.287  24.981  0.00  0.00    +0.000 A 
ATOM     32  C   UNL     1      -3.341  -2.095  25.736  0.00  0.00    +0.000 A 
ATOM     33  C   UNL     1      -3.028  -1.347  25.886  0.00  0.00    +0.000 A 
ATOM     34  C   UNL     1      -2.984  -0.790  25.279  0.00  0.00    +0.000 A 
ATOM     35  C   UNL     1      -2.671  -0.040  25.428  0.00  0.00    +0.000 A 
ENDBRANCH  21  26
BRANCH   9   8
ATOM      3  C   UNL     1      -4.410   1.262  24.834  0.00  0.00    +0.154 A 
ATOM      4  C   UNL     1      -4.862   0.583  24.715  0.00  0.00    +0.038 A 
ATOM      5  C   UNL     1      -4.600  -0.001  24.194  0.00  0.00    +0.003 A 
ATOM      6  C   UNL     1      -3.886   0.094  23.793  0.00  0.00    +0.002 A 
ATOM      7  C   UNL     1      -3.564   0.891  24.066  0.00  0.00    +0.020 A 
ATOM      8  C   UNL     1      -3.696   1.358  24.433  0.00  0.00    +0.109 A 
BRANCH   3   2
ATOM      1  C   UNL     1      -5.408   1.772  25.721  0.00  0.00    +0.253 C 
ATOM      2  O   UNL     1      -4.672   1.846  25.355  0.00  0.00    -0.470 OA
ENDBRANCH   3   2
ENDBRANCH   9   8
TORSDOF 3
ENDMDL
MODEL 4
REMARK VINA RESULT:     -16.9      1.423      4.351
REMARK  Name = 
REMARK  3 active torsions:
REMARK  status: ('A' for Active; 'I' for Inactive)
REMARK    1  A    between atoms: O_2  and  C_3
REMARK    2  A    between atoms: C_8  and  N_9
REMARK    3  A    between atoms: C_21  and  C_26
REMARK                            x       y       z     vdW  Elec       q    Type
REMARK                         _______ _______ _______ _____ _____    ______ ____
ROOT
ATOM      9  N   UNL     1      -3.529   1.490  24.867  0.00  0.00    -0.159 NA
ATOM     10  C   UNL     1      -4.369   1.243  24.672  0.00  0.00    +0.328 C 
ATOM     11  O   UNL     1      -5.128   1.586  24.518  0.00  0.00    -0.250 OA
ATOM     12  N   UNL     1      -4.105   0.408  24.699  0.00  0.00    -0.262 N 
ATOM     13  C   UNL     1      -4.388  -0.372  24.606  0.00  0.00    +0.097 C 
ATOM     14  C   UNL     1      -3.552  -0.872  24.772  0.00  0.00    +0.043 C 
ATOM     15  C   UNL     1      -2.960  -1.421  24.882  0.00  0.00    +0.011 C 
ATOM     16  C   UNL     1      -3.028  -0.722  24.893  0.00  0.00    +0.058 C 
ATOM     17  C   UNL     1      -3.845  -0.254  24.731  0.00  0.00    +0.101 C 
ATOM     18  C   UNL     1      -2.545   0.047  25.029  0.00  0.00    +0.041 A 
ATOM     19  C   UNL     1      -1.781   0.300  25.208  0.00  0.00    +0.013 A 
ATOM     20  C   UNL     1      -1.618   1.106  25.274  0.00  0.00    +0.006 A 
ATOM     21  C   UNL     1      -2.220   1.659  25.162  0.00  0.00    +0.056 A 
ATOM     22  C   UNL     1      -2.985   1.406  24.984  0.00  0.00    +0.261 A 
ATOM     23  O   UNL     1      -3.790   1.974  24.828  0.00  0.00    -0.267 OA
ATOM     24  N   UNL     1      -3.147   0.600  24.917  0.00  0.00    -0.299 N 
ATOM     25  C   UNL     1      -3.055  -0.063  24.912  0.00  0.00    +0.110 C 
ENDROOT
BRANCH  21  26
ATOM     26  C   UNL     1      -2.057   2.465  25.229  0.00  0.00    +0.005 A 
ATOM     27  C   UNL     1      -2.496   2.933  25.748  0.00  0.00    +0.000 A 
ATOM     28  C   UNL     1      -2.334   3.739  25.815  0.00  0.00    +0.000 A 
ATOM     29  C   UNL     1      -1.732   4.077  25.364  0.00  0.00    +0.000 A 
ATOM     30  C   UNL     1      -1.569   4.884  25.431  0.00  0.00    +0.000 A 
ATOM     31  C   UNL     1      -0.967   5.221  24.979  0.00  0.00    +0.000 A 
ATOM     32  C   UNL     1      -0.528   4.754  24.461  0.00  0.00    +0.000 A 
ATOM     33  C   UNL     1      -0.691   3.948  24.393  0.00  0.00    +0.000 A 
ATOM     34  C   UNL     1      -1.292   3.610  24.845  0.00  0.00    +0.000 A 
ATOM     35  C   UNL     1      -1.455   2.803  24.778  0.00  0.00    +0.000 A 
ENDBRANCH  21  26
BRANCH   9   8
ATOM      3  C   UNL     1      -3.614   2.867  24.221  0.00  0.00    +0.154 A 
ATOM      4  C   UNL     1      -3.564   3.689  24.182  0.00  0.00    +0.038 A 
ATOM      5  C   UNL     1      -3.338   4.120  24.848  0.00  0.00    +0.003 A 
ATOM      6  C   UNL     1      -3.162   3.729  25.553  0.00  0.00    +0.002 A 
ATOM      7  C   UNL     1      -3.279   2.853  25.374  0.00  0.00    +0.020 A 
ATOM      8  C   UNL     1      -3.439   2.475  24.924  0.00  0.00    +0.109 A 
BRANCH   3   2
ATOM      1  C   UNL     1      -3.988   2.825  22.841  0.00  0.00    +0.253 C 
ATOM      2  O   UNL     1      -3.840   2.435  23.554  0.00  0.00    -0.470 OA
ENDBRANCH   3   2
ENDBRANCH   9   8
TORSDOF 3
ENDMDL
MODEL 5
REMARK VINA RESULT:     -16.8      1.419      2.404
REMARK  Name = 
REMARK  3 active torsions:
REMARK  status: ('A' for Active; 'I' for Inactive)
REMARK    1  A    between atoms: O_2  and  C_3
REMARK    2  A    between atoms: C_8  and  N_9
REMARK    3  A    between atoms: C_21  and  C_26
REMARK                            x       y       z     vdW  Elec       q    Type
REMARK                         _______ _______ _______ _____ _____    ______ ____
ROOT
ATOM      9  N   UNL     1      -1.607   2.694  24.511  0.00  0.00    -0.159 NA
ATOM     10  C   UNL     1      -0.736   2.903  24.483  0.00  0.00    +0.328 C 
ATOM     11  O   UNL     1       0.012   2.551  24.298  0.00  0.00    -0.250 OA
ATOM     12  N   UNL     1      -0.945   3.711  24.750  0.00  0.00    -0.262 N 
ATOM     13  C   UNL     1      -0.602   4.449  24.938  0.00  0.00    +0.097 C 
ATOM     14  C   UNL     1      -1.417   4.955  25.177  0.00  0.00    +0.043 C 
ATOM     15  C   UNL     1      -1.981   5.499  25.401  0.00  0.00    +0.011 C 
ATOM     16  C   UNL     1      -1.960   4.828  25.195  0.00  0.00    +0.058 C 
ATOM     17  C   UNL     1      -1.163   4.353  24.968  0.00  0.00    +0.101 C 
ATOM     18  C   UNL     1      -2.506   4.107  25.033  0.00  0.00    +0.041 A 
ATOM     19  C   UNL     1      -3.302   3.889  25.050  0.00  0.00    +0.013 A 
ATOM     20  C   UNL     1      -3.524   3.122  24.841  0.00  0.00    +0.006 A 
ATOM     21  C   UNL     1      -2.950   2.574  24.615  0.00  0.00    +0.056 A 
ATOM     22  C   UNL     1      -2.155   2.791  24.598  0.00  0.00    +0.261 A 
ATOM     23  O   UNL     1      -1.377   2.222  24.344  0.00  0.00    -0.267 OA
ATOM     24  N   UNL     1      -1.933   3.558  24.807  0.00  0.00    -0.299 N 
ATOM     25  C   UNL     1      -1.980   4.196  25.005  0.00  0.00    +0.110 C 
ENDROOT
BRANCH  21  26
ATOM     26  C   UNL     1      -3.173   1.808  24.406  0.00  0.00    +0.005 A 
ATOM     27  C   UNL     1      -2.993   1.516  23.655  0.00  0.00    +0.000 A 
ATOM     28  C   UNL     1      -3.215   0.750  23.446  0.00  0.00    +0.000 A 
ATOM     29  C   UNL     1      -3.618   0.276  23.986  0.00  0.00    +0.000 A 
ATOM     30  C   UNL     1      -3.841  -0.491  23.776  0.00  0.00    +0.000 A 
ATOM     31  C   UNL     1      -4.245  -0.966  24.318  0.00  0.00    +0.000 A 
ATOM     32  C   UNL     1      -4.425  -0.675  25.068  0.00  0.00    +0.000 A 
ATOM     33  C   UNL     1      -4.202   0.091  25.278  0.00  0.00    +0.000 A 
ATOM     34  C   UNL     1      -3.799   0.566  24.737  0.00  0.00    +0.000 A 
ATOM     35  C   UNL     1      -3.576   1.333  24.947  0.00  0.00    +0.000 A 
ENDBRANCH  21  26
BRANCH   9   8
ATOM      3  C   UNL     1      -1.390   1.201  24.723  0.00  0.00    +0.154 A 
ATOM      4  C   UNL     1      -1.472   0.395  24.569  0.00  0.00    +0.038 A 
ATOM      5  C   UNL     1      -1.934   0.142  23.934  0.00  0.00    +0.003 A 
ATOM      6  C   UNL     1      -2.313   0.694  23.454  0.00  0.00    +0.002 A 
ATOM      7  C   UNL     1      -2.092   1.498  23.795  0.00  0.00    +0.020 A 
ATOM      8  C   UNL     1      -1.769   1.754  24.243  0.00  0.00    +0.109 A 
BRANCH   3   2
ATOM      1  C   UNL     1      -0.560   0.902  25.848  0.00  0.00    +0.253 C 
ATOM      2  O   UNL     1      -0.927   1.455  25.358  0.00  0.00    -0.470 OA
ENDBRANCH   3   2
ENDBRANCH   9   8
TORSDOF 3
ENDMDL
MODEL 6
REMARK VINA RESULT:     -16.8      1.881      3.923
REMARK  Name = 
REMARK  3 active torsions:
REMARK  status: ('A' for Active; 'I' for Inactive)
REMARK    1  A    between atoms: O_2  and  C_3
REMARK    2  A    between atoms: C_8  and  N_9
REMARK    3  A    between atoms: C_21  and  C_26
REMARK                            x       y       z     vdW  Elec       q    Type
REMARK                         _______ _______ _______ _____ _____    ______ ____
ROOT
ATOM      9  N   UNL     1      -3.607   1.932  24.825  0.00  0.00    -0.159 NA
ATOM     10  C   UNL     1      -3.777   1.124  24.475  0.00  0.00    +0.328 C 
ATOM     11  O   UNL     1      -3.377   0.486  24.087  0.00  0.00    -0.250 OA
ATOM     12  N   UNL     1      -4.618   1.229  24.699  0.00  0.00    -0.262 N 
ATOM     13  C   UNL     1      -5.358   0.843  24.669  0.00  0.00    +0.097 C 
ATOM     14  C   UNL     1      -5.919   1.526  25.111  0.00  0.00    +0.043 C 
ATOM     15  C   UNL     1      -6.506   1.978  25.449  0.00  0.00    +0.011 C 
ATOM     16  C   UNL     1      -5.817   2.029  25.330  0.00  0.00    +0.058 C 
ATOM     17  C   UNL     1      -5.288   1.359  24.901  0.00  0.00    +0.101 C 
ATOM     18  C   UNL     1      -5.104   2.596  25.453  0.00  0.00    +0.041 A 
ATOM     19  C   UNL     1      -4.921   3.336  25.768  0.00  0.00    +0.013 A 
ATOM     20  C   UNL     1      -4.146   3.616  25.741  0.00  0.00    +0.006 A 
ATOM     21  C   UNL     1      -3.553   3.155  25.398  0.00  0.00    +0.056 A 
ATOM     22  C   UNL     1      -3.735   2.415  25.083  0.00  0.00    +0.261 A 
ATOM     23  O   UNL     1      -3.111   1.772  24.646  0.00  0.00    -0.267 OA
ATOM     24  N   UNL     1      -4.511   2.136  25.110  0.00  0.00    -0.299 N 
ATOM     25  C   UNL     1      -5.168   2.112  25.235  0.00  0.00    +0.110 C 
ENDROOT
BRANCH  21  26
ATOM     26  C   UNL     1      -2.778   3.436  25.371  0.00  0.00    +0.005 A 
ATOM     27  C   UNL     1      -2.163   2.978  25.678  0.00  0.00    +0.000 A 
ATOM     28  C   UNL     1      -1.388   3.258  25.651  0.00  0.00    +0.000 A 
ATOM     29  C   UNL     1      -1.227   3.995  25.318  0.00  0.00    +0.000 A 
ATOM     30  C   UNL     1      -0.450   4.275  25.291  0.00  0.00    +0.000 A 
ATOM     31  C   UNL     1      -0.290   5.013  24.958  0.00  0.00    +0.000 A 
ATOM     32  C   UNL     1      -0.904   5.470  24.652  0.00  0.00    +0.000 A 
ATOM     33  C   UNL     1      -1.679   5.190  24.678  0.00  0.00    +0.000 A 
ATOM     34  C   UNL     1      -1.840   4.453  25.011  0.00  0.00    +0.000 A 
ATOM     35  C   UNL     1      -2.617   4.173  25.038  0.00  0.00    +0.000 A 
ENDBRANCH  21  26
BRANCH   9   8
ATOM      3  C   UNL     1      -2.381   2.205  23.964  0.00  0.00    +0.154 A 
ATOM      4  C   UNL     1      -1.595   2.400  23.806  0.00  0.00    +0.038 A 
ATOM      5  C   UNL     1      -1.078   2.565  24.428  0.00  0.00    +0.003 A 
ATOM      6  C   UNL     1      -1.347   2.535  25.207  0.00  0.00    +0.002 A 
ATOM      7  C   UNL     1      -2.217   2.307  25.150  0.00  0.00    +0.020 A 
ATOM      8  C   UNL     1      -2.651   2.175  24.743  0.00  0.00    +0.109 A 
BRANCH   3   2
ATOM      1  C   UNL     1      -2.626   2.061  22.563  0.00  0.00    +0.253 C 
ATOM      2  O   UNL     1      -2.898   2.040  23.342  0.00  0.00    -0.470 OA
ENDBRANCH   3   2
ENDBRANCH   9   8
TORSDOF 3
ENDMDL
MODEL 7
REMARK VINA RESULT:     -16.3      1.517      2.640
REMARK  Name = 
REMARK  3 active torsions:
REMARK  status: ('A' for Active; 'I' for Inactive)
REMARK    1  A    between atoms: O_2  and  C_3
REMARK    2  A    between atoms: C_8  and  N_9
REMARK    3  A    between atoms: C_21  and  C_26
REMARK                            x       y       z     vdW  Elec       q    Type
REMARK                         _______ _______ _______ _____ _____    ______ ____
ROOT
ATOM      9  N   UNL     1      -3.603   2.538  24.745  0.00  0.00    -0.159 NA
ATOM     10  C   UNL     1      -3.812   3.402  24.865  0.00  0.00    +0.328 C 
ATOM     11  O   UNL     1      -3.467   4.172  24.784  0.00  0.00    -0.250 OA
ATOM     12  N   UNL     1      -4.607   3.150  25.133  0.00  0.00    -0.262 N 
ATOM     13  C   UNL     1      -5.334   3.455  25.407  0.00  0.00    +0.097 C 
ATOM     14  C   UNL     1      -5.830   2.609  25.537  0.00  0.00    +0.043 C 
ATOM     15  C   UNL     1      -6.364   2.015  25.694  0.00  0.00    +0.011 C 
ATOM     16  C   UNL     1      -5.703   2.071  25.464  0.00  0.00    +0.058 C 
ATOM     17  C   UNL     1      -5.238   2.896  25.343  0.00  0.00    +0.101 C 
ATOM     18  C   UNL     1      -4.992   1.561  25.185  0.00  0.00    +0.041 A 
ATOM     19  C   UNL     1      -4.775   0.774  25.066  0.00  0.00    +0.013 A 
ATOM     20  C   UNL     1      -4.020   0.592  24.789  0.00  0.00    +0.006 A 
ATOM     21  C   UNL     1      -3.481   1.197  24.631  0.00  0.00    +0.056 A 
ATOM     22  C   UNL     1      -3.698   1.984  24.749  0.00  0.00    +0.261 A 
ATOM     23  O   UNL     1      -3.139   2.795  24.595  0.00  0.00    -0.267 OA
ATOM     24  N   UNL     1      -4.453   2.166  25.026  0.00  0.00    -0.299 N 
ATOM     25  C   UNL     1      -5.081   2.085  25.244  0.00  0.00    +0.110 C 
ENDROOT
BRANCH  21  26
ATOM     26  C   UNL     1      -2.726   1.013  24.354  0.00  0.00    +0.005 A 
ATOM     27  C   UNL     1      -2.452   1.349  23.651  0.00  0.00    +0.000 A 
ATOM     28  C   UNL     1      -1.697   1.166  23.373  0.00  0.00    +0.000 A 
ATOM     29  C   UNL     1      -1.216   0.648  23.798  0.00  0.00    +0.000 A 
ATOM     30  C   UNL     1      -0.460   0.465  23.520  0.00  0.00    +0.000 A 
ATOM     31  C   UNL     1       0.021  -0.053  23.946  0.00  0.00    +0.000 A 
ATOM     32  C   UNL     1      -0.253  -0.388  24.648  0.00  0.00    +0.000 A 
ATOM     33  C   UNL     1      -1.008  -0.205  24.925  0.00  0.00    +0.000 A 
ATOM     34  C   UNL     1      -1.489   0.312  24.501  0.00  0.00    +0.000 A 
ATOM     35  C   UNL     1      -2.245   0.496  24.778  0.00  0.00    +0.000 A 
ENDBRANCH  21  26
BRANCH   9   8
ATOM      3  C   UNL     1      -2.102   2.737  24.914  0.00  0.00    +0.154 A 
ATOM      4  C   UNL     1      -1.305   2.686  24.712  0.00  0.00    +0.038 A 
ATOM      5  C   UNL     1      -1.082   2.323  24.005  0.00  0.00    +0.003 A 
ATOM      6  C   UNL     1      -1.656   2.011  23.502  0.00  0.00    +0.002 A 
ATOM      7  C   UNL     1      -2.443   2.174  23.910  0.00  0.00    +0.020 A 
ATOM      8  C   UNL     1      -2.677   2.426  24.412  0.00  0.00    +0.109 A 
BRANCH   3   2
ATOM      1  C   UNL     1      -1.752   3.429  26.116  0.00  0.00    +0.253 C 
ATOM      2  O   UNL     1      -2.326   3.100  25.621  0.00  0.00    -0.470 OA
ENDBRANCH   3   2
ENDBRANCH   9   8
TORSDOF 3
ENDMDL
