MODEL 1
REMARK VINA RESULT:      -9.6      0.000      0.000
REMARK  Name = 
REMARK  7 active torsions:
REMARK  status: ('A' for Active; 'I' for Inactive)
REMARK    1  A    between atoms: C_3  and  C_4
REMARK    2  A    between atoms: C_4  and  N_5
REMARK    3  A    between atoms: N_5  and  S_6
REMARK    4  A    between atoms: S_6  and  C_9
REMARK    5  A    between atoms: C_17  and  N_18
REMARK    6  A    between atoms: N_18  and  C_19
REMARK    7  A    between atoms: C_19  and  C_20
REMARK                            x       y       z     vdW  Elec       q    Type
REMARK                         _______ _______ _______ _____ _____    ______ ____
ROOT
ATOM      1  O   UNL     1      -1.435   1.626  24.940  0.00  0.00    -0.219 OA
ATOM      2  C   UNL     1      -2.202   1.927  24.964  0.00  0.00    +0.199 C 
ATOM      3  C   UNL     1      -2.898   1.486  24.913  0.00  0.00    +0.166 C 
ATOM     15  O   UNL     1      -3.534   2.009  24.961  0.00  0.00    -0.350 OA
ATOM     16  C   UNL     1      -3.232   2.772  25.043  0.00  0.00    +0.162 C 
ATOM     17  C   UNL     1      -2.409   2.722  25.045  0.00  0.00    +0.135 C 
ENDROOT
BRANCH   3   4
ATOM      4  C   UNL     1      -2.948   0.667  24.827  0.00  0.00    +0.148 C 
BRANCH   4   5
ATOM      5  N   UNL     1      -3.687   0.304  24.768  0.00  0.00    -0.075 NA
BRANCH   5   6
ATOM      6  S   UNL     1      -3.736  -0.511  24.646  0.00  0.00    +0.077 S 
ATOM      7  O   UNL     1      -3.676  -0.394  23.832  0.00  0.00    -0.152 OA
ATOM      8  O   UNL     1      -3.795  -0.629  25.460  0.00  0.00    -0.152 OA
BRANCH   6   9
ATOM      9  C   UNL     1      -3.785  -1.326  24.525  0.00  0.00    +0.124 A 
ATOM     10  C   UNL     1      -4.247  -1.624  23.910  0.00  0.00    +0.020 A 
ATOM     11  C   UNL     1      -4.297  -2.438  23.789  0.00  0.00    +0.001 A 
ATOM     12  C   UNL     1      -3.885  -2.955  24.282  0.00  0.00    +0.000 A 
ATOM     13  C   UNL     1      -3.422  -2.656  24.897  0.00  0.00    +0.001 A 
ATOM     14  C   UNL     1      -3.372  -1.842  25.018  0.00  0.00    +0.020 A 
ENDBRANCH   6   9
ENDBRANCH   5   6
ENDBRANCH   4   5
ENDBRANCH   3   4
BRANCH  17  18
ATOM     18  N   UNL     1      -1.884   3.355  25.115  0.00  0.00    -0.214 NA
BRANCH  18  19
ATOM     19  C   UNL     1      -2.169   4.128  25.110  0.00  0.00    +0.089 C 
BRANCH  19  20
ATOM     20  C   UNL     1      -1.641   4.761  25.066  0.00  0.00    +0.017 C 
ATOM     21  C   UNL     1      -1.496   5.574  25.088  0.00  0.00    +0.001 C 
ATOM     22  C   UNL     1      -0.873   5.046  24.967  0.00  0.00    +0.001 C 
ENDBRANCH  19  20
ENDBRANCH  18  19
ENDBRANCH  17  18
TORSDOF 7
ENDMDL
MODEL 2
REMARK VINA RESULT:      -8.9      1.268      5.475
REMARK  Name = 
REMARK  7 active torsions:
REMARK  status: ('A' for Active; 'I' for Inactive)
REMARK    1  A    between atoms: C_3  and  C_4
REMARK    2  A    between atoms: C_4  and  N_5
REMARK    3  A    between atoms: N_5  and  S_6
REMARK    4  A    between atoms: S_6  and  C_9
REMARK    5  A    between atoms: C_17  and  N_18
REMARK    6  A    between atoms: N_18  and  C_19
REMARK    7  A    between atoms: C_19  and  C_20
REMARK                            x       y       z     vdW  Elec       q    Type
REMARK                         _______ _______ _______ _____ _____    ______ ____
ROOT
ATOM      1  O   UNL     1      -1.903   0.241  24.261  0.00  0.00    -0.219 OA
ATOM      2  C   UNL     1      -2.658   0.437  24.527  0.00  0.00    +0.199 C 
ATOM      3  C   UNL     1      -2.922   1.194  24.724  0.00  0.00    +0.166 C 
ATOM     15  O   UNL     1      -3.710   1.135  24.962  0.00  0.00    -0.350 OA
ATOM     16  C   UNL     1      -3.933   0.342  24.912  0.00  0.00    +0.162 C 
ATOM     17  C   UNL     1      -3.283  -0.089  24.644  0.00  0.00    +0.135 C 
ENDROOT
BRANCH   3   4
ATOM      4  C   UNL     1      -2.476   1.887  24.689  0.00  0.00    +0.148 C 
BRANCH   4   5
ATOM      5  N   UNL     1      -2.715   2.552  25.115  0.00  0.00    -0.075 NA
BRANCH   5   6
ATOM      6  S   UNL     1      -2.265   3.243  25.086  0.00  0.00    +0.077 S 
ATOM      7  O   UNL     1      -2.571   3.412  24.339  0.00  0.00    -0.152 OA
ATOM      8  O   UNL     1      -1.958   3.075  25.833  0.00  0.00    -0.152 OA
BRANCH   6   9
ATOM      9  C   UNL     1      -1.815   3.934  25.057  0.00  0.00    +0.124 A 
ATOM     10  C   UNL     1      -2.161   4.660  25.240  0.00  0.00    +0.020 A 
ATOM     11  C   UNL     1      -1.711   5.351  25.211  0.00  0.00    +0.001 A 
ATOM     12  C   UNL     1      -0.915   5.316  24.999  0.00  0.00    +0.000 A 
ATOM     13  C   UNL     1      -0.568   4.590  24.816  0.00  0.00    +0.001 A 
ATOM     14  C   UNL     1      -1.018   3.899  24.845  0.00  0.00    +0.020 A 
ENDBRANCH   6   9
ENDBRANCH   5   6
ENDBRANCH   4   5
ENDBRANCH   3   4
BRANCH  17  18
ATOM     18  N   UNL     1      -3.262  -0.904  24.514  0.00  0.00    -0.214 NA
BRANCH  18  19
ATOM     19  C   UNL     1      -3.963  -1.321  24.393  0.00  0.00    +0.089 C 
BRANCH  19  20
ATOM     20  C   UNL     1      -3.940  -2.133  24.250  0.00  0.00    +0.017 C 
ATOM     21  C   UNL     1      -4.233  -2.798  23.859  0.00  0.00    +0.001 C 
ATOM     22  C   UNL     1      -3.609  -2.875  24.394  0.00  0.00    +0.001 C 
ENDBRANCH  19  20
ENDBRANCH  18  19
ENDBRANCH  17  18
TORSDOF 7
ENDMDL
MODEL 3
REMARK VINA RESULT:      -7.3      2.725      4.056
REMARK  Name = 
REMARK  7 active torsions:
REMARK  status: ('A' for Active; 'I' for Inactive)
REMARK    1  A    between atoms: C_3  and  C_4
REMARK    2  A    between atoms: C_4  and  N_5
REMARK    3  A    between atoms: N_5  and  S_6
REMARK    4  A    between atoms: S_6  and  C_9
REMARK    5  A    between atoms: C_17  and  N_18
REMARK    6  A    between atoms: N_18  and  C_19
REMARK    7  A    between atoms: C_19  and  C_20
REMARK                            x       y       z     vdW  Elec       q    Type
REMARK                         _______ _______ _______ _____ _____    ______ ____
ROOT
ATOM      1  O   UNL     1      -0.656   1.958  24.001  0.00  0.00    -0.219 OA
ATOM      2  C   UNL     1      -0.852   1.159  24.052  0.00  0.00    +0.199 C 
ATOM      3  C   UNL     1      -1.586   0.853  24.275  0.00  0.00    +0.166 C 
ATOM     15  O   UNL     1      -1.537   0.030  24.249  0.00  0.00    -0.350 OA
ATOM     16  C   UNL     1      -0.774  -0.173  24.009  0.00  0.00    +0.162 C 
ATOM     17  C   UNL     1      -0.351   0.525  23.887  0.00  0.00    +0.135 C 
ENDROOT
BRANCH   3   4
ATOM      4  C   UNL     1      -2.250   1.293  24.487  0.00  0.00    +0.148 C 
BRANCH   4   5
ATOM      5  N   UNL     1      -3.006   0.985  24.362  0.00  0.00    -0.075 NA
BRANCH   5   6
ATOM      6  S   UNL     1      -3.669   1.411  24.605  0.00  0.00    +0.077 S 
ATOM      7  O   UNL     1      -3.716   1.765  23.861  0.00  0.00    -0.152 OA
ATOM      8  O   UNL     1      -3.623   1.058  25.349  0.00  0.00    -0.152 OA
BRANCH   6   9
ATOM      9  C   UNL     1      -4.333   1.837  24.848  0.00  0.00    +0.124 A 
ATOM     10  C   UNL     1      -5.064   1.460  24.913  0.00  0.00    +0.020 A 
ATOM     11  C   UNL     1      -5.727   1.884  25.156  0.00  0.00    +0.001 A 
ATOM     12  C   UNL     1      -5.661   2.687  25.335  0.00  0.00    +0.000 A 
ATOM     13  C   UNL     1      -4.930   3.064  25.271  0.00  0.00    +0.001 A 
ATOM     14  C   UNL     1      -4.266   2.640  25.027  0.00  0.00    +0.020 A 
ENDBRANCH   6   9
ENDBRANCH   5   6
ENDBRANCH   4   5
ENDBRANCH   3   4
BRANCH  17  18
ATOM     18  N   UNL     1       0.436   0.579  23.644  0.00  0.00    -0.214 NA
BRANCH  18  19
ATOM     19  C   UNL     1       0.760  -0.009  23.166  0.00  0.00    +0.089 C 
BRANCH  19  20
ATOM     20  C   UNL     1       1.529   0.072  22.878  0.00  0.00    +0.017 C 
ATOM     21  C   UNL     1       2.108  -0.120  22.321  0.00  0.00    +0.001 C 
ATOM     22  C   UNL     1       2.283   0.403  22.935  0.00  0.00    +0.001 C 
ENDBRANCH  19  20
ENDBRANCH  18  19
ENDBRANCH  17  18
TORSDOF 7
ENDMDL
MODEL 4
REMARK VINA RESULT:      -6.5      3.458      4.049
REMARK  Name = 
REMARK  7 active torsions:
REMARK  status: ('A' for Active; 'I' for Inactive)
REMARK    1  A    between atoms: C_3  and  C_4
REMARK    2  A    between atoms: C_4  and  N_5
REMARK    3  A    between atoms: N_5  and  S_6
REMARK    4  A    between atoms: S_6  and  C_9
REMARK    5  A    between atoms: C_17  and  N_18
REMARK    6  A    between atoms: N_18  and  C_19
REMARK    7  A    between atoms: C_19  and  C_20
REMARK                            x       y       z     vdW  Elec       q    Type
REMARK                         _______ _______ _______ _____ _____    ______ ____
ROOT
ATOM      1  O   UNL     1       0.395  -0.572  23.210  0.00  0.00    -0.219 OA
ATOM      2  C   UNL     1       0.465   0.194  23.505  0.00  0.00    +0.199 C 
ATOM      3  C   UNL     1      -0.123   0.619  23.898  0.00  0.00    +0.166 C 
ATOM     15  O   UNL     1       0.184   1.359  24.095  0.00  0.00    -0.350 OA
ATOM     16  C   UNL     1       0.963   1.392  23.823  0.00  0.00    +0.162 C 
ATOM     17  C   UNL     1       1.137   0.672  23.459  0.00  0.00    +0.135 C 
ENDROOT
BRANCH   3   4
ATOM      4  C   UNL     1      -0.885   0.351  24.064  0.00  0.00    +0.148 C 
BRANCH   4   5
ATOM      5  N   UNL     1      -1.433   0.858  24.418  0.00  0.00    -0.075 NA
BRANCH   5   6
ATOM      6  S   UNL     1      -2.209   0.606  24.538  0.00  0.00    +0.077 S 
ATOM      7  O   UNL     1      -2.425   0.917  23.805  0.00  0.00    -0.152 OA
ATOM      8  O   UNL     1      -1.994   0.294  25.271  0.00  0.00    -0.152 OA
BRANCH   6   9
ATOM      9  C   UNL     1      -2.985   0.354  24.659  0.00  0.00    +0.124 A 
ATOM     10  C   UNL     1      -3.602   0.901  24.654  0.00  0.00    +0.020 A 
ATOM     11  C   UNL     1      -4.378   0.650  24.775  0.00  0.00    +0.001 A 
ATOM     12  C   UNL     1      -4.538  -0.149  24.901  0.00  0.00    +0.000 A 
ATOM     13  C   UNL     1      -3.921  -0.697  24.906  0.00  0.00    +0.001 A 
ATOM     14  C   UNL     1      -3.145  -0.446  24.785  0.00  0.00    +0.020 A 
ENDBRANCH   6   9
ENDBRANCH   5   6
ENDBRANCH   4   5
ENDBRANCH   3   4
BRANCH  17  18
ATOM     18  N   UNL     1       1.856   0.466  23.110  0.00  0.00    -0.214 NA
BRANCH  18  19
ATOM     19  C   UNL     1       2.495   0.986  23.145  0.00  0.00    +0.089 C 
BRANCH  19  20
ATOM     20  C   UNL     1       3.220   0.769  22.819  0.00  0.00    +0.017 C 
ATOM     21  C   UNL     1       4.044   0.736  22.865  0.00  0.00    +0.001 C 
ATOM     22  C   UNL     1       3.655   0.428  22.206  0.00  0.00    +0.001 C 
ENDBRANCH  19  20
ENDBRANCH  18  19
ENDBRANCH  17  18
TORSDOF 7
ENDMDL
MODEL 5
REMARK VINA RESULT:      -6.5      2.019      2.351
REMARK  Name = 
REMARK  7 active torsions:
REMARK  status: ('A' for Active; 'I' for Inactive)
REMARK    1  A    between atoms: C_3  and  C_4
REMARK    2  A    between atoms: C_4  and  N_5
REMARK    3  A    between atoms: N_5  and  S_6
REMARK    4  A    between atoms: S_6  and  C_9
REMARK    5  A    between atoms: C_17  and  N_18
REMARK    6  A    between atoms: N_18  and  C_19
REMARK    7  A    between atoms: C_19  and  C_20
REMARK                            x       y       z     vdW  Elec       q    Type
REMARK                         _______ _______ _______ _____ _____    ______ ____
ROOT
ATOM      1  O   UNL     1      -3.419   1.883  24.791  0.00  0.00    -0.219 OA
ATOM      2  C   UNL     1      -4.185   1.604  24.911  0.00  0.00    +0.199 C 
ATOM      3  C   UNL     1      -4.425   0.815  24.874  0.00  0.00    +0.166 C 
ATOM     15  O   UNL     1      -5.235   0.788  25.031  0.00  0.00    -0.350 OA
ATOM     16  C   UNL     1      -5.495   1.559  25.164  0.00  0.00    +0.162 C 
ATOM     17  C   UNL     1      -4.847   2.064  25.091  0.00  0.00    +0.135 C 
ENDROOT
BRANCH   3   4
ATOM      4  C   UNL     1      -3.941   0.168  24.710  0.00  0.00    +0.148 C 
BRANCH   4   5
ATOM      5  N   UNL     1      -4.178  -0.591  24.930  0.00  0.00    -0.075 NA
BRANCH   5   6
ATOM      6  S   UNL     1      -3.679  -1.234  24.796  0.00  0.00    +0.077 S 
ATOM      7  O   UNL     1      -3.867  -1.214  23.993  0.00  0.00    -0.152 OA
ATOM      8  O   UNL     1      -3.491  -1.255  25.598  0.00  0.00    -0.152 OA
BRANCH   6   9
ATOM      9  C   UNL     1      -3.180  -1.877  24.662  0.00  0.00    +0.124 A 
ATOM     10  C   UNL     1      -3.499  -2.622  24.508  0.00  0.00    +0.020 A 
ATOM     11  C   UNL     1      -3.000  -3.265  24.375  0.00  0.00    +0.001 A 
ATOM     12  C   UNL     1      -2.181  -3.163  24.394  0.00  0.00    +0.000 A 
ATOM     13  C   UNL     1      -1.862  -2.418  24.547  0.00  0.00    +0.001 A 
ATOM     14  C   UNL     1      -2.361  -1.775  24.681  0.00  0.00    +0.020 A 
ENDBRANCH   6   9
ENDBRANCH   5   6
ENDBRANCH   4   5
ENDBRANCH   3   4
BRANCH  17  18
ATOM     18  N   UNL     1      -4.858   2.884  25.180  0.00  0.00    -0.214 NA
BRANCH  18  19
ATOM     19  C   UNL     1      -5.513   3.253  25.518  0.00  0.00    +0.089 C 
BRANCH  19  20
ATOM     20  C   UNL     1      -5.552   4.076  25.548  0.00  0.00    +0.017 C 
ATOM     21  C   UNL     1      -5.999   4.770  25.573  0.00  0.00    +0.001 C 
ATOM     22  C   UNL     1      -5.175   4.810  25.575  0.00  0.00    +0.001 C 
ENDBRANCH  19  20
ENDBRANCH  18  19
ENDBRANCH  17  18
TORSDOF 7
ENDMDL
MODEL 6
REMARK VINA RESULT:      -5.9      3.057      4.353
REMARK  Name = 
REMARK  7 active torsions:
REMARK  status: ('A' for Active; 'I' for Inactive)
REMARK    1  A    between atoms: C_3  and  C_4
REMARK    2  A    between atoms: C_4  and  N_5
REMARK    3  A    between atoms: N_5  and  S_6
REMARK    4  A    between atoms: S_6  and  C_9
REMARK    5  A    between atoms: C_17  and  N_18
REMARK    6  A    between atoms: N_18  and  C_19
REMARK    7  A    between atoms: C_19  and  C_20
REMARK                            x       y       z     vdW  Elec       q    Type
REMARK                         _______ _______ _______ _____ _____    ______ ____
ROOT
ATOM      1  O   UNL     1      -2.388   2.252  23.731  0.00  0.00    -0.219 OA
ATOM      2  C   UNL     1      -2.472   1.545  24.146  0.00  0.00    +0.199 C 
ATOM      3  C   UNL     1      -1.901   0.953  24.216  0.00  0.00    +0.166 C 
ATOM     15  O   UNL     1      -2.218   0.346  24.676  0.00  0.00    -0.350 OA
ATOM     16  C   UNL     1      -2.985   0.563  24.891  0.00  0.00    +0.162 C 
ATOM     17  C   UNL     1      -3.142   1.303  24.563  0.00  0.00    +0.135 C 
ENDROOT
BRANCH   3   4
ATOM      4  C   UNL     1      -1.146   0.966  23.883  0.00  0.00    +0.148 C 
BRANCH   4   5
ATOM      5  N   UNL     1      -0.570   0.437  24.148  0.00  0.00    -0.075 NA
BRANCH   5   6
ATOM      6  S   UNL     1       0.144   0.369  23.741  0.00  0.00    +0.077 S 
ATOM      7  O   UNL     1      -0.045  -0.408  23.538  0.00  0.00    -0.152 OA
ATOM      8  O   UNL     1       0.333   1.146  23.943  0.00  0.00    -0.152 OA
BRANCH   6   9
ATOM      9  C   UNL     1       0.859   0.301  23.334  0.00  0.00    +0.124 A 
ATOM     10  C   UNL     1       0.937  -0.252  22.727  0.00  0.00    +0.020 A 
ATOM     11  C   UNL     1       1.651  -0.321  22.320  0.00  0.00    +0.001 A 
ATOM     12  C   UNL     1       2.287   0.164  22.519  0.00  0.00    +0.000 A 
ATOM     13  C   UNL     1       2.209   0.718  23.126  0.00  0.00    +0.001 A 
ATOM     14  C   UNL     1       1.495   0.787  23.534  0.00  0.00    +0.020 A 
ENDBRANCH   6   9
ENDBRANCH   5   6
ENDBRANCH   4   5
ENDBRANCH   3   4
BRANCH  17  18
ATOM     18  N   UNL     1      -3.845   1.728  24.639  0.00  0.00    -0.214 NA
BRANCH  18  19
ATOM     19  C   UNL     1      -4.519   1.359  24.937  0.00  0.00    +0.089 C 
BRANCH  19  20
ATOM     20  C   UNL     1      -5.208   1.796  25.060  0.00  0.00    +0.017 C 
ATOM     21  C   UNL     1      -6.032   1.853  25.043  0.00  0.00    +0.001 C 
ATOM     22  C   UNL     1      -5.579   2.496  25.291  0.00  0.00    +0.001 C 
ENDBRANCH  19  20
ENDBRANCH  18  19
ENDBRANCH  17  18
TORSDOF 7
ENDMDL
MODEL 7
REMARK VINA RESULT:      -5.7      2.244      4.786
REMARK  Name = 
REMARK  7 active torsions:
REMARK  status: ('A' for Active; 'I' for Inactive)
REMARK    1  A    between atoms: C_3  and  C_4
REMARK    2  A    between atoms: C_4  and  N_5
REMARK    3  A    between atoms: N_5  and  S_6
REMARK    4  A    between atoms: S_6  and  C_9
REMARK    5  A    between atoms: C_17  and  N_18
REMARK    6  A    between atoms: N_18  and  C_19
REMARK    7  A    between atoms: C_19  and  C_20
REMARK                            x       y       z     vdW  Elec       q    Type
REMARK                         _______ _______ _______ _____ _____    ______ ____
ROOT
ATOM      1  O   UNL     1      -3.266  -0.482  25.059  0.00  0.00    -0.219 OA
ATOM      2  C   UNL     1      -2.679  -0.015  24.716  0.00  0.00    +0.199 C 
ATOM      3  C   UNL     1      -2.753   0.780  24.507  0.00  0.00    +0.166 C 
ATOM     15  O   UNL     1      -2.035   1.027  24.184  0.00  0.00    -0.350 OA
ATOM     16  C   UNL     1      -1.518   0.383  24.192  0.00  0.00    +0.162 C 
ATOM     17  C   UNL     1      -1.915  -0.260  24.521  0.00  0.00    +0.135 C 
ENDROOT
BRANCH   3   4
ATOM      4  C   UNL     1      -3.426   1.247  24.605  0.00  0.00    +0.148 C 
BRANCH   4   5
ATOM      5  N   UNL     1      -3.369   2.069  24.555  0.00  0.00    -0.075 NA
BRANCH   5   6
ATOM      6  S   UNL     1      -3.989   2.542  24.822  0.00  0.00    +0.077 S 
ATOM      7  O   UNL     1      -4.443   2.318  24.170  0.00  0.00    -0.152 OA
ATOM      8  O   UNL     1      -3.537   2.766  25.474  0.00  0.00    -0.152 OA
BRANCH   6   9
ATOM      9  C   UNL     1      -4.610   3.015  25.090  0.00  0.00    +0.124 A 
ATOM     10  C   UNL     1      -4.537   3.837  25.078  0.00  0.00    +0.020 A 
ATOM     11  C   UNL     1      -5.157   4.310  25.345  0.00  0.00    +0.001 A 
ATOM     12  C   UNL     1      -5.851   3.963  25.625  0.00  0.00    +0.000 A 
ATOM     13  C   UNL     1      -5.924   3.141  25.637  0.00  0.00    +0.001 A 
ATOM     14  C   UNL     1      -5.304   2.667  25.370  0.00  0.00    +0.020 A 
ENDBRANCH   6   9
ENDBRANCH   5   6
ENDBRANCH   4   5
ENDBRANCH   3   4
BRANCH  17  18
ATOM     18  N   UNL     1      -1.605  -1.016  24.635  0.00  0.00    -0.214 NA
BRANCH  18  19
ATOM     19  C   UNL     1      -0.796  -1.114  24.762  0.00  0.00    +0.089 C 
BRANCH  19  20
ATOM     20  C   UNL     1      -0.503  -1.846  25.002  0.00  0.00    +0.017 C 
ATOM     21  C   UNL     1       0.062  -2.292  25.407  0.00  0.00    +0.001 C 
ATOM     22  C   UNL     1      -0.558  -2.670  25.015  0.00  0.00    +0.001 C 
ENDBRANCH  19  20
ENDBRANCH  18  19
ENDBRANCH  17  18
TORSDOF 7
ENDMDL
MODEL 8
REMARK VINA RESULT:      -5.6     13.822     14.436
REMARK  Name = 
REMARK  7 active torsions:
REMARK  status: ('A' for Active; 'I' for Inactive)
REMARK    1  A    between atoms: C_3  and  C_4
REMARK    2  A    between atoms: C_4  and  N_5
REMARK    3  A    between atoms: N_5  and  S_6
REMARK    4  A    between atoms: S_6  and  C_9
REMARK    5  A    between atoms: C_17  and  N_18
REMARK    6  A    between atoms: N_18  and  C_19
REMARK    7  A    between atoms: C_19  and  C_20
REMARK                            x       y       z     vdW  Elec       q    Type
REMARK                         _______ _______ _______ _____ _____    ______ ____
ROOT
ATOM      1  O   UNL     1      -5.349  -9.821  15.370  0.00  0.00    -0.219 OA
ATOM      2  C   UNL     1      -5.217 -10.076  16.143  0.00  0.00    +0.199 C 
ATOM      3  C   UNL     1      -5.773 -10.082  16.753  0.00  0.00    +0.166 C 
ATOM     15  O   UNL     1      -5.406 -10.379  17.430  0.00  0.00    -0.350 OA
ATOM     16  C   UNL     1      -4.623 -10.558  17.237  0.00  0.00    +0.162 C 
ATOM     17  C   UNL     1      -4.507 -10.371  16.442  0.00  0.00    +0.135 C 
ENDROOT
BRANCH   3   4
ATOM      4  C   UNL     1      -6.557  -9.833  16.697  0.00  0.00    +0.148 C 
BRANCH   4   5
ATOM      5  N   UNL     1      -7.068  -9.934  17.337  0.00  0.00    -0.075 NA
BRANCH   5   6
ATOM      6  S   UNL     1      -7.839  -9.642  17.298  0.00  0.00    +0.077 S 
ATOM      7  O   UNL     1      -7.587  -8.927  17.624  0.00  0.00    -0.152 OA
ATOM      8  O   UNL     1      -8.093 -10.356  16.973  0.00  0.00    -0.152 OA
BRANCH   6   9
ATOM      9  C   UNL     1      -8.611  -9.351  17.259  0.00  0.00    +0.124 A 
ATOM     10  C   UNL     1      -9.248  -9.850  17.416  0.00  0.00    +0.020 A 
ATOM     11  C   UNL     1     -10.019  -9.560  17.377  0.00  0.00    +0.001 A 
ATOM     12  C   UNL     1     -10.153  -8.770  17.181  0.00  0.00    +0.000 A 
ATOM     13  C   UNL     1      -9.515  -8.270  17.024  0.00  0.00    +0.001 A 
ATOM     14  C   UNL     1      -8.744  -8.561  17.063  0.00  0.00    +0.020 A 
ENDBRANCH   6   9
ENDBRANCH   5   6
ENDBRANCH   4   5
ENDBRANCH   3   4
BRANCH  17  18
ATOM     18  N   UNL     1      -3.804 -10.462  16.021  0.00  0.00    -0.214 NA
BRANCH  18  19
ATOM     19  C   UNL     1      -3.102 -10.629  16.420  0.00  0.00    +0.089 C 
BRANCH  19  20
ATOM     20  C   UNL     1      -2.393 -10.684  16.002  0.00  0.00    +0.017 C 
ATOM     21  C   UNL     1      -1.567 -10.683  15.992  0.00  0.00    +0.001 C 
ATOM     22  C   UNL     1      -1.988 -10.781  15.290  0.00  0.00    +0.001 C 
ENDBRANCH  19  20
ENDBRANCH  18  19
ENDBRANCH  17  18
TORSDOF 7
ENDMDL
