MODEL 1
REMARK VINA RESULT:     -10.4      0.000      0.000
REMARK  Name = 
REMARK  9 active torsions:
REMARK  status: ('A' for Active; 'I' for Inactive)
REMARK    1  A    between atoms: C_2  and  C_4
REMARK    2  A    between atoms: C_6  and  C_7
REMARK    3  A    between atoms: C_7  and  C_8
REMARK    4  A    between atoms: C_11  and  C_13
REMARK    5  A    between atoms: C_22  and  C_23
REMARK    6  A    between atoms: C_23  and  N_24
REMARK    7  A    between atoms: N_24  and  C_26
REMARK    8  A    between atoms: C_26  and  C_27
REMARK    9  A    between atoms: C_27  and  N_28
REMARK                            x       y       z     vdW  Elec       q    Type
REMARK                         _______ _______ _______ _____ _____    ______ ____
ROOT
ATOM      4  C   UNL     1      -3.391   1.351  23.891  0.00  0.00    +0.006 C 
ATOM      5  C   UNL     1      -3.574   2.095  24.197  0.00  0.00    +0.005 C 
ATOM      6  C   UNL     1      -4.193   2.178  24.736  0.00  0.00    +0.027 C 
ATOM     19  C   UNL     1      -4.630   1.517  24.968  0.00  0.00    -0.048 C 
ATOM     20  C   UNL     1      -5.249   1.600  25.507  0.00  0.00    +0.026 C 
ATOM     21  C   UNL     1      -4.445   0.773  24.662  0.00  0.00    -0.034 C 
ATOM     22  C   UNL     1      -3.826   0.691  24.123  0.00  0.00    +0.037 C 
ENDROOT
BRANCH   4   2
ATOM      1  C   UNL     1      -2.023   1.040  23.615  0.00  0.00    +0.000 C 
ATOM      2  C   UNL     1      -2.770   1.268  23.352  0.00  0.00    +0.000 C 
ATOM      3  C   UNL     1      -2.900   1.413  22.550  0.00  0.00    +0.000 C 
ENDBRANCH   4   2
BRANCH   6   7
ATOM      7  C   UNL     1      -4.377   2.921  25.042  0.00  0.00    +0.091 C 
BRANCH   7   8
ATOM      8  C   UNL     1      -3.781   3.400  25.352  0.00  0.00    +0.227 A 
ATOM      9  N   UNL     1      -3.719   3.650  26.135  0.00  0.00    -0.111 NA
ATOM     10  N   UNL     1      -3.042   4.117  26.201  0.00  0.00    -0.107 NA
ATOM     11  C   UNL     1      -2.685   4.154  25.458  0.00  0.00    +0.250 A 
ATOM     12  O   UNL     1      -3.143   3.710  24.933  0.00  0.00    -0.420 OA
BRANCH  11  13
ATOM     13  C   UNL     1      -1.994   4.562  25.271  0.00  0.00    +0.055 A 
ATOM     14  C   UNL     1      -2.017   5.377  25.145  0.00  0.00    +0.005 A 
ATOM     15  C   UNL     1      -1.325   5.787  24.958  0.00  0.00    +0.000 A 
ATOM     16  C   UNL     1      -0.610   5.380  24.898  0.00  0.00    +0.000 A 
ATOM     17  C   UNL     1      -0.585   4.566  25.025  0.00  0.00    +0.000 A 
ATOM     18  C   UNL     1      -1.277   4.156  25.211  0.00  0.00    +0.005 A 
ENDBRANCH  11  13
ENDBRANCH   7   8
ENDBRANCH   6   7
BRANCH  22  23
ATOM     23  C   UNL     1      -3.643  -0.054  23.817  0.00  0.00    +0.076 C 
BRANCH  23  24
ATOM     24  N   UNL     1      -4.005  -0.727  24.125  0.00  0.00    -0.270 NA
ATOM     25  C   UNL     1      -4.798  -0.882  23.958  0.00  0.00    +0.090 C 
BRANCH  24  26
ATOM     26  C   UNL     1      -3.575  -1.247  24.601  0.00  0.00    +0.090 C 
BRANCH  26  27
ATOM     27  C   UNL     1      -3.512  -2.042  24.392  0.00  0.00    +0.090 C 
BRANCH  27  28
ATOM     28  N   UNL     1      -2.996  -2.538  24.803  0.00  0.00    -0.269 NA
ATOM     29  C   UNL     1      -2.232  -2.663  24.520  0.00  0.00    +0.090 C 
ATOM     30  C   UNL     1      -3.246  -2.909  25.497  0.00  0.00    +0.090 C 
ENDBRANCH  27  28
ENDBRANCH  26  27
ENDBRANCH  24  26
ENDBRANCH  23  24
ENDBRANCH  22  23
TORSDOF 9
ENDMDL
MODEL 2
REMARK VINA RESULT:     -10.2      1.234      5.233
REMARK  Name = 
REMARK  9 active torsions:
REMARK  status: ('A' for Active; 'I' for Inactive)
REMARK    1  A    between atoms: C_2  and  C_4
REMARK    2  A    between atoms: C_6  and  C_7
REMARK    3  A    between atoms: C_7  and  C_8
REMARK    4  A    between atoms: C_11  and  C_13
REMARK    5  A    between atoms: C_22  and  C_23
REMARK    6  A    between atoms: C_23  and  N_24
REMARK    7  A    between atoms: N_24  and  C_26
REMARK    8  A    between atoms: C_26  and  C_27
REMARK    9  A    between atoms: C_27  and  N_28
REMARK                            x       y       z     vdW  Elec       q    Type
REMARK                         _______ _______ _______ _____ _____    ______ ____
ROOT
ATOM      4  C   UNL     1      -3.416   1.881  23.776  0.00  0.00    +0.006 C 
ATOM      5  C   UNL     1      -3.802   1.180  23.976  0.00  0.00    +0.005 C 
ATOM      6  C   UNL     1      -4.398   1.186  24.547  0.00  0.00    +0.027 C 
ATOM     19  C   UNL     1      -4.608   1.893  24.918  0.00  0.00    -0.048 C 
ATOM     20  C   UNL     1      -5.203   1.899  25.488  0.00  0.00    +0.026 C 
ATOM     21  C   UNL     1      -4.221   2.594  24.717  0.00  0.00    -0.034 C 
ATOM     22  C   UNL     1      -3.625   2.588  24.146  0.00  0.00    +0.037 C 
ENDROOT
BRANCH   4   2
ATOM      1  C   UNL     1      -2.059   1.632  23.406  0.00  0.00    +0.000 C 
ATOM      2  C   UNL     1      -2.820   1.876  23.205  0.00  0.00    +0.000 C 
ATOM      3  C   UNL     1      -2.987   2.114  22.433  0.00  0.00    +0.000 C 
ENDBRANCH   4   2
BRANCH   6   7
ATOM      7  C   UNL     1      -4.784   0.485  24.748  0.00  0.00    +0.091 C 
BRANCH   7   8
ATOM      8  C   UNL     1      -4.349  -0.170  24.996  0.00  0.00    +0.227 A 
ATOM      9  N   UNL     1      -4.141  -0.347  25.774  0.00  0.00    -0.111 NA
ATOM     10  N   UNL     1      -3.709  -1.049  25.769  0.00  0.00    -0.107 NA
ATOM     11  C   UNL     1      -3.650  -1.307  24.988  0.00  0.00    +0.250 A 
ATOM     12  O   UNL     1      -4.046  -0.762  24.510  0.00  0.00    -0.420 OA
BRANCH  11  13
ATOM     13  C   UNL     1      -3.264  -1.988  24.729  0.00  0.00    +0.055 A 
ATOM     14  C   UNL     1      -2.440  -2.006  24.691  0.00  0.00    +0.005 A 
ATOM     15  C   UNL     1      -2.052  -2.687  24.433  0.00  0.00    +0.000 A 
ATOM     16  C   UNL     1      -2.490  -3.350  24.211  0.00  0.00    +0.000 A 
ATOM     17  C   UNL     1      -3.313  -3.333  24.248  0.00  0.00    +0.000 A 
ATOM     18  C   UNL     1      -3.701  -2.652  24.507  0.00  0.00    +0.005 A 
ENDBRANCH  11  13
ENDBRANCH   7   8
ENDBRANCH   6   7
BRANCH  22  23
ATOM     23  C   UNL     1      -3.239   3.289  23.946  0.00  0.00    +0.076 C 
BRANCH  23  24
ATOM     24  N   UNL     1      -3.193   3.905  24.492  0.00  0.00    -0.270 NA
ATOM     25  C   UNL     1      -3.830   4.422  24.586  0.00  0.00    +0.090 C 
BRANCH  24  26
ATOM     26  C   UNL     1      -2.511   4.006  24.946  0.00  0.00    +0.090 C 
BRANCH  26  27
ATOM     27  C   UNL     1      -2.143   4.742  24.980  0.00  0.00    +0.090 C 
BRANCH  27  28
ATOM     28  N   UNL     1      -1.343   4.796  25.174  0.00  0.00    -0.269 NA
ATOM     29  C   UNL     1      -0.888   5.419  24.884  0.00  0.00    +0.090 C 
ATOM     30  C   UNL     1      -0.997   4.224  25.660  0.00  0.00    +0.090 C 
ENDBRANCH  27  28
ENDBRANCH  26  27
ENDBRANCH  24  26
ENDBRANCH  23  24
ENDBRANCH  22  23
TORSDOF 9
ENDMDL
MODEL 3
REMARK VINA RESULT:     -10.0      1.949      3.617
REMARK  Name = 
REMARK  9 active torsions:
REMARK  status: ('A' for Active; 'I' for Inactive)
REMARK    1  A    between atoms: C_2  and  C_4
REMARK    2  A    between atoms: C_6  and  C_7
REMARK    3  A    between atoms: C_7  and  C_8
REMARK    4  A    between atoms: C_11  and  C_13
REMARK    5  A    between atoms: C_22  and  C_23
REMARK    6  A    between atoms: C_23  and  N_24
REMARK    7  A    between atoms: N_24  and  C_26
REMARK    8  A    between atoms: C_26  and  C_27
REMARK    9  A    between atoms: C_27  and  N_28
REMARK                            x       y       z     vdW  Elec       q    Type
REMARK                         _______ _______ _______ _____ _____    ______ ____
ROOT
ATOM      4  C   UNL     1      -1.148   2.316  24.631  0.00  0.00    +0.006 C 
ATOM      5  C   UNL     1      -1.774   2.805  24.408  0.00  0.00    +0.005 C 
ATOM      6  C   UNL     1      -2.219   2.624  23.737  0.00  0.00    +0.027 C 
ATOM     19  C   UNL     1      -2.038   1.954  23.290  0.00  0.00    -0.048 C 
ATOM     20  C   UNL     1      -2.484   1.774  22.619  0.00  0.00    +0.026 C 
ATOM     21  C   UNL     1      -1.412   1.466  23.514  0.00  0.00    -0.034 C 
ATOM     22  C   UNL     1      -0.967   1.647  24.184  0.00  0.00    +0.037 C 
ENDROOT
BRANCH   4   2
ATOM      1  C   UNL     1      -0.018   2.951  25.232  0.00  0.00    +0.000 C 
ATOM      2  C   UNL     1      -0.702   2.497  25.302  0.00  0.00    +0.000 C 
ATOM      3  C   UNL     1      -0.943   2.223  26.043  0.00  0.00    +0.000 C 
ENDBRANCH   4   2
BRANCH   6   7
ATOM      7  C   UNL     1      -2.845   3.112  23.513  0.00  0.00    +0.091 C 
BRANCH   7   8
ATOM      8  C   UNL     1      -3.483   3.228  24.024  0.00  0.00    +0.227 A 
ATOM      9  N   UNL     1      -3.705   3.943  24.367  0.00  0.00    -0.111 NA
ATOM     10  N   UNL     1      -4.369   3.806  24.837  0.00  0.00    -0.107 NA
ATOM     11  C   UNL     1      -4.557   3.005  24.783  0.00  0.00    +0.250 A 
ATOM     12  O   UNL     1      -4.008   2.647  24.281  0.00  0.00    -0.420 OA
BRANCH  11  13
ATOM     13  C   UNL     1      -5.182   2.626  25.165  0.00  0.00    +0.055 A 
ATOM     14  C   UNL     1      -5.604   2.032  24.778  0.00  0.00    +0.005 A 
ATOM     15  C   UNL     1      -6.230   1.653  25.160  0.00  0.00    +0.000 A 
ATOM     16  C   UNL     1      -6.434   1.870  25.929  0.00  0.00    +0.000 A 
ATOM     17  C   UNL     1      -6.014   2.463  26.317  0.00  0.00    +0.000 A 
ATOM     18  C   UNL     1      -5.388   2.842  25.935  0.00  0.00    +0.005 A 
ENDBRANCH  11  13
ENDBRANCH   7   8
ENDBRANCH   6   7
BRANCH  22  23
ATOM     23  C   UNL     1      -0.341   1.158  24.408  0.00  0.00    +0.076 C 
BRANCH  23  24
ATOM     24  N   UNL     1      -0.269   0.404  24.081  0.00  0.00    -0.270 NA
ATOM     25  C   UNL     1       0.212   0.285  23.421  0.00  0.00    +0.090 C 
BRANCH  24  26
ATOM     26  C   UNL     1      -0.678  -0.231  24.413  0.00  0.00    +0.090 C 
BRANCH  26  27
ATOM     27  C   UNL     1      -0.339  -0.982  24.418  0.00  0.00    +0.090 C 
BRANCH  27  28
ATOM     28  N   UNL     1      -0.702  -1.596  24.834  0.00  0.00    -0.269 NA
ATOM     29  C   UNL     1      -0.467  -1.768  25.605  0.00  0.00    +0.090 C 
ATOM     30  C   UNL     1      -1.301  -2.039  24.476  0.00  0.00    +0.090 C 
ENDBRANCH  27  28
ENDBRANCH  26  27
ENDBRANCH  24  26
ENDBRANCH  23  24
ENDBRANCH  22  23
TORSDOF 9
ENDMDL
MODEL 4
REMARK VINA RESULT:     -10.0      1.724      5.283
REMARK  Name = 
REMARK  9 active torsions:
REMARK  status: ('A' for Active; 'I' for Inactive)
REMARK    1  A    between atoms: C_2  and  C_4
REMARK    2  A    between atoms: C_6  and  C_7
REMARK    3  A    between atoms: C_7  and  C_8
REMARK    4  A    between atoms: C_11  and  C_13
REMARK    5  A    between atoms: C_22  and  C_23
REMARK    6  A    between atoms: C_23  and  N_24
REMARK    7  A    between atoms: N_24  and  C_26
REMARK    8  A    between atoms: C_26  and  C_27
REMARK    9  A    between atoms: C_27  and  N_28
REMARK                            x       y       z     vdW  Elec       q    Type
REMARK                         _______ _______ _______ _____ _____    ______ ____
ROOT
ATOM      4  C   UNL     1      -2.129   1.867  23.803  0.00  0.00    +0.006 C 
ATOM      5  C   UNL     1      -1.588   1.255  23.922  0.00  0.00    +0.005 C 
ATOM      6  C   UNL     1      -1.145   1.226  24.617  0.00  0.00    +0.027 C 
ATOM     19  C   UNL     1      -1.242   1.810  25.193  0.00  0.00    -0.048 C 
ATOM     20  C   UNL     1      -0.799   1.781  25.888  0.00  0.00    +0.026 C 
ATOM     21  C   UNL     1      -1.783   2.421  25.073  0.00  0.00    -0.034 C 
ATOM     22  C   UNL     1      -2.226   2.449  24.378  0.00  0.00    +0.037 C 
ENDROOT
BRANCH   4   2
ATOM      1  C   UNL     1      -2.288   2.308  22.453  0.00  0.00    +0.000 C 
ATOM      2  C   UNL     1      -2.573   1.895  23.107  0.00  0.00    +0.000 C 
ATOM      3  C   UNL     1      -3.301   1.509  23.067  0.00  0.00    +0.000 C 
ENDBRANCH   4   2
BRANCH   6   7
ATOM      7  C   UNL     1      -0.604   0.615  24.737  0.00  0.00    +0.091 C 
BRANCH   7   8
ATOM      8  C   UNL     1      -0.842  -0.170  24.654  0.00  0.00    +0.227 A 
ATOM      9  N   UNL     1      -0.382  -0.787  24.359  0.00  0.00    -0.111 NA
ATOM     10  N   UNL     1      -0.838  -1.475  24.373  0.00  0.00    -0.107 NA
ATOM     11  C   UNL     1      -1.580  -1.281  24.678  0.00  0.00    +0.250 A 
ATOM     12  O   UNL     1      -1.582  -0.475  24.852  0.00  0.00    -0.420 OA
BRANCH  11  13
ATOM     13  C   UNL     1      -2.209  -1.803  24.790  0.00  0.00    +0.055 A 
ATOM     14  C   UNL     1      -2.770  -1.653  25.377  0.00  0.00    +0.005 A 
ATOM     15  C   UNL     1      -3.400  -2.175  25.489  0.00  0.00    +0.000 A 
ATOM     16  C   UNL     1      -3.468  -2.846  25.015  0.00  0.00    +0.000 A 
ATOM     17  C   UNL     1      -2.908  -2.997  24.428  0.00  0.00    +0.000 A 
ATOM     18  C   UNL     1      -2.278  -2.475  24.316  0.00  0.00    +0.005 A 
ENDBRANCH  11  13
ENDBRANCH   7   8
ENDBRANCH   6   7
BRANCH  22  23
ATOM     23  C   UNL     1      -2.767   3.061  24.259  0.00  0.00    +0.076 C 
BRANCH  23  24
ATOM     24  N   UNL     1      -3.063   3.481  24.903  0.00  0.00    -0.270 NA
ATOM     25  C   UNL     1      -2.637   4.116  25.212  0.00  0.00    +0.090 C 
BRANCH  24  26
ATOM     26  C   UNL     1      -3.786   3.268  25.239  0.00  0.00    +0.090 C 
BRANCH  26  27
ATOM     27  C   UNL     1      -4.334   3.849  25.444  0.00  0.00    +0.090 C 
BRANCH  27  28
ATOM     28  N   UNL     1      -5.114   3.640  25.612  0.00  0.00    -0.269 NA
ATOM     29  C   UNL     1      -5.726   4.170  25.456  0.00  0.00    +0.090 C 
ATOM     30  C   UNL     1      -5.282   2.900  25.938  0.00  0.00    +0.090 C 
ENDBRANCH  27  28
ENDBRANCH  26  27
ENDBRANCH  24  26
ENDBRANCH  23  24
ENDBRANCH  22  23
TORSDOF 9
ENDMDL
MODEL 5
REMARK VINA RESULT:      -9.9      2.332      4.112
REMARK  Name = 
REMARK  9 active torsions:
REMARK  status: ('A' for Active; 'I' for Inactive)
REMARK    1  A    between atoms: C_2  and  C_4
REMARK    2  A    between atoms: C_6  and  C_7
REMARK    3  A    between atoms: C_7  and  C_8
REMARK    4  A    between atoms: C_11  and  C_13
REMARK    5  A    between atoms: C_22  and  C_23
REMARK    6  A    between atoms: C_23  and  N_24
REMARK    7  A    between atoms: N_24  and  C_26
REMARK    8  A    between atoms: C_26  and  C_27
REMARK    9  A    between atoms: C_27  and  N_28
REMARK                            x       y       z     vdW  Elec       q    Type
REMARK                         _______ _______ _______ _____ _____    ______ ____
ROOT
ATOM      4  C   UNL     1      -1.084   2.190  24.531  0.00  0.00    +0.006 C 
ATOM      5  C   UNL     1      -1.728   2.661  24.320  0.00  0.00    +0.005 C 
ATOM      6  C   UNL     1      -2.176   2.472  23.654  0.00  0.00    +0.027 C 
ATOM     19  C   UNL     1      -1.980   1.812  23.198  0.00  0.00    -0.048 C 
ATOM     20  C   UNL     1      -2.429   1.623  22.531  0.00  0.00    +0.026 C 
ATOM     21  C   UNL     1      -1.337   1.342  23.409  0.00  0.00    -0.034 C 
ATOM     22  C   UNL     1      -0.889   1.531  24.076  0.00  0.00    +0.037 C 
ENDROOT
BRANCH   4   2
ATOM      1  C   UNL     1      -0.017   2.920  25.139  0.00  0.00    +0.000 C 
ATOM      2  C   UNL     1      -0.636   2.379  25.198  0.00  0.00    +0.000 C 
ATOM      3  C   UNL     1      -0.807   2.025  25.924  0.00  0.00    +0.000 C 
ENDBRANCH   4   2
BRANCH   6   7
ATOM      7  C   UNL     1      -2.820   2.942  23.442  0.00  0.00    +0.091 C 
BRANCH   7   8
ATOM      8  C   UNL     1      -3.428   3.077  23.983  0.00  0.00    +0.227 A 
ATOM      9  N   UNL     1      -3.581   3.787  24.372  0.00  0.00    -0.111 NA
ATOM     10  N   UNL     1      -4.238   3.676  24.859  0.00  0.00    -0.107 NA
ATOM     11  C   UNL     1      -4.490   2.895  24.770  0.00  0.00    +0.250 A 
ATOM     12  O   UNL     1      -3.990   2.526  24.227  0.00  0.00    -0.420 OA
BRANCH  11  13
ATOM     13  C   UNL     1      -5.131   2.546  25.154  0.00  0.00    +0.055 A 
ATOM     14  C   UNL     1      -5.533   1.919  24.799  0.00  0.00    +0.005 A 
ATOM     15  C   UNL     1      -6.174   1.569  25.184  0.00  0.00    +0.000 A 
ATOM     16  C   UNL     1      -6.412   1.846  25.923  0.00  0.00    +0.000 A 
ATOM     17  C   UNL     1      -6.011   2.473  26.278  0.00  0.00    +0.000 A 
ATOM     18  C   UNL     1      -5.370   2.823  25.894  0.00  0.00    +0.005 A 
ENDBRANCH  11  13
ENDBRANCH   7   8
ENDBRANCH   6   7
BRANCH  22  23
ATOM     23  C   UNL     1      -0.245   1.059  24.287  0.00  0.00    +0.076 C 
BRANCH  23  24
ATOM     24  N   UNL     1      -0.054   0.395  23.837  0.00  0.00    -0.270 NA
ATOM     25  C   UNL     1      -0.443  -0.320  23.972  0.00  0.00    +0.090 C 
BRANCH  24  26
ATOM     26  C   UNL     1       0.524   0.445  23.251  0.00  0.00    +0.090 C 
BRANCH  26  27
ATOM     27  C   UNL     1       1.083  -0.156  23.170  0.00  0.00    +0.090 C 
BRANCH  27  28
ATOM     28  N   UNL     1       1.690  -0.084  22.615  0.00  0.00    -0.269 NA
ATOM     29  C   UNL     1       1.581  -0.361  21.847  0.00  0.00    +0.090 C 
ATOM     30  C   UNL     1       2.407   0.265  22.831  0.00  0.00    +0.090 C 
ENDBRANCH  27  28
ENDBRANCH  26  27
ENDBRANCH  24  26
ENDBRANCH  23  24
ENDBRANCH  22  23
TORSDOF 9
ENDMDL
MODEL 6
REMARK VINA RESULT:      -9.4      1.964      4.883
REMARK  Name = 
REMARK  9 active torsions:
REMARK  status: ('A' for Active; 'I' for Inactive)
REMARK    1  A    between atoms: C_2  and  C_4
REMARK    2  A    between atoms: C_6  and  C_7
REMARK    3  A    between atoms: C_7  and  C_8
REMARK    4  A    between atoms: C_11  and  C_13
REMARK    5  A    between atoms: C_22  and  C_23
REMARK    6  A    between atoms: C_23  and  N_24
REMARK    7  A    between atoms: N_24  and  C_26
REMARK    8  A    between atoms: C_26  and  C_27
REMARK    9  A    between atoms: C_27  and  N_28
REMARK                            x       y       z     vdW  Elec       q    Type
REMARK                         _______ _______ _______ _____ _____    ______ ____
ROOT
ATOM      4  C   UNL     1      -1.911   3.068  24.759  0.00  0.00    +0.006 C 
ATOM      5  C   UNL     1      -1.377   2.597  24.340  0.00  0.00    +0.005 C 
ATOM      6  C   UNL     1      -1.626   2.192  23.666  0.00  0.00    +0.027 C 
ATOM     19  C   UNL     1      -2.409   2.257  23.411  0.00  0.00    -0.048 C 
ATOM     20  C   UNL     1      -2.658   1.851  22.737  0.00  0.00    +0.026 C 
ATOM     21  C   UNL     1      -2.941   2.727  23.830  0.00  0.00    -0.034 C 
ATOM     22  C   UNL     1      -2.692   3.133  24.504  0.00  0.00    +0.037 C 
ENDROOT
BRANCH   4   2
ATOM      1  C   UNL     1      -1.666   3.096  26.167  0.00  0.00    +0.000 C 
ATOM      2  C   UNL     1      -1.662   3.473  25.434  0.00  0.00    +0.000 C 
ATOM      3  C   UNL     1      -1.409   4.257  25.373  0.00  0.00    +0.000 C 
ENDBRANCH   4   2
BRANCH   6   7
ATOM      7  C   UNL     1      -1.094   1.721  23.247  0.00  0.00    +0.091 C 
BRANCH   7   8
ATOM      8  C   UNL     1      -0.771   1.049  23.599  0.00  0.00    +0.227 A 
ATOM      9  N   UNL     1       0.031   0.904  23.722  0.00  0.00    -0.111 NA
ATOM     10  N   UNL     1       0.104   0.168  24.088  0.00  0.00    -0.107 NA
ATOM     11  C   UNL     1      -0.654  -0.141  24.192  0.00  0.00    +0.250 A 
ATOM     12  O   UNL     1      -1.195   0.404  23.889  0.00  0.00    -0.420 OA
BRANCH  11  13
ATOM     13  C   UNL     1      -0.839  -0.867  24.537  0.00  0.00    +0.055 A 
ATOM     14  C   UNL     1      -1.228  -1.446  24.097  0.00  0.00    +0.005 A 
ATOM     15  C   UNL     1      -1.413  -2.173  24.442  0.00  0.00    +0.000 A 
ATOM     16  C   UNL     1      -1.209  -2.319  25.228  0.00  0.00    +0.000 A 
ATOM     17  C   UNL     1      -0.820  -1.741  25.668  0.00  0.00    +0.000 A 
ATOM     18  C   UNL     1      -0.634  -1.014  25.323  0.00  0.00    +0.005 A 
ENDBRANCH  11  13
ENDBRANCH   7   8
ENDBRANCH   6   7
BRANCH  22  23
ATOM     23  C   UNL     1      -3.226   3.603  24.922  0.00  0.00    +0.076 C 
BRANCH  23  24
ATOM     24  N   UNL     1      -4.032   3.564  24.753  0.00  0.00    -0.270 NA
ATOM     25  C   UNL     1      -4.366   4.095  24.218  0.00  0.00    +0.090 C 
BRANCH  24  26
ATOM     26  C   UNL     1      -4.504   2.994  25.118  0.00  0.00    +0.090 C 
BRANCH  26  27
ATOM     27  C   UNL     1      -5.300   3.150  25.264  0.00  0.00    +0.090 C 
BRANCH  27  28
ATOM     28  N   UNL     1      -5.786   2.559  25.574  0.00  0.00    -0.269 NA
ATOM     29  C   UNL     1      -5.899   2.502  26.388  0.00  0.00    +0.090 C 
ATOM     30  C   UNL     1      -6.161   2.025  25.067  0.00  0.00    +0.090 C 
ENDBRANCH  27  28
ENDBRANCH  26  27
ENDBRANCH  24  26
ENDBRANCH  23  24
ENDBRANCH  22  23
TORSDOF 9
ENDMDL
MODEL 7
REMARK VINA RESULT:      -9.4      1.540      4.980
REMARK  Name = 
REMARK  9 active torsions:
REMARK  status: ('A' for Active; 'I' for Inactive)
REMARK    1  A    between atoms: C_2  and  C_4
REMARK    2  A    between atoms: C_6  and  C_7
REMARK    3  A    between atoms: C_7  and  C_8
REMARK    4  A    between atoms: C_11  and  C_13
REMARK    5  A    between atoms: C_22  and  C_23
REMARK    6  A    between atoms: C_23  and  N_24
REMARK    7  A    between atoms: N_24  and  C_26
REMARK    8  A    between atoms: C_26  and  C_27
REMARK    9  A    between atoms: C_27  and  N_28
REMARK                            x       y       z     vdW  Elec       q    Type
REMARK                         _______ _______ _______ _____ _____    ______ ____
ROOT
ATOM      4  C   UNL     1      -3.334   3.502  25.310  0.00  0.00    +0.006 C 
ATOM      5  C   UNL     1      -3.916   3.006  24.999  0.00  0.00    +0.005 C 
ATOM      6  C   UNL     1      -3.793   2.631  24.275  0.00  0.00    +0.027 C 
ATOM     19  C   UNL     1      -3.089   2.752  23.862  0.00  0.00    -0.048 C 
ATOM     20  C   UNL     1      -2.966   2.377  23.137  0.00  0.00    +0.026 C 
ATOM     21  C   UNL     1      -2.508   3.248  24.174  0.00  0.00    -0.034 C 
ATOM     22  C   UNL     1      -2.631   3.623  24.898  0.00  0.00    +0.037 C 
ENDROOT
BRANCH   4   2
ATOM      1  C   UNL     1      -3.237   3.503  26.736  0.00  0.00    +0.000 C 
ATOM      2  C   UNL     1      -3.457   3.878  26.036  0.00  0.00    +0.000 C 
ATOM      3  C   UNL     1      -3.800   4.628  26.058  0.00  0.00    +0.000 C 
ENDBRANCH   4   2
BRANCH   6   7
ATOM      7  C   UNL     1      -4.374   2.136  23.963  0.00  0.00    +0.091 C 
BRANCH   7   8
ATOM      8  C   UNL     1      -4.519   1.400  24.308  0.00  0.00    +0.227 A 
ATOM      9  N   UNL     1      -5.155   1.212  24.797  0.00  0.00    -0.111 NA
ATOM     10  N   UNL     1      -5.083   0.420  25.017  0.00  0.00    -0.107 NA
ATOM     11  C   UNL     1      -4.401   0.120  24.663  0.00  0.00    +0.250 A 
ATOM     12  O   UNL     1      -4.052   0.726  24.225  0.00  0.00    -0.420 OA
BRANCH  11  13
ATOM     13  C   UNL     1      -4.117  -0.651  24.735  0.00  0.00    +0.055 A 
ATOM     14  C   UNL     1      -4.243  -1.195  24.127  0.00  0.00    +0.005 A 
ATOM     15  C   UNL     1      -3.959  -1.967  24.198  0.00  0.00    +0.000 A 
ATOM     16  C   UNL     1      -3.549  -2.194  24.877  0.00  0.00    +0.000 A 
ATOM     17  C   UNL     1      -3.423  -1.651  25.485  0.00  0.00    +0.000 A 
ATOM     18  C   UNL     1      -3.707  -0.879  25.414  0.00  0.00    +0.005 A 
ENDBRANCH  11  13
ENDBRANCH   7   8
ENDBRANCH   6   7
BRANCH  22  23
ATOM     23  C   UNL     1      -2.049   4.119  25.209  0.00  0.00    +0.076 C 
BRANCH  23  24
ATOM     24  N   UNL     1      -1.256   3.990  25.026  0.00  0.00    -0.270 NA
ATOM     25  C   UNL     1      -0.835   4.555  24.597  0.00  0.00    +0.090 C 
BRANCH  24  26
ATOM     26  C   UNL     1      -0.882   3.296  25.272  0.00  0.00    +0.090 C 
BRANCH  26  27
ATOM     27  C   UNL     1      -0.082   3.306  25.472  0.00  0.00    +0.090 C 
BRANCH  27  28
ATOM     28  N   UNL     1       0.283   2.620  25.748  0.00  0.00    -0.269 NA
ATOM     29  C   UNL     1       0.412   2.518  26.556  0.00  0.00    +0.090 C 
ATOM     30  C   UNL     1       0.520   2.036  25.215  0.00  0.00    +0.090 C 
ENDBRANCH  27  28
ENDBRANCH  26  27
ENDBRANCH  24  26
ENDBRANCH  23  24
ENDBRANCH  22  23
TORSDOF 9
ENDMDL
MODEL 8
REMARK VINA RESULT:      -9.3      1.538      2.306
REMARK  Name = 
REMARK  9 active torsions:
REMARK  status: ('A' for Active; 'I' for Inactive)
REMARK    1  A    between atoms: C_2  and  C_4
REMARK    2  A    between atoms: C_6  and  C_7
REMARK    3  A    between atoms: C_7  and  C_8
REMARK    4  A    between atoms: C_11  and  C_13
REMARK    5  A    between atoms: C_22  and  C_23
REMARK    6  A    between atoms: C_23  and  N_24
REMARK    7  A    between atoms: N_24  and  C_26
REMARK    8  A    between atoms: C_26  and  C_27
REMARK    9  A    between atoms: C_27  and  N_28
REMARK                            x       y       z     vdW  Elec       q    Type
REMARK                         _______ _______ _______ _____ _____    ______ ____
ROOT
ATOM      4  C   UNL     1      -2.716   0.768  24.695  0.00  0.00    +0.006 C 
ATOM      5  C   UNL     1      -2.011   1.198  24.675  0.00  0.00    +0.005 C 
ATOM      6  C   UNL     1      -1.321   0.872  24.988  0.00  0.00    +0.027 C 
ATOM     19  C   UNL     1      -1.335   0.117  25.322  0.00  0.00    -0.048 C 
ATOM     20  C   UNL     1      -0.645  -0.209  25.635  0.00  0.00    +0.026 C 
ATOM     21  C   UNL     1      -2.040  -0.311  25.341  0.00  0.00    -0.034 C 
ATOM     22  C   UNL     1      -2.730   0.014  25.028  0.00  0.00    +0.037 C 
ENDROOT
BRANCH   4   2
ATOM      1  C   UNL     1      -3.556   1.043  23.572  0.00  0.00    +0.000 C 
ATOM      2  C   UNL     1      -3.407   1.095  24.381  0.00  0.00    +0.000 C 
ATOM      3  C   UNL     1      -3.947   1.471  24.878  0.00  0.00    +0.000 C 
ENDBRANCH   4   2
BRANCH   6   7
ATOM      7  C   UNL     1      -0.617   1.300  24.968  0.00  0.00    +0.091 C 
BRANCH   7   8
ATOM      8  C   UNL     1      -0.594   2.072  25.258  0.00  0.00    +0.227 A 
ATOM      9  N   UNL     1      -0.257   2.312  25.972  0.00  0.00    -0.111 NA
ATOM     10  N   UNL     1      -0.359   3.127  26.041  0.00  0.00    -0.107 NA
ATOM     11  C   UNL     1      -0.759   3.392  25.370  0.00  0.00    +0.250 A 
ATOM     12  O   UNL     1      -0.904   2.739  24.886  0.00  0.00    -0.420 OA
BRANCH  11  13
ATOM     13  C   UNL     1      -0.976   4.171  25.209  0.00  0.00    +0.055 A 
ATOM     14  C   UNL     1      -1.700   4.462  25.480  0.00  0.00    +0.005 A 
ATOM     15  C   UNL     1      -1.917   5.242  25.320  0.00  0.00    +0.000 A 
ATOM     16  C   UNL     1      -1.411   5.730  24.889  0.00  0.00    +0.000 A 
ATOM     17  C   UNL     1      -0.688   5.441  24.619  0.00  0.00    +0.000 A 
ATOM     18  C   UNL     1      -0.470   4.661  24.779  0.00  0.00    +0.005 A 
ENDBRANCH  11  13
ENDBRANCH   7   8
ENDBRANCH   6   7
BRANCH  22  23
ATOM     23  C   UNL     1      -3.435  -0.415  25.048  0.00  0.00    +0.076 C 
BRANCH  23  24
ATOM     24  N   UNL     1      -3.436  -1.194  25.317  0.00  0.00    -0.270 NA
ATOM     25  C   UNL     1      -3.528  -1.353  26.121  0.00  0.00    +0.090 C 
BRANCH  24  26
ATOM     26  C   UNL     1      -3.344  -1.816  24.782  0.00  0.00    +0.090 C 
BRANCH  26  27
ATOM     27  C   UNL     1      -3.902  -2.423  24.755  0.00  0.00    +0.090 C 
BRANCH  27  28
ATOM     28  N   UNL     1      -3.891  -2.967  24.135  0.00  0.00    -0.269 NA
ATOM     29  C   UNL     1      -3.377  -3.612  24.160  0.00  0.00    +0.090 C 
ATOM     30  C   UNL     1      -4.394  -2.866  23.488  0.00  0.00    +0.090 C 
ENDBRANCH  27  28
ENDBRANCH  26  27
ENDBRANCH  24  26
ENDBRANCH  23  24
ENDBRANCH  22  23
TORSDOF 9
ENDMDL
MODEL 9
REMARK VINA RESULT:      -9.1      2.878      4.795
REMARK  Name = 
REMARK  9 active torsions:
REMARK  status: ('A' for Active; 'I' for Inactive)
REMARK    1  A    between atoms: C_2  and  C_4
REMARK    2  A    between atoms: C_6  and  C_7
REMARK    3  A    between atoms: C_7  and  C_8
REMARK    4  A    between atoms: C_11  and  C_13
REMARK    5  A    between atoms: C_22  and  C_23
REMARK    6  A    between atoms: C_23  and  N_24
REMARK    7  A    between atoms: N_24  and  C_26
REMARK    8  A    between atoms: C_26  and  C_27
REMARK    9  A    between atoms: C_27  and  N_28
REMARK                            x       y       z     vdW  Elec       q    Type
REMARK                         _______ _______ _______ _____ _____    ______ ____
ROOT
ATOM      4  C   UNL     1      -0.637   0.992  24.324  0.00  0.00    +0.006 C 
ATOM      5  C   UNL     1      -1.308   0.727  24.726  0.00  0.00    +0.005 C 
ATOM      6  C   UNL     1      -1.458  -0.082  24.788  0.00  0.00    +0.027 C 
ATOM     19  C   UNL     1      -0.937  -0.626  24.449  0.00  0.00    -0.048 C 
ATOM     20  C   UNL     1      -1.087  -1.434  24.511  0.00  0.00    +0.026 C 
ATOM     21  C   UNL     1      -0.268  -0.360  24.047  0.00  0.00    -0.034 C 
ATOM     22  C   UNL     1      -0.118   0.449  23.985  0.00  0.00    +0.037 C 
ENDROOT
BRANCH   4   2
ATOM      1  C   UNL     1      -0.811   2.234  23.638  0.00  0.00    +0.000 C 
ATOM      2  C   UNL     1      -0.487   1.802  24.261  0.00  0.00    +0.000 C 
ATOM      3  C   UNL     1      -0.013   2.177  24.822  0.00  0.00    +0.000 C 
ENDBRANCH   4   2
BRANCH   6   7
ATOM      7  C   UNL     1      -2.127  -0.347  25.190  0.00  0.00    +0.091 C 
BRANCH   7   8
ATOM      8  C   UNL     1      -2.876  -0.087  24.962  0.00  0.00    +0.227 A 
ATOM      9  N   UNL     1      -3.382  -0.469  24.435  0.00  0.00    -0.111 NA
ATOM     10  N   UNL     1      -4.069  -0.018  24.367  0.00  0.00    -0.107 NA
ATOM     11  C   UNL     1      -3.987   0.644  24.854  0.00  0.00    +0.250 A 
ATOM     12  O   UNL     1      -3.249   0.600  25.221  0.00  0.00    -0.420 OA
BRANCH  11  13
ATOM     13  C   UNL     1      -4.545   1.243  24.955  0.00  0.00    +0.055 A 
ATOM     14  C   UNL     1      -5.218   1.107  25.412  0.00  0.00    +0.005 A 
ATOM     15  C   UNL     1      -5.776   1.707  25.514  0.00  0.00    +0.000 A 
ATOM     16  C   UNL     1      -5.660   2.442  25.159  0.00  0.00    +0.000 A 
ATOM     17  C   UNL     1      -4.987   2.579  24.702  0.00  0.00    +0.000 A 
ATOM     18  C   UNL     1      -4.429   1.979  24.600  0.00  0.00    +0.005 A 
ENDBRANCH  11  13
ENDBRANCH   7   8
ENDBRANCH   6   7
BRANCH  22  23
ATOM     23  C   UNL     1       0.553   0.714  23.583  0.00  0.00    +0.076 C 
BRANCH  23  24
ATOM     24  N   UNL     1       0.990   0.191  23.120  0.00  0.00    -0.270 NA
ATOM     25  C   UNL     1       0.622  -0.233  22.516  0.00  0.00    +0.090 C 
BRANCH  24  26
ATOM     26  C   UNL     1       1.797   0.090  23.261  0.00  0.00    +0.090 C 
BRANCH  26  27
ATOM     27  C   UNL     1       2.336   0.158  22.641  0.00  0.00    +0.090 C 
BRANCH  27  28
ATOM     28  N   UNL     1       3.145   0.194  22.798  0.00  0.00    -0.269 NA
ATOM     29  C   UNL     1       3.539  -0.469  23.090  0.00  0.00    +0.090 C 
ATOM     30  C   UNL     1       3.561   0.895  22.663  0.00  0.00    +0.090 C 
ENDBRANCH  27  28
ENDBRANCH  26  27
ENDBRANCH  24  26
ENDBRANCH  23  24
ENDBRANCH  22  23
TORSDOF 9
ENDMDL
