MODEL 1
REMARK VINA RESULT:      -9.5      0.000      0.000
REMARK  Name = 
REMARK  5 active torsions:
REMARK  status: ('A' for Active; 'I' for Inactive)
REMARK    1  A    between atoms: N_6  and  C_7
REMARK    2  A    between atoms: C_7  and  C_8
REMARK    3  A    between atoms: C_20  and  C_21
REMARK    4  A    between atoms: C_21  and  C_22
REMARK    5  A    between atoms: C_22  and  C_23
REMARK                            x       y       z     vdW  Elec       q    Type
REMARK                         _______ _______ _______ _____ _____    ______ ____
ROOT
ATOM      1  C   UNL     1      -2.878   2.229  23.386  0.00  0.00    +0.090 C 
ATOM      2  N   UNL     1      -3.394   1.957  23.970  0.00  0.00    -0.271 NA
ATOM      3  C   UNL     1      -3.555   1.148  23.957  0.00  0.00    +0.083 C 
ATOM      4  C   UNL     1      -3.231   0.629  23.403  0.00  0.00    +0.035 C 
ATOM      5  C   UNL     1      -3.518  -0.128  23.564  0.00  0.00    +0.074 C 
ATOM      6  N   UNL     1      -4.020  -0.076  24.217  0.00  0.00    -0.262 NA
ATOM     15  C   UNL     1      -4.043   0.713  24.460  0.00  0.00    +0.151 C 
ATOM     16  C   UNL     1      -4.490   0.979  25.100  0.00  0.00    +0.257 C 
ATOM     17  O   UNL     1      -4.925   0.400  25.498  0.00  0.00    -0.272 OA
ATOM     18  N   UNL     1      -4.559   1.745  25.396  0.00  0.00    -0.203 NA
ATOM     19  C   UNL     1      -4.199   2.436  25.124  0.00  0.00    +0.131 C 
ATOM     20  C   UNL     1      -3.680   2.530  24.489  0.00  0.00    +0.080 C 
ENDROOT
BRANCH   6   7
ATOM      7  C   UNL     1      -4.427  -0.703  24.567  0.00  0.00    +0.100 C 
BRANCH   7   8
ATOM      8  C   UNL     1      -4.133  -1.471  24.506  0.00  0.00    -0.006 A 
ATOM      9  C   UNL     1      -4.374  -1.958  23.885  0.00  0.00    -0.003 A 
ATOM     10  C   UNL     1      -4.078  -2.725  23.825  0.00  0.00    -0.005 A 
ATOM     11  C   UNL     1      -3.542  -3.007  24.385  0.00  0.00    -0.022 A 
ATOM     12  C   UNL     1      -3.247  -3.774  24.325  0.00  0.00    +0.031 C 
ATOM     13  C   UNL     1      -3.301  -2.519  25.006  0.00  0.00    -0.005 A 
ATOM     14  C   UNL     1      -3.596  -1.752  25.067  0.00  0.00    -0.003 A 
ENDBRANCH   7   8
ENDBRANCH   6   7
BRANCH  20  21
ATOM     21  C   UNL     1      -3.413   3.300  24.357  0.00  0.00    +0.027 C 
BRANCH  21  22
ATOM     22  C   UNL     1      -2.881   3.647  24.883  0.00  0.00    +0.087 C 
BRANCH  22  23
ATOM     23  C   UNL     1      -2.681   4.444  24.801  0.00  0.00    +0.226 C 
ATOM     24  O   UNL     1      -3.263   4.999  24.614  0.00  0.00    -0.275 OA
ATOM     25  N   UNL     1      -1.899   4.684  24.906  0.00  0.00    -0.274 N 
ATOM     26  C   UNL     1      -1.698   5.481  24.823  0.00  0.00    +0.125 C 
ATOM     27  C   UNL     1      -0.916   5.722  24.928  0.00  0.00    +0.164 C 
ATOM     28  O   UNL     1      -0.335   5.167  25.115  0.00  0.00    -0.350 OA
ATOM     29  C   UNL     1      -0.536   4.371  25.197  0.00  0.00    +0.164 C 
ATOM     30  C   UNL     1      -1.318   4.130  25.092  0.00  0.00    +0.125 C 
ENDBRANCH  22  23
ENDBRANCH  21  22
ENDBRANCH  20  21
TORSDOF 5
ENDMDL
MODEL 2
REMARK VINA RESULT:      -9.5      3.389      4.746
REMARK  Name = 
REMARK  5 active torsions:
REMARK  status: ('A' for Active; 'I' for Inactive)
REMARK    1  A    between atoms: N_6  and  C_7
REMARK    2  A    between atoms: C_7  and  C_8
REMARK    3  A    between atoms: C_20  and  C_21
REMARK    4  A    between atoms: C_21  and  C_22
REMARK    5  A    between atoms: C_22  and  C_23
REMARK                            x       y       z     vdW  Elec       q    Type
REMARK                         _______ _______ _______ _____ _____    ______ ____
ROOT
ATOM      1  C   UNL     1      -1.137  -0.325  24.607  0.00  0.00    +0.090 C 
ATOM      2  N   UNL     1      -1.311   0.394  24.240  0.00  0.00    -0.271 NA
ATOM      3  C   UNL     1      -2.051   0.714  24.413  0.00  0.00    +0.083 C 
ATOM      4  C   UNL     1      -2.596   0.354  24.918  0.00  0.00    +0.035 C 
ATOM      5  C   UNL     1      -3.266   0.833  24.955  0.00  0.00    +0.074 C 
ATOM      6  N   UNL     1      -3.136   1.490  24.473  0.00  0.00    -0.262 NA
ATOM     15  C   UNL     1      -2.385   1.416  24.138  0.00  0.00    +0.151 C 
ATOM     16  C   UNL     1      -2.061   1.972  23.621  0.00  0.00    +0.257 C 
ATOM     17  O   UNL     1      -2.539   2.623  23.451  0.00  0.00    -0.272 OA
ATOM     18  N   UNL     1      -1.324   1.963  23.252  0.00  0.00    -0.203 NA
ATOM     19  C   UNL     1      -0.728   1.395  23.309  0.00  0.00    +0.131 C 
ATOM     20  C   UNL     1      -0.722   0.697  23.748  0.00  0.00    +0.080 C 
ENDROOT
BRANCH   6   7
ATOM      7  C   UNL     1      -3.664   2.112  24.347  0.00  0.00    +0.100 C 
BRANCH   7   8
ATOM      8  C   UNL     1      -4.359   2.157  24.789  0.00  0.00    -0.006 A 
ATOM      9  C   UNL     1      -5.000   1.672  24.604  0.00  0.00    -0.003 A 
ATOM     10  C   UNL     1      -5.693   1.718  25.046  0.00  0.00    -0.005 A 
ATOM     11  C   UNL     1      -5.749   2.249  25.674  0.00  0.00    -0.022 A 
ATOM     12  C   UNL     1      -6.443   2.296  26.116  0.00  0.00    +0.031 C 
ATOM     13  C   UNL     1      -5.108   2.735  25.859  0.00  0.00    -0.005 A 
ATOM     14  C   UNL     1      -4.414   2.690  25.418  0.00  0.00    -0.003 A 
ENDBRANCH   7   8
ENDBRANCH   6   7
BRANCH  20  21
ATOM     21  C   UNL     1      -0.036   0.242  23.688  0.00  0.00    +0.027 C 
BRANCH  21  22
ATOM     22  C   UNL     1       0.642   0.563  23.346  0.00  0.00    +0.087 C 
BRANCH  22  23
ATOM     23  C   UNL     1       1.177   0.073  22.952  0.00  0.00    +0.226 C 
ATOM     24  O   UNL     1       0.926  -0.652  22.648  0.00  0.00    -0.275 OA
ATOM     25  N   UNL     1       1.963   0.309  22.862  0.00  0.00    -0.274 N 
ATOM     26  C   UNL     1       2.497  -0.182  22.468  0.00  0.00    +0.125 C 
ATOM     27  C   UNL     1       3.283   0.054  22.377  0.00  0.00    +0.164 C 
ATOM     28  O   UNL     1       3.534   0.779  22.681  0.00  0.00    -0.350 OA
ATOM     29  C   UNL     1       2.999   1.269  23.075  0.00  0.00    +0.164 C 
ATOM     30  C   UNL     1       2.214   1.033  23.165  0.00  0.00    +0.125 C 
ENDBRANCH  22  23
ENDBRANCH  21  22
ENDBRANCH  20  21
TORSDOF 5
ENDMDL
MODEL 3
REMARK VINA RESULT:      -9.5      2.197      6.242
REMARK  Name = 
REMARK  5 active torsions:
REMARK  status: ('A' for Active; 'I' for Inactive)
REMARK    1  A    between atoms: N_6  and  C_7
REMARK    2  A    between atoms: C_7  and  C_8
REMARK    3  A    between atoms: C_20  and  C_21
REMARK    4  A    between atoms: C_21  and  C_22
REMARK    5  A    between atoms: C_22  and  C_23
REMARK                            x       y       z     vdW  Elec       q    Type
REMARK                         _______ _______ _______ _____ _____    ______ ____
ROOT
ATOM      1  C   UNL     1      -1.200   0.260  23.488  0.00  0.00    +0.090 C 
ATOM      2  N   UNL     1      -1.069   0.510  24.264  0.00  0.00    -0.271 NA
ATOM      3  C   UNL     1      -0.923   1.316  24.361  0.00  0.00    +0.083 C 
ATOM      4  C   UNL     1      -0.905   1.853  23.735  0.00  0.00    +0.035 C 
ATOM      5  C   UNL     1      -0.744   2.600  24.044  0.00  0.00    +0.074 C 
ATOM      6  N   UNL     1      -0.663   2.525  24.862  0.00  0.00    -0.262 NA
ATOM     15  C   UNL     1      -0.774   1.731  25.058  0.00  0.00    +0.151 C 
ATOM     16  C   UNL     1      -0.734   1.443  25.830  0.00  0.00    +0.257 C 
ATOM     17  O   UNL     1      -0.573   2.005  26.413  0.00  0.00    -0.272 OA
ATOM     18  N   UNL     1      -0.833   0.669  26.096  0.00  0.00    -0.203 NA
ATOM     19  C   UNL     1      -0.997  -0.010  25.655  0.00  0.00    +0.131 C 
ATOM     20  C   UNL     1      -1.102  -0.080  24.840  0.00  0.00    +0.080 C 
ENDROOT
BRANCH   6   7
ATOM      7  C   UNL     1      -0.500   3.137  25.392  0.00  0.00    +0.100 C 
BRANCH   7   8
ATOM      8  C   UNL     1      -0.823   3.886  25.269  0.00  0.00    -0.006 A 
ATOM      9  C   UNL     1      -0.388   4.463  24.871  0.00  0.00    -0.003 A 
ATOM     10  C   UNL     1      -0.712   5.211  24.748  0.00  0.00    -0.005 A 
ATOM     11  C   UNL     1      -1.471   5.384  25.022  0.00  0.00    -0.022 A 
ATOM     12  C   UNL     1      -1.794   6.131  24.899  0.00  0.00    +0.031 C 
ATOM     13  C   UNL     1      -1.906   4.806  25.420  0.00  0.00    -0.005 A 
ATOM     14  C   UNL     1      -1.583   4.058  25.543  0.00  0.00    -0.003 A 
ENDBRANCH   7   8
ENDBRANCH   6   7
BRANCH  20  21
ATOM     21  C   UNL     1      -1.261  -0.842  24.565  0.00  0.00    +0.027 C 
BRANCH  21  22
ATOM     22  C   UNL     1      -1.940  -1.237  24.817  0.00  0.00    +0.087 C 
BRANCH  22  23
ATOM     23  C   UNL     1      -2.073  -2.017  24.581  0.00  0.00    +0.226 C 
ATOM     24  O   UNL     1      -1.444  -2.549  24.536  0.00  0.00    -0.275 OA
ATOM     25  N   UNL     1      -2.837  -2.265  24.392  0.00  0.00    -0.274 N 
ATOM     26  C   UNL     1      -2.971  -3.045  24.156  0.00  0.00    +0.125 C 
ATOM     27  C   UNL     1      -3.735  -3.293  23.967  0.00  0.00    +0.164 C 
ATOM     28  O   UNL     1      -4.365  -2.761  24.012  0.00  0.00    -0.350 OA
ATOM     29  C   UNL     1      -4.230  -1.982  24.247  0.00  0.00    +0.164 C 
ATOM     30  C   UNL     1      -3.466  -1.734  24.437  0.00  0.00    +0.125 C 
ENDBRANCH  22  23
ENDBRANCH  21  22
ENDBRANCH  20  21
TORSDOF 5
ENDMDL
MODEL 4
REMARK VINA RESULT:      -9.2      1.237      5.831
REMARK  Name = 
REMARK  5 active torsions:
REMARK  status: ('A' for Active; 'I' for Inactive)
REMARK    1  A    between atoms: N_6  and  C_7
REMARK    2  A    between atoms: C_7  and  C_8
REMARK    3  A    between atoms: C_20  and  C_21
REMARK    4  A    between atoms: C_21  and  C_22
REMARK    5  A    between atoms: C_22  and  C_23
REMARK                            x       y       z     vdW  Elec       q    Type
REMARK                         _______ _______ _______ _____ _____    ______ ____
ROOT
ATOM      1  C   UNL     1      -3.143   0.677  23.148  0.00  0.00    +0.090 C 
ATOM      2  N   UNL     1      -3.464   1.044  23.816  0.00  0.00    -0.271 NA
ATOM      3  C   UNL     1      -3.169   1.795  23.987  0.00  0.00    +0.083 C 
ATOM      4  C   UNL     1      -2.592   2.172  23.533  0.00  0.00    +0.035 C 
ATOM      5  C   UNL     1      -2.441   2.908  23.872  0.00  0.00    +0.074 C 
ATOM      6  N   UNL     1      -2.924   2.986  24.537  0.00  0.00    -0.262 NA
ATOM     15  C   UNL     1      -3.374   2.298  24.608  0.00  0.00    +0.151 C 
ATOM     16  C   UNL     1      -3.923   2.174  25.210  0.00  0.00    +0.257 C 
ATOM     17  O   UNL     1      -4.003   2.790  25.755  0.00  0.00    -0.272 OA
ATOM     18  N   UNL     1      -4.404   1.517  25.341  0.00  0.00    -0.203 NA
ATOM     19  C   UNL     1      -4.453   0.820  24.901  0.00  0.00    +0.131 C 
ATOM     20  C   UNL     1      -4.035   0.610  24.222  0.00  0.00    +0.080 C 
ENDROOT
BRANCH   6   7
ATOM      7  C   UNL     1      -2.952   3.638  25.043  0.00  0.00    +0.100 C 
BRANCH   7   8
ATOM      8  C   UNL     1      -2.351   4.203  25.020  0.00  0.00    -0.006 A 
ATOM      9  C   UNL     1      -2.497   4.948  24.698  0.00  0.00    -0.003 A 
ATOM     10  C   UNL     1      -1.896   5.512  24.676  0.00  0.00    -0.005 A 
ATOM     11  C   UNL     1      -1.149   5.332  24.975  0.00  0.00    -0.022 A 
ATOM     12  C   UNL     1      -0.548   5.896  24.953  0.00  0.00    +0.031 C 
ATOM     13  C   UNL     1      -1.004   4.586  25.298  0.00  0.00    -0.005 A 
ATOM     14  C   UNL     1      -1.604   4.022  25.320  0.00  0.00    -0.003 A 
ENDBRANCH   7   8
ENDBRANCH   6   7
BRANCH  20  21
ATOM     21  C   UNL     1      -4.212  -0.133  23.909  0.00  0.00    +0.027 C 
BRANCH  21  22
ATOM     22  C   UNL     1      -4.217  -0.797  24.400  0.00  0.00    +0.087 C 
BRANCH  22  23
ATOM     23  C   UNL     1      -4.197  -1.553  24.070  0.00  0.00    +0.226 C 
ATOM     24  O   UNL     1      -4.525  -1.688  23.325  0.00  0.00    -0.275 OA
ATOM     25  N   UNL     1      -3.848  -2.174  24.486  0.00  0.00    -0.274 N 
ATOM     26  C   UNL     1      -3.828  -2.931  24.157  0.00  0.00    +0.125 C 
ATOM     27  C   UNL     1      -3.479  -3.552  24.573  0.00  0.00    +0.164 C 
ATOM     28  O   UNL     1      -3.150  -3.417  25.318  0.00  0.00    -0.350 OA
ATOM     29  C   UNL     1      -3.171  -2.661  25.647  0.00  0.00    +0.164 C 
ATOM     30  C   UNL     1      -3.520  -2.040  25.230  0.00  0.00    +0.125 C 
ENDBRANCH  22  23
ENDBRANCH  21  22
ENDBRANCH  20  21
TORSDOF 5
ENDMDL
MODEL 5
REMARK VINA RESULT:      -9.1      1.420      1.804
REMARK  Name = 
REMARK  5 active torsions:
REMARK  status: ('A' for Active; 'I' for Inactive)
REMARK    1  A    between atoms: N_6  and  C_7
REMARK    2  A    between atoms: C_7  and  C_8
REMARK    3  A    between atoms: C_20  and  C_21
REMARK    4  A    between atoms: C_21  and  C_22
REMARK    5  A    between atoms: C_22  and  C_23
REMARK                            x       y       z     vdW  Elec       q    Type
REMARK                         _______ _______ _______ _____ _____    ______ ____
ROOT
ATOM      1  C   UNL     1      -0.571   0.847  24.990  0.00  0.00    +0.090 C 
ATOM      2  N   UNL     1      -1.391   0.934  25.033  0.00  0.00    -0.271 NA
ATOM      3  C   UNL     1      -1.824   0.233  25.059  0.00  0.00    +0.083 C 
ATOM      4  C   UNL     1      -1.478  -0.516  25.045  0.00  0.00    +0.035 C 
ATOM      5  C   UNL     1      -2.081  -1.077  25.079  0.00  0.00    +0.074 C 
ATOM      6  N   UNL     1      -2.801  -0.675  25.115  0.00  0.00    -0.262 NA
ATOM     15  C   UNL     1      -2.642   0.135  25.103  0.00  0.00    +0.151 C 
ATOM     16  C   UNL     1      -3.228   0.714  25.131  0.00  0.00    +0.257 C 
ATOM     17  O   UNL     1      -4.004   0.436  25.174  0.00  0.00    -0.272 OA
ATOM     18  N   UNL     1      -3.142   1.534  25.123  0.00  0.00    -0.203 NA
ATOM     19  C   UNL     1      -2.447   1.978  25.084  0.00  0.00    +0.131 C 
ATOM     20  C   UNL     1      -1.668   1.711  25.044  0.00  0.00    +0.080 C 
ENDROOT
BRANCH   6   7
ATOM      7  C   UNL     1      -3.549  -1.021  25.157  0.00  0.00    +0.100 C 
BRANCH   7   8
ATOM      8  C   UNL     1      -3.696  -1.734  24.768  0.00  0.00    -0.006 A 
ATOM      9  C   UNL     1      -3.451  -2.446  25.105  0.00  0.00    -0.003 A 
ATOM     10  C   UNL     1      -3.598  -3.157  24.715  0.00  0.00    -0.005 A 
ATOM     11  C   UNL     1      -3.988  -3.158  23.988  0.00  0.00    -0.022 A 
ATOM     12  C   UNL     1      -4.135  -3.870  23.599  0.00  0.00    +0.031 C 
ATOM     13  C   UNL     1      -4.233  -2.445  23.652  0.00  0.00    -0.005 A 
ATOM     14  C   UNL     1      -4.087  -1.734  24.041  0.00  0.00    -0.003 A 
ENDBRANCH   7   8
ENDBRANCH   6   7
BRANCH  20  21
ATOM     21  C   UNL     1      -1.089   2.299  25.010  0.00  0.00    +0.027 C 
BRANCH  21  22
ATOM     22  C   UNL     1      -1.298   3.089  25.128  0.00  0.00    +0.087 C 
BRANCH  22  23
ATOM     23  C   UNL     1      -0.794   3.690  24.871  0.00  0.00    +0.226 C 
ATOM     24  O   UNL     1      -0.058   3.503  24.550  0.00  0.00    -0.275 OA
ATOM     25  N   UNL     1      -1.029   4.479  24.935  0.00  0.00    -0.274 N 
ATOM     26  C   UNL     1      -0.525   5.080  24.678  0.00  0.00    +0.125 C 
ATOM     27  C   UNL     1      -0.760   5.869  24.742  0.00  0.00    +0.164 C 
ATOM     28  O   UNL     1      -1.497   6.056  25.063  0.00  0.00    -0.350 OA
ATOM     29  C   UNL     1      -1.999   5.454  25.320  0.00  0.00    +0.164 C 
ATOM     30  C   UNL     1      -1.765   4.666  25.256  0.00  0.00    +0.125 C 
ENDBRANCH  22  23
ENDBRANCH  21  22
ENDBRANCH  20  21
TORSDOF 5
ENDMDL
MODEL 6
REMARK VINA RESULT:      -8.8      4.534      5.360
REMARK  Name = 
REMARK  5 active torsions:
REMARK  status: ('A' for Active; 'I' for Inactive)
REMARK    1  A    between atoms: N_6  and  C_7
REMARK    2  A    between atoms: C_7  and  C_8
REMARK    3  A    between atoms: C_20  and  C_21
REMARK    4  A    between atoms: C_21  and  C_22
REMARK    5  A    between atoms: C_22  and  C_23
REMARK                            x       y       z     vdW  Elec       q    Type
REMARK                         _______ _______ _______ _____ _____    ______ ____
ROOT
ATOM      1  C   UNL     1       0.862   1.762  23.907  0.00  0.00    +0.090 C 
ATOM      2  N   UNL     1       0.609   0.982  23.803  0.00  0.00    -0.271 NA
ATOM      3  C   UNL     1      -0.154   0.816  24.066  0.00  0.00    +0.083 C 
ATOM      4  C   UNL     1      -0.648   1.379  24.414  0.00  0.00    +0.035 C 
ATOM      5  C   UNL     1      -1.361   1.010  24.604  0.00  0.00    +0.074 C 
ATOM      6  N   UNL     1      -1.308   0.219  24.373  0.00  0.00    -0.262 NA
ATOM     15  C   UNL     1      -0.562   0.100  24.041  0.00  0.00    +0.151 C 
ATOM     16  C   UNL     1      -0.307  -0.627  23.746  0.00  0.00    +0.257 C 
ATOM     17  O   UNL     1      -0.850  -1.246  23.801  0.00  0.00    -0.272 OA
ATOM     18  N   UNL     1       0.418  -0.817  23.403  0.00  0.00    -0.203 NA
ATOM     19  C   UNL     1       1.069  -0.327  23.271  0.00  0.00    +0.131 C 
ATOM     20  C   UNL     1       1.154   0.474  23.449  0.00  0.00    +0.080 C 
ENDROOT
BRANCH   6   7
ATOM      7  C   UNL     1      -1.898  -0.352  24.460  0.00  0.00    +0.100 C 
BRANCH   7   8
ATOM      8  C   UNL     1      -2.675  -0.122  24.613  0.00  0.00    -0.006 A 
ATOM      9  C   UNL     1      -3.135   0.205  24.011  0.00  0.00    -0.003 A 
ATOM     10  C   UNL     1      -3.911   0.435  24.165  0.00  0.00    -0.005 A 
ATOM     11  C   UNL     1      -4.230   0.338  24.919  0.00  0.00    -0.022 A 
ATOM     12  C   UNL     1      -5.006   0.568  25.073  0.00  0.00    +0.031 C 
ATOM     13  C   UNL     1      -3.769   0.011  25.521  0.00  0.00    -0.005 A 
ATOM     14  C   UNL     1      -2.993  -0.219  25.368  0.00  0.00    -0.003 A 
ENDBRANCH   7   8
ENDBRANCH   6   7
BRANCH  20  21
ATOM     21  C   UNL     1       1.880   0.811  23.245  0.00  0.00    +0.027 C 
BRANCH  21  22
ATOM     22  C   UNL     1       2.540   0.329  23.132  0.00  0.00    +0.087 C 
BRANCH  22  23
ATOM     23  C   UNL     1       3.277   0.668  22.982  0.00  0.00    +0.226 C 
ATOM     24  O   UNL     1       3.324   1.416  22.636  0.00  0.00    -0.275 OA
ATOM     25  N   UNL     1       3.966   0.259  23.178  0.00  0.00    -0.274 N 
ATOM     26  C   UNL     1       4.703   0.599  23.028  0.00  0.00    +0.125 C 
ATOM     27  C   UNL     1       5.393   0.190  23.225  0.00  0.00    +0.164 C 
ATOM     28  O   UNL     1       5.345  -0.557  23.571  0.00  0.00    -0.350 OA
ATOM     29  C   UNL     1       4.608  -0.896  23.721  0.00  0.00    +0.164 C 
ATOM     30  C   UNL     1       3.919  -0.487  23.524  0.00  0.00    +0.125 C 
ENDBRANCH  22  23
ENDBRANCH  21  22
ENDBRANCH  20  21
TORSDOF 5
ENDMDL
