MODEL 1
REMARK VINA RESULT:     -12.7      0.000      0.000
REMARK  Name = 
REMARK  4 active torsions:
REMARK  status: ('A' for Active; 'I' for Inactive)
REMARK    1  A    between atoms: C_5  and  C_6
REMARK    2  A    between atoms: C_6  and  N_7
REMARK    3  A    between atoms: N_11  and  S_17
REMARK    4  A    between atoms: S_17  and  C_20
REMARK                            x       y       z     vdW  Elec       q    Type
REMARK                         _______ _______ _______ _____ _____    ______ ____
ROOT
ATOM      7  N   UNL     1      -3.761   3.000  24.739  0.00  0.00    -0.258 N 
ATOM      8  C   UNL     1      -3.312   2.333  24.554  0.00  0.00    +0.117 C 
ATOM      9  C   UNL     1      -3.779   1.666  24.685  0.00  0.00    +0.114 C 
ATOM     10  C   UNL     1      -3.628   0.860  24.596  0.00  0.00    +0.117 C 
ATOM     11  N   UNL     1      -4.215   0.308  24.773  0.00  0.00    -0.152 NA
ATOM     12  C   UNL     1      -4.953   0.563  25.039  0.00  0.00    +0.117 C 
ATOM     13  C   UNL     1      -5.105   1.369  25.128  0.00  0.00    +0.114 C 
ATOM     14  N   UNL     1      -4.517   1.921  24.950  0.00  0.00    -0.261 N 
ATOM     15  C   UNL     1      -4.506   2.744  24.984  0.00  0.00    +0.308 C 
ATOM     16  O   UNL     1      -5.131   3.229  25.221  0.00  0.00    -0.252 OA
ENDROOT
BRANCH  11  17
ATOM     17  S   UNL     1      -4.064  -0.498  24.684  0.00  0.00    +0.063 S 
ATOM     18  O   UNL     1      -4.070  -0.410  23.865  0.00  0.00    -0.153 OA
ATOM     19  O   UNL     1      -4.058  -0.586  25.505  0.00  0.00    -0.153 OA
BRANCH  17  20
ATOM     20  C   UNL     1      -3.914  -1.304  24.597  0.00  0.00    +0.122 A 
ATOM     21  C   UNL     1      -4.207  -1.711  23.942  0.00  0.00    +0.020 A 
ATOM     22  C   UNL     1      -4.055  -2.517  23.855  0.00  0.00    +0.001 A 
ATOM     23  C   UNL     1      -3.612  -2.917  24.424  0.00  0.00    +0.000 A 
ATOM     24  C   UNL     1      -3.318  -2.511  25.079  0.00  0.00    +0.001 A 
ATOM     25  C   UNL     1      -3.469  -1.705  25.166  0.00  0.00    +0.020 A 
ENDBRANCH  17  20
ENDBRANCH  11  17
BRANCH   7   6
ATOM      6  C   UNL     1      -3.510   3.784  24.688  0.00  0.00    +0.122 C 
BRANCH   6   5
ATOM      1  F   UNL     1      -0.388   4.568  25.416  0.00  0.00    -0.204 F 
ATOM      2  C   UNL     1      -1.169   4.372  25.235  0.00  0.00    +0.140 A 
ATOM      3  C   UNL     1      -1.746   4.390  25.823  0.00  0.00    +0.029 A 
ATOM      4  C   UNL     1      -2.527   4.194  25.642  0.00  0.00    -0.000 A 
ATOM      5  C   UNL     1      -2.730   3.980  24.871  0.00  0.00    -0.002 A 
ATOM     26  C   UNL     1      -2.151   3.961  24.282  0.00  0.00    -0.000 A 
ATOM     27  C   UNL     1      -1.371   4.157  24.465  0.00  0.00    +0.029 A 
ENDBRANCH   6   5
ENDBRANCH   7   6
TORSDOF 4
ENDMDL
MODEL 2
REMARK VINA RESULT:     -12.5      1.993      5.112
REMARK  Name = 
REMARK  4 active torsions:
REMARK  status: ('A' for Active; 'I' for Inactive)
REMARK    1  A    between atoms: C_5  and  C_6
REMARK    2  A    between atoms: C_6  and  N_7
REMARK    3  A    between atoms: N_11  and  S_17
REMARK    4  A    between atoms: S_17  and  C_20
REMARK                            x       y       z     vdW  Elec       q    Type
REMARK                         _______ _______ _______ _____ _____    ______ ____
ROOT
ATOM      7  N   UNL     1      -4.396   0.523  24.716  0.00  0.00    -0.258 N 
ATOM      8  C   UNL     1      -3.626   0.789  24.586  0.00  0.00    +0.117 C 
ATOM      9  C   UNL     1      -3.595   1.588  24.789  0.00  0.00    +0.114 C 
ATOM     10  C   UNL     1      -2.980   2.138  24.775  0.00  0.00    +0.117 C 
ATOM     11  N   UNL     1      -3.116   2.915  25.016  0.00  0.00    -0.152 NA
ATOM     12  C   UNL     1      -3.867   3.142  25.272  0.00  0.00    +0.117 C 
ATOM     13  C   UNL     1      -4.482   2.593  25.286  0.00  0.00    +0.114 C 
ATOM     14  N   UNL     1      -4.346   1.815  25.045  0.00  0.00    -0.261 N 
ATOM     15  C   UNL     1      -4.840   1.157  25.000  0.00  0.00    +0.308 C 
ATOM     16  O   UNL     1      -5.640   1.136  25.203  0.00  0.00    -0.252 OA
ENDROOT
BRANCH  11  17
ATOM     17  S   UNL     1      -2.501   3.465  25.002  0.00  0.00    +0.063 S 
ATOM     18  O   UNL     1      -2.319   3.282  25.784  0.00  0.00    -0.153 OA
ATOM     19  O   UNL     1      -2.685   3.648  24.218  0.00  0.00    -0.153 OA
BRANCH  17  20
ATOM     20  C   UNL     1      -1.887   4.016  24.986  0.00  0.00    +0.122 A 
ATOM     21  C   UNL     1      -2.044   4.813  25.128  0.00  0.00    +0.020 A 
ATOM     22  C   UNL     1      -1.429   5.363  25.112  0.00  0.00    +0.001 A 
ATOM     23  C   UNL     1      -0.658   5.116  24.954  0.00  0.00    +0.000 A 
ATOM     24  C   UNL     1      -0.502   4.319  24.813  0.00  0.00    +0.001 A 
ATOM     25  C   UNL     1      -1.116   3.768  24.828  0.00  0.00    +0.020 A 
ENDBRANCH  17  20
ENDBRANCH  11  17
BRANCH   7   6
ATOM      6  C   UNL     1      -4.673  -0.243  24.585  0.00  0.00    +0.122 C 
BRANCH   6   5
ATOM      1  F   UNL     1      -2.645  -2.820  24.961  0.00  0.00    -0.204 F 
ATOM      2  C   UNL     1      -3.152  -2.175  24.868  0.00  0.00    +0.140 A 
ATOM      3  C   UNL     1      -3.386  -1.736  25.525  0.00  0.00    +0.029 A 
ATOM      4  C   UNL     1      -3.893  -1.091  25.431  0.00  0.00    -0.000 A 
ATOM      5  C   UNL     1      -4.166  -0.887  24.680  0.00  0.00    -0.002 A 
ATOM     26  C   UNL     1      -3.931  -1.327  24.022  0.00  0.00    -0.000 A 
ATOM     27  C   UNL     1      -3.424  -1.971  24.117  0.00  0.00    +0.029 A 
ENDBRANCH   6   5
ENDBRANCH   7   6
TORSDOF 4
ENDMDL
MODEL 3
REMARK VINA RESULT:     -12.3      2.933      5.813
REMARK  Name = 
REMARK  4 active torsions:
REMARK  status: ('A' for Active; 'I' for Inactive)
REMARK    1  A    between atoms: C_5  and  C_6
REMARK    2  A    between atoms: C_6  and  N_7
REMARK    3  A    between atoms: N_11  and  S_17
REMARK    4  A    between atoms: S_17  and  C_20
REMARK                            x       y       z     vdW  Elec       q    Type
REMARK                         _______ _______ _______ _____ _____    ______ ____
ROOT
ATOM      7  N   UNL     1      -1.203  -0.718  25.112  0.00  0.00    -0.258 N 
ATOM      8  C   UNL     1      -1.626  -0.061  25.379  0.00  0.00    +0.117 C 
ATOM      9  C   UNL     1      -1.243   0.616  25.108  0.00  0.00    +0.114 C 
ATOM     10  C   UNL     1      -1.408   1.419  25.200  0.00  0.00    +0.117 C 
ATOM     11  N   UNL     1      -0.915   1.984  24.858  0.00  0.00    -0.152 NA
ATOM     12  C   UNL     1      -0.255   1.747  24.423  0.00  0.00    +0.117 C 
ATOM     13  C   UNL     1      -0.089   0.945  24.330  0.00  0.00    +0.114 C 
ATOM     14  N   UNL     1      -0.583   0.379  24.673  0.00  0.00    -0.261 N 
ATOM     15  C   UNL     1      -0.559  -0.445  24.675  0.00  0.00    +0.308 C 
ATOM     16  O   UNL     1       0.010  -0.915  24.306  0.00  0.00    -0.252 OA
ENDROOT
BRANCH  11  17
ATOM     17  S   UNL     1      -1.081   2.788  24.950  0.00  0.00    +0.063 S 
ATOM     18  O   UNL     1      -0.676   2.789  25.668  0.00  0.00    -0.153 OA
ATOM     19  O   UNL     1      -1.486   2.786  24.231  0.00  0.00    -0.153 OA
BRANCH  17  20
ATOM     20  C   UNL     1      -1.247   3.590  25.041  0.00  0.00    +0.122 A 
ATOM     21  C   UNL     1      -1.964   3.829  25.372  0.00  0.00    +0.020 A 
ATOM     22  C   UNL     1      -2.129   4.632  25.463  0.00  0.00    +0.001 A 
ATOM     23  C   UNL     1      -1.578   5.197  25.223  0.00  0.00    +0.000 A 
ATOM     24  C   UNL     1      -0.861   4.958  24.892  0.00  0.00    +0.001 A 
ATOM     25  C   UNL     1      -0.695   4.155  24.801  0.00  0.00    +0.020 A 
ENDBRANCH  17  20
ENDBRANCH  11  17
BRANCH   7   6
ATOM      6  C   UNL     1      -1.392  -1.508  25.256  0.00  0.00    +0.122 C 
BRANCH   6   5
ATOM      1  F   UNL     1      -4.345  -2.688  24.371  0.00  0.00    -0.204 F 
ATOM      2  C   UNL     1      -3.607  -2.393  24.593  0.00  0.00    +0.140 A 
ATOM      3  C   UNL     1      -3.527  -1.965  25.293  0.00  0.00    +0.029 A 
ATOM      4  C   UNL     1      -2.789  -1.669  25.515  0.00  0.00    -0.000 A 
ATOM      5  C   UNL     1      -2.131  -1.803  25.035  0.00  0.00    -0.002 A 
ATOM     26  C   UNL     1      -2.211  -2.231  24.334  0.00  0.00    -0.000 A 
ATOM     27  C   UNL     1      -2.949  -2.526  24.114  0.00  0.00    +0.029 A 
ENDBRANCH   6   5
ENDBRANCH   7   6
TORSDOF 4
ENDMDL
MODEL 4
REMARK VINA RESULT:     -12.2      2.111      2.637
REMARK  Name = 
REMARK  4 active torsions:
REMARK  status: ('A' for Active; 'I' for Inactive)
REMARK    1  A    between atoms: C_5  and  C_6
REMARK    2  A    between atoms: C_6  and  N_7
REMARK    3  A    between atoms: N_11  and  S_17
REMARK    4  A    between atoms: S_17  and  C_20
REMARK                            x       y       z     vdW  Elec       q    Type
REMARK                         _______ _______ _______ _____ _____    ______ ____
ROOT
ATOM      7  N   UNL     1      -0.657   2.121  25.496  0.00  0.00    -0.258 N 
ATOM      8  C   UNL     1      -1.407   1.783  25.565  0.00  0.00    +0.117 C 
ATOM      9  C   UNL     1      -1.391   1.049  25.189  0.00  0.00    +0.114 C 
ATOM     10  C   UNL     1      -1.969   0.471  25.082  0.00  0.00    +0.117 C 
ATOM     11  N   UNL     1      -1.789  -0.223  24.674  0.00  0.00    -0.152 NA
ATOM     12  C   UNL     1      -1.029  -0.339  24.374  0.00  0.00    +0.117 C 
ATOM     13  C   UNL     1      -0.450   0.239  24.481  0.00  0.00    +0.114 C 
ATOM     14  N   UNL     1      -0.631   0.933  24.889  0.00  0.00    -0.261 N 
ATOM     15  C   UNL     1      -0.178   1.595  25.078  0.00  0.00    +0.308 C 
ATOM     16  O   UNL     1       0.616   1.712  24.884  0.00  0.00    -0.252 OA
ENDROOT
BRANCH  11  17
ATOM     17  S   UNL     1      -2.367  -0.802  24.567  0.00  0.00    +0.063 S 
ATOM     18  O   UNL     1      -2.710  -0.349  23.969  0.00  0.00    -0.153 OA
ATOM     19  O   UNL     1      -2.024  -1.255  25.166  0.00  0.00    -0.153 OA
BRANCH  17  20
ATOM     20  C   UNL     1      -2.945  -1.381  24.460  0.00  0.00    +0.122 A 
ATOM     21  C   UNL     1      -2.832  -2.138  24.768  0.00  0.00    +0.020 A 
ATOM     22  C   UNL     1      -3.411  -2.717  24.660  0.00  0.00    +0.001 A 
ATOM     23  C   UNL     1      -4.101  -2.538  24.247  0.00  0.00    +0.000 A 
ATOM     24  C   UNL     1      -4.214  -1.781  23.940  0.00  0.00    +0.001 A 
ATOM     25  C   UNL     1      -3.636  -1.202  24.046  0.00  0.00    +0.020 A 
ENDBRANCH  17  20
ENDBRANCH  11  17
BRANCH   7   6
ATOM      6  C   UNL     1      -0.427   2.855  25.794  0.00  0.00    +0.122 C 
BRANCH   6   5
ATOM      1  F   UNL     1      -2.053   5.584  24.897  0.00  0.00    -0.204 F 
ATOM      2  C   UNL     1      -1.647   4.901  25.122  0.00  0.00    +0.140 A 
ATOM      3  C   UNL     1      -1.970   4.396  25.687  0.00  0.00    +0.029 A 
ATOM      4  C   UNL     1      -1.564   3.713  25.912  0.00  0.00    -0.000 A 
ATOM      5  C   UNL     1      -0.834   3.537  25.570  0.00  0.00    -0.002 A 
ATOM     26  C   UNL     1      -0.510   4.043  25.004  0.00  0.00    -0.000 A 
ATOM     27  C   UNL     1      -0.917   4.725  24.780  0.00  0.00    +0.029 A 
ENDBRANCH   6   5
ENDBRANCH   7   6
TORSDOF 4
ENDMDL
