MODEL 1
REMARK VINA RESULT:     -12.3      0.000      0.000
REMARK  Name = 
REMARK  4 active torsions:
REMARK  status: ('A' for Active; 'I' for Inactive)
REMARK    1  A    between atoms: C_2  and  N_3
REMARK    2  A    between atoms: N_6  and  C_7
REMARK    3  A    between atoms: C_13  and  N_16
REMARK    4  A    between atoms: N_19  and  C_22
REMARK                            x       y       z     vdW  Elec       q    Type
REMARK                         _______ _______ _______ _____ _____    ______ ____
ROOT
ATOM      7  C   UNL     1      -3.478   2.473  24.531  0.00  0.00    +0.158 C 
ATOM      8  C   UNL     1      -4.285   2.142  24.853  0.00  0.00    +0.170 C 
ATOM      9  C   UNL     1      -4.348   1.366  24.852  0.00  0.00    +0.176 C 
ATOM     10  O   UNL     1      -4.775   0.801  25.008  0.00  0.00    -0.327 OA
ATOM     11  C   UNL     1      -4.538   1.648  24.940  0.00  0.00    +0.253 C 
ATOM     12  O   UNL     1      -4.907   2.364  25.119  0.00  0.00    -0.327 OA
ATOM     13  C   UNL     1      -3.690   1.979  24.601  0.00  0.00    +0.147 C 
ATOM     14  C   UNL     1      -3.110   1.753  24.353  0.00  0.00    +0.194 C 
ATOM     15  O   UNL     1      -2.533   1.222  24.095  0.00  0.00    -0.220 OA
ENDROOT
BRANCH  13  16
ATOM     16  N   UNL     1      -3.699   1.155  24.575  0.00  0.00    -0.265 NA
ATOM     17  C   UNL     1      -3.523   0.718  25.253  0.00  0.00    +0.094 C 
ATOM     18  C   UNL     1      -3.531  -0.106  25.227  0.00  0.00    +0.108 C 
ATOM     19  N   UNL     1      -3.716  -0.494  24.523  0.00  0.00    -0.305 N 
ATOM     20  C   UNL     1      -3.893  -0.059  23.846  0.00  0.00    +0.108 C 
ATOM     21  C   UNL     1      -3.884   0.766  23.872  0.00  0.00    +0.094 C 
BRANCH  19  22
ATOM     22  C   UNL     1      -3.725  -1.319  24.496  0.00  0.00    +0.048 A 
ATOM     23  C   UNL     1      -3.310  -1.754  25.061  0.00  0.00    +0.015 A 
ATOM     24  C   UNL     1      -3.319  -2.579  25.035  0.00  0.00    +0.001 A 
ATOM     25  C   UNL     1      -3.742  -2.968  24.444  0.00  0.00    +0.000 A 
ATOM     26  C   UNL     1      -4.157  -2.533  23.878  0.00  0.00    +0.001 A 
ATOM     27  C   UNL     1      -4.148  -1.709  23.905  0.00  0.00    +0.015 A 
ENDBRANCH  19  22
ENDBRANCH  13  16
BRANCH   7   6
ATOM      3  N   UNL     1      -2.330   4.303  24.843  0.00  0.00    -0.187 NA
ATOM      4  C   UNL     1      -2.598   3.528  24.926  0.00  0.00    +0.339 C 
ATOM      5  O   UNL     1      -2.253   3.029  25.486  0.00  0.00    -0.249 OA
ATOM      6  N   UNL     1      -3.211   3.250  24.448  0.00  0.00    -0.184 NA
BRANCH   3   2
ATOM      1  C   UNL     1      -1.309   5.267  25.111  0.00  0.00    +0.025 C 
ATOM      2  C   UNL     1      -1.717   4.581  25.321  0.00  0.00    +0.117 C 
ENDBRANCH   3   2
ENDBRANCH   7   6
TORSDOF 4
ENDMDL
MODEL 2
REMARK VINA RESULT:     -11.4      0.853      4.584
REMARK  Name = 
REMARK  4 active torsions:
REMARK  status: ('A' for Active; 'I' for Inactive)
REMARK    1  A    between atoms: C_2  and  N_3
REMARK    2  A    between atoms: N_6  and  C_7
REMARK    3  A    between atoms: C_13  and  N_16
REMARK    4  A    between atoms: N_19  and  C_22
REMARK                            x       y       z     vdW  Elec       q    Type
REMARK                         _______ _______ _______ _____ _____    ______ ____
ROOT
ATOM      7  C   UNL     1      -3.794   0.484  24.218  0.00  0.00    +0.158 C 
ATOM      8  C   UNL     1      -4.294   1.147  24.636  0.00  0.00    +0.170 C 
ATOM      9  C   UNL     1      -3.915   1.812  24.771  0.00  0.00    +0.176 C 
ATOM     10  O   UNL     1      -3.962   2.482  25.045  0.00  0.00    -0.327 OA
ATOM     11  C   UNL     1      -4.233   1.674  24.820  0.00  0.00    +0.253 C 
ATOM     12  O   UNL     1      -4.947   1.267  24.893  0.00  0.00    -0.327 OA
ATOM     13  C   UNL     1      -3.698   0.991  24.383  0.00  0.00    +0.147 C 
ATOM     14  C   UNL     1      -3.078   0.895  24.146  0.00  0.00    +0.194 C 
ATOM     15  O   UNL     1      -2.291   1.050  23.952  0.00  0.00    -0.220 OA
ENDROOT
BRANCH  13  16
ATOM     16  N   UNL     1      -3.245   1.670  24.500  0.00  0.00    -0.265 NA
ATOM     17  C   UNL     1      -2.834   1.776  25.208  0.00  0.00    +0.094 C 
ATOM     18  C   UNL     1      -2.381   2.456  25.325  0.00  0.00    +0.108 C 
ATOM     19  N   UNL     1      -2.338   3.029  24.733  0.00  0.00    -0.305 N 
ATOM     20  C   UNL     1      -2.748   2.924  24.026  0.00  0.00    +0.108 C 
ATOM     21  C   UNL     1      -3.202   2.245  23.909  0.00  0.00    +0.094 C 
BRANCH  19  22
ATOM     22  C   UNL     1      -1.885   3.709  24.849  0.00  0.00    +0.048 A 
ATOM     23  C   UNL     1      -1.077   3.700  24.679  0.00  0.00    +0.015 A 
ATOM     24  C   UNL     1      -0.623   4.379  24.795  0.00  0.00    +0.001 A 
ATOM     25  C   UNL     1      -0.977   5.067  25.080  0.00  0.00    +0.000 A 
ATOM     26  C   UNL     1      -1.785   5.076  25.250  0.00  0.00    +0.001 A 
ATOM     27  C   UNL     1      -2.238   4.398  25.134  0.00  0.00    +0.015 A 
ENDBRANCH  19  22
ENDBRANCH  13  16
BRANCH   7   6
ATOM      3  N   UNL     1      -3.927  -1.694  24.186  0.00  0.00    -0.187 NA
ATOM      4  C   UNL     1      -3.721  -0.930  24.415  0.00  0.00    +0.339 C 
ATOM      5  O   UNL     1      -3.235  -0.812  25.073  0.00  0.00    -0.249 OA
ATOM      6  N   UNL     1      -4.000  -0.282  23.988  0.00  0.00    -0.184 NA
BRANCH   3   2
ATOM      1  C   UNL     1      -3.675  -3.098  24.283  0.00  0.00    +0.025 C 
ATOM      2  C   UNL     1      -3.647  -2.343  24.613  0.00  0.00    +0.117 C 
ENDBRANCH   3   2
ENDBRANCH   7   6
TORSDOF 4
ENDMDL
MODEL 3
REMARK VINA RESULT:     -11.3      1.557      2.107
REMARK  Name = 
REMARK  4 active torsions:
REMARK  status: ('A' for Active; 'I' for Inactive)
REMARK    1  A    between atoms: C_2  and  N_3
REMARK    2  A    between atoms: N_6  and  C_7
REMARK    3  A    between atoms: C_13  and  N_16
REMARK    4  A    between atoms: N_19  and  C_22
REMARK                            x       y       z     vdW  Elec       q    Type
REMARK                         _______ _______ _______ _____ _____    ______ ____
ROOT
ATOM      7  C   UNL     1      -1.152   1.852  24.858  0.00  0.00    +0.158 C 
ATOM      8  C   UNL     1      -0.940   1.194  25.479  0.00  0.00    +0.170 C 
ATOM      9  C   UNL     1      -1.338   0.529  25.406  0.00  0.00    +0.176 C 
ATOM     10  O   UNL     1      -1.441  -0.138  25.671  0.00  0.00    -0.327 OA
ATOM     11  C   UNL     1      -1.089   0.668  25.610  0.00  0.00    +0.253 C 
ATOM     12  O   UNL     1      -0.513   1.077  26.036  0.00  0.00    -0.327 OA
ATOM     13  C   UNL     1      -1.321   1.346  24.955  0.00  0.00    +0.147 C 
ATOM     14  C   UNL     1      -1.731   1.439  24.432  0.00  0.00    +0.194 C 
ATOM     15  O   UNL     1      -2.307   1.282  23.862  0.00  0.00    -0.220 OA
ENDROOT
BRANCH  13  16
ATOM     16  N   UNL     1      -1.773   0.668  24.828  0.00  0.00    -0.265 NA
ATOM     17  C   UNL     1      -2.509   0.587  25.192  0.00  0.00    +0.094 C 
ATOM     18  C   UNL     1      -2.961  -0.091  25.065  0.00  0.00    +0.108 C 
ATOM     19  N   UNL     1      -2.676  -0.690  24.574  0.00  0.00    -0.305 N 
ATOM     20  C   UNL     1      -1.940  -0.610  24.210  0.00  0.00    +0.108 C 
ATOM     21  C   UNL     1      -1.489   0.068  24.337  0.00  0.00    +0.094 C 
BRANCH  19  22
ATOM     22  C   UNL     1      -3.127  -1.369  24.446  0.00  0.00    +0.048 A 
ATOM     23  C   UNL     1      -3.829  -1.322  24.015  0.00  0.00    +0.015 A 
ATOM     24  C   UNL     1      -4.281  -2.001  23.886  0.00  0.00    +0.001 A 
ATOM     25  C   UNL     1      -4.030  -2.726  24.190  0.00  0.00    +0.000 A 
ATOM     26  C   UNL     1      -3.328  -2.772  24.622  0.00  0.00    +0.001 A 
ATOM     27  C   UNL     1      -2.878  -2.094  24.749  0.00  0.00    +0.015 A 
ENDBRANCH  19  22
ENDBRANCH  13  16
BRANCH   7   6
ATOM      3  N   UNL     1      -1.000   4.029  24.909  0.00  0.00    -0.187 NA
ATOM      4  C   UNL     1      -1.297   3.266  25.007  0.00  0.00    +0.339 C 
ATOM      5  O   UNL     1      -2.039   3.153  25.351  0.00  0.00    -0.249 OA
ATOM      6  N   UNL     1      -0.854   2.615  24.760  0.00  0.00    -0.184 NA
BRANCH   3   2
ATOM      1  C   UNL     1      -1.190   5.444  24.977  0.00  0.00    +0.025 C 
ATOM      2  C   UNL     1      -1.443   4.679  25.156  0.00  0.00    +0.117 C 
ENDBRANCH   3   2
ENDBRANCH   7   6
TORSDOF 4
ENDMDL
MODEL 4
REMARK VINA RESULT:     -10.9      1.899      5.176
REMARK  Name = 
REMARK  4 active torsions:
REMARK  status: ('A' for Active; 'I' for Inactive)
REMARK    1  A    between atoms: C_2  and  N_3
REMARK    2  A    between atoms: N_6  and  C_7
REMARK    3  A    between atoms: C_13  and  N_16
REMARK    4  A    between atoms: N_19  and  C_22
REMARK                            x       y       z     vdW  Elec       q    Type
REMARK                         _______ _______ _______ _____ _____    ______ ____
ROOT
ATOM      7  C   UNL     1      -1.394  -0.210  24.879  0.00  0.00    +0.158 C 
ATOM      8  C   UNL     1      -0.668   0.166  24.439  0.00  0.00    +0.170 C 
ATOM      9  C   UNL     1      -0.635   0.943  24.458  0.00  0.00    +0.176 C 
ATOM     10  O   UNL     1      -0.264   1.532  24.254  0.00  0.00    -0.327 OA
ATOM     11  C   UNL     1      -0.453   0.673  24.329  0.00  0.00    +0.253 C 
ATOM     12  O   UNL     1      -0.091  -0.020  24.066  0.00  0.00    -0.327 OA
ATOM     13  C   UNL     1      -1.217   0.294  24.793  0.00  0.00    +0.147 C 
ATOM     14  C   UNL     1      -1.756   0.487  25.143  0.00  0.00    +0.194 C 
ATOM     15  O   UNL     1      -2.301   0.984  25.513  0.00  0.00    -0.220 OA
ENDROOT
BRANCH  13  16
ATOM     16  N   UNL     1      -1.237   1.117  24.847  0.00  0.00    -0.265 NA
ATOM     17  C   UNL     1      -0.915   1.495  25.506  0.00  0.00    +0.094 C 
ATOM     18  C   UNL     1      -0.934   2.318  25.560  0.00  0.00    +0.108 C 
ATOM     19  N   UNL     1      -1.276   2.763  24.955  0.00  0.00    -0.305 N 
ATOM     20  C   UNL     1      -1.598   2.386  24.297  0.00  0.00    +0.108 C 
ATOM     21  C   UNL     1      -1.578   1.563  24.242  0.00  0.00    +0.094 C 
BRANCH  19  22
ATOM     22  C   UNL     1      -1.296   3.586  25.009  0.00  0.00    +0.048 A 
ATOM     23  C   UNL     1      -1.959   3.963  25.325  0.00  0.00    +0.015 A 
ATOM     24  C   UNL     1      -1.980   4.786  25.378  0.00  0.00    +0.001 A 
ATOM     25  C   UNL     1      -1.338   5.232  25.116  0.00  0.00    +0.000 A 
ATOM     26  C   UNL     1      -0.675   4.856  24.800  0.00  0.00    +0.001 A 
ATOM     27  C   UNL     1      -0.655   4.034  24.746  0.00  0.00    +0.015 A 
ENDBRANCH  19  22
ENDBRANCH  13  16
BRANCH   7   6
ATOM      3  N   UNL     1      -2.542  -2.063  24.755  0.00  0.00    -0.187 NA
ATOM      4  C   UNL     1      -2.323  -1.275  24.657  0.00  0.00    +0.339 C 
ATOM      5  O   UNL     1      -2.813  -0.759  24.238  0.00  0.00    -0.249 OA
ATOM      6  N   UNL     1      -1.613  -1.000  24.978  0.00  0.00    -0.184 NA
BRANCH   3   2
ATOM      1  C   UNL     1      -3.489  -3.116  24.566  0.00  0.00    +0.025 C 
ATOM      2  C   UNL     1      -3.251  -2.338  24.435  0.00  0.00    +0.117 C 
ENDBRANCH   3   2
ENDBRANCH   7   6
TORSDOF 4
ENDMDL
MODEL 5
REMARK VINA RESULT:     -10.0      2.589      3.953
REMARK  Name = 
REMARK  4 active torsions:
REMARK  status: ('A' for Active; 'I' for Inactive)
REMARK    1  A    between atoms: C_2  and  N_3
REMARK    2  A    between atoms: N_6  and  C_7
REMARK    3  A    between atoms: C_13  and  N_16
REMARK    4  A    between atoms: N_19  and  C_22
REMARK                            x       y       z     vdW  Elec       q    Type
REMARK                         _______ _______ _______ _____ _____    ______ ____
ROOT
ATOM      7  C   UNL     1      -0.868  -0.042  24.135  0.00  0.00    +0.158 C 
ATOM      8  C   UNL     1      -1.168  -0.163  25.006  0.00  0.00    +0.170 C 
ATOM      9  C   UNL     1      -1.824   0.214  25.185  0.00  0.00    +0.176 C 
ATOM     10  O   UNL     1      -2.313   0.352  25.704  0.00  0.00    -0.327 OA
ATOM     11  C   UNL     1      -1.591   0.000  25.337  0.00  0.00    +0.253 C 
ATOM     12  O   UNL     1      -0.995  -0.502  25.608  0.00  0.00    -0.327 OA
ATOM     13  C   UNL     1      -1.290   0.135  24.424  0.00  0.00    +0.147 C 
ATOM     14  C   UNL     1      -1.467   0.462  23.865  0.00  0.00    +0.194 C 
ATOM     15  O   UNL     1      -1.902   0.944  23.355  0.00  0.00    -0.220 OA
ENDROOT
BRANCH  13  16
ATOM     16  N   UNL     1      -1.987   0.557  24.554  0.00  0.00    -0.265 NA
ATOM     17  C   UNL     1      -1.955   1.321  24.867  0.00  0.00    +0.094 C 
ATOM     18  C   UNL     1      -2.652   1.743  24.997  0.00  0.00    +0.108 C 
ATOM     19  N   UNL     1      -3.381   1.401  24.815  0.00  0.00    -0.305 N 
ATOM     20  C   UNL     1      -3.413   0.639  24.503  0.00  0.00    +0.108 C 
ATOM     21  C   UNL     1      -2.716   0.217  24.373  0.00  0.00    +0.094 C 
BRANCH  19  22
ATOM     22  C   UNL     1      -4.078   1.823  24.945  0.00  0.00    +0.048 A 
ATOM     23  C   UNL     1      -4.801   1.425  24.969  0.00  0.00    +0.015 A 
ATOM     24  C   UNL     1      -5.499   1.846  25.099  0.00  0.00    +0.001 A 
ATOM     25  C   UNL     1      -5.474   2.663  25.205  0.00  0.00    +0.000 A 
ATOM     26  C   UNL     1      -4.751   3.061  25.182  0.00  0.00    +0.001 A 
ATOM     27  C   UNL     1      -4.054   2.640  25.052  0.00  0.00    +0.015 A 
ENDBRANCH  19  22
ENDBRANCH  13  16
BRANCH   7   6
ATOM      3  N   UNL     1       1.077  -0.147  23.150  0.00  0.00    -0.187 NA
ATOM      4  C   UNL     1       0.416   0.156  23.537  0.00  0.00    +0.339 C 
ATOM      5  O   UNL     1       0.373   0.961  23.715  0.00  0.00    -0.249 OA
ATOM      6  N   UNL     1      -0.205  -0.346  23.747  0.00  0.00    -0.184 NA
BRANCH   3   2
ATOM      1  C   UNL     1       2.356   0.053  22.543  0.00  0.00    +0.025 C 
ATOM      2  C   UNL     1       1.698   0.354  22.940  0.00  0.00    +0.117 C 
ENDBRANCH   3   2
ENDBRANCH   7   6
TORSDOF 4
ENDMDL
