MODEL 1
REMARK VINA RESULT:      -9.4      0.000      0.000
REMARK  Name = 
REMARK  10 active torsions:
REMARK  status: ('A' for Active; 'I' for Inactive)
REMARK    1  A    between atoms: O_2  and  C_3
REMARK    2  A    between atoms: C_6  and  S_9
REMARK    3  A    between atoms: S_9  and  N_12
REMARK    4  A    between atoms: N_12  and  C_13
REMARK    5  A    between atoms: C_13  and  C_14
REMARK    6  A    between atoms: C_18  and  C_19
REMARK    7  A    between atoms: C_19  and  C_20
REMARK    8  A    between atoms: N_22  and  C_23
REMARK    9  A    between atoms: C_23  and  C_24
REMARK   10  A    between atoms: C_27  and  C_28
REMARK                            x       y       z     vdW  Elec       q    Type
REMARK                         _______ _______ _______ _____ _____    ______ ____
ROOT
ATOM     14  C   UNL     1      -3.808   1.729  24.464  0.00  0.00    +0.041 C 
ATOM     15  C   UNL     1      -4.377   2.024  24.984  0.00  0.00    -0.033 C 
ATOM     16  C   UNL     1      -4.357   2.816  25.211  0.00  0.00    -0.048 C 
ATOM     17  C   UNL     1      -4.926   3.112  25.731  0.00  0.00    +0.026 C 
ATOM     18  C   UNL     1      -3.767   3.315  24.918  0.00  0.00    +0.027 C 
ATOM     26  C   UNL     1      -3.198   3.019  24.399  0.00  0.00    +0.005 C 
ATOM     27  C   UNL     1      -3.219   2.226  24.172  0.00  0.00    +0.006 C 
ENDROOT
BRANCH  27  28
ATOM     28  C   UNL     1      -2.651   1.931  23.653  0.00  0.00    +0.000 C 
ATOM     29  C   UNL     1      -2.796   1.926  22.841  0.00  0.00    +0.000 C 
ATOM     30  C   UNL     1      -1.935   1.640  23.945  0.00  0.00    +0.000 C 
ENDBRANCH  27  28
BRANCH  14  13
ATOM     13  C   UNL     1      -3.828   0.936  24.237  0.00  0.00    +0.120 C 
BRANCH  13  12
ATOM     12  N   UNL     1      -4.300   0.401  24.649  0.00  0.00    -0.077 NA
BRANCH  12   9
ATOM      9  S   UNL     1      -4.152  -0.410  24.591  0.00  0.00    +0.077 S 
ATOM     10  O   UNL     1      -3.834  -0.406  25.353  0.00  0.00    -0.152 OA
ATOM     11  O   UNL     1      -4.470  -0.413  23.831  0.00  0.00    -0.152 OA
BRANCH   9   6
ATOM      3  C   UNL     1      -3.707  -2.838  24.421  0.00  0.00    +0.139 A 
ATOM      4  C   UNL     1      -3.410  -2.408  25.059  0.00  0.00    +0.038 A 
ATOM      5  C   UNL     1      -3.558  -1.599  25.116  0.00  0.00    +0.023 A 
ATOM      6  C   UNL     1      -4.004  -1.219  24.534  0.00  0.00    +0.124 A 
ATOM      7  C   UNL     1      -4.300  -1.649  23.896  0.00  0.00    +0.023 A 
ATOM      8  C   UNL     1      -4.152  -2.459  23.839  0.00  0.00    +0.038 A 
BRANCH   3   2
ATOM      1  C   UNL     1      -2.975  -3.926  23.851  0.00  0.00    +0.252 C 
ATOM      2  O   UNL     1      -3.558  -3.648  24.365  0.00  0.00    -0.471 OA
ENDBRANCH   3   2
ENDBRANCH   9   6
ENDBRANCH  12   9
ENDBRANCH  13  12
ENDBRANCH  14  13
BRANCH  18  19
ATOM     19  C   UNL     1      -3.746   4.108  25.145  0.00  0.00    +0.091 C 
BRANCH  19  20
ATOM     20  C   UNL     1      -3.076   4.414  25.514  0.00  0.00    +0.243 C 
ATOM     21  O   UNL     1      -2.958   4.293  26.322  0.00  0.00    -0.273 OA
ATOM     22  N   UNL     1      -2.523   4.841  25.077  0.00  0.00    -0.191 NA
BRANCH  22  23
ATOM     23  C   UNL     1      -1.851   5.148  25.446  0.00  0.00    +0.191 C 
BRANCH  23  24
ATOM     24  C   UNL     1      -1.165   5.282  25.010  0.00  0.00    -0.054 C 
ATOM     25  C   UNL     1      -0.478   5.416  24.572  0.00  0.00    -0.012 C 
ENDBRANCH  23  24
ENDBRANCH  22  23
ENDBRANCH  19  20
ENDBRANCH  18  19
TORSDOF 10
ENDMDL
MODEL 2
REMARK VINA RESULT:      -8.8      2.949      5.091
REMARK  Name = 
REMARK  10 active torsions:
REMARK  status: ('A' for Active; 'I' for Inactive)
REMARK    1  A    between atoms: O_2  and  C_3
REMARK    2  A    between atoms: C_6  and  S_9
REMARK    3  A    between atoms: S_9  and  N_12
REMARK    4  A    between atoms: N_12  and  C_13
REMARK    5  A    between atoms: C_13  and  C_14
REMARK    6  A    between atoms: C_18  and  C_19
REMARK    7  A    between atoms: C_19  and  C_20
REMARK    8  A    between atoms: N_22  and  C_23
REMARK    9  A    between atoms: C_23  and  C_24
REMARK   10  A    between atoms: C_27  and  C_28
REMARK                            x       y       z     vdW  Elec       q    Type
REMARK                         _______ _______ _______ _____ _____    ______ ____
ROOT
ATOM     14  C   UNL     1      -1.268   0.990  24.305  0.00  0.00    +0.041 C 
ATOM     15  C   UNL     1      -1.348   0.181  24.167  0.00  0.00    -0.033 C 
ATOM     16  C   UNL     1      -0.689  -0.270  23.962  0.00  0.00    -0.048 C 
ATOM     17  C   UNL     1      -0.770  -1.080  23.824  0.00  0.00    +0.026 C 
ATOM     18  C   UNL     1       0.051   0.087  23.895  0.00  0.00    +0.027 C 
ATOM     26  C   UNL     1       0.132   0.897  24.033  0.00  0.00    +0.005 C 
ATOM     27  C   UNL     1      -0.528   1.349  24.238  0.00  0.00    +0.006 C 
ENDROOT
BRANCH  27  28
ATOM     28  C   UNL     1      -0.447   2.157  24.376  0.00  0.00    +0.000 C 
ATOM     29  C   UNL     1      -0.262   2.430  25.132  0.00  0.00    +0.000 C 
ATOM     30  C   UNL     1      -0.551   2.694  23.758  0.00  0.00    +0.000 C 
ENDBRANCH  27  28
BRANCH  14  13
ATOM     13  C   UNL     1      -1.926   1.442  24.510  0.00  0.00    +0.120 C 
BRANCH  13  12
ATOM     12  N   UNL     1      -2.683   1.122  24.445  0.00  0.00    -0.077 NA
BRANCH  12   9
ATOM      9  S   UNL     1      -3.341   1.567  24.670  0.00  0.00    +0.077 S 
ATOM     10  O   UNL     1      -3.475   1.768  23.880  0.00  0.00    -0.152 OA
ATOM     11  O   UNL     1      -3.207   1.367  25.458  0.00  0.00    -0.152 OA
BRANCH   9   6
ATOM      3  C   UNL     1      -5.311   2.904  25.342  0.00  0.00    +0.139 A 
ATOM      4  C   UNL     1      -4.596   3.279  25.178  0.00  0.00    +0.038 A 
ATOM      5  C   UNL     1      -3.939   2.834  24.954  0.00  0.00    +0.023 A 
ATOM      6  C   UNL     1      -3.998   2.012  24.894  0.00  0.00    +0.124 A 
ATOM      7  C   UNL     1      -4.713   1.638  25.059  0.00  0.00    +0.023 A 
ATOM      8  C   UNL     1      -5.371   2.083  25.283  0.00  0.00    +0.038 A 
BRANCH   3   2
ATOM      1  C   UNL     1      -5.905   4.169  25.647  0.00  0.00    +0.252 C 
ATOM      2  O   UNL     1      -5.969   3.350  25.566  0.00  0.00    -0.471 OA
ENDBRANCH   3   2
ENDBRANCH   9   6
ENDBRANCH  12   9
ENDBRANCH  13  12
ENDBRANCH  14  13
BRANCH  18  19
ATOM     19  C   UNL     1       0.711  -0.364  23.690  0.00  0.00    +0.091 C 
BRANCH  19  20
ATOM     20  C   UNL     1       1.177  -0.145  23.046  0.00  0.00    +0.243 C 
ATOM     21  O   UNL     1       0.844  -0.101  22.292  0.00  0.00    -0.273 OA
ATOM     22  N   UNL     1       1.975   0.030  23.154  0.00  0.00    -0.191 NA
BRANCH  22  23
ATOM     23  C   UNL     1       2.442   0.249  22.510  0.00  0.00    +0.191 C 
BRANCH  23  24
ATOM     24  C   UNL     1       3.214   0.512  22.629  0.00  0.00    -0.054 C 
ATOM     25  C   UNL     1       3.987   0.776  22.749  0.00  0.00    -0.012 C 
ENDBRANCH  23  24
ENDBRANCH  22  23
ENDBRANCH  19  20
ENDBRANCH  18  19
TORSDOF 10
ENDMDL
MODEL 3
REMARK VINA RESULT:      -8.6      3.149      4.788
REMARK  Name = 
REMARK  10 active torsions:
REMARK  status: ('A' for Active; 'I' for Inactive)
REMARK    1  A    between atoms: O_2  and  C_3
REMARK    2  A    between atoms: C_6  and  S_9
REMARK    3  A    between atoms: S_9  and  N_12
REMARK    4  A    between atoms: N_12  and  C_13
REMARK    5  A    between atoms: C_13  and  C_14
REMARK    6  A    between atoms: C_18  and  C_19
REMARK    7  A    between atoms: C_19  and  C_20
REMARK    8  A    between atoms: N_22  and  C_23
REMARK    9  A    between atoms: C_23  and  C_24
REMARK   10  A    between atoms: C_27  and  C_28
REMARK                            x       y       z     vdW  Elec       q    Type
REMARK                         _______ _______ _______ _____ _____    ______ ____
ROOT
ATOM     14  C   UNL     1      -1.819   0.561  24.220  0.00  0.00    +0.041 C 
ATOM     15  C   UNL     1      -1.978  -0.091  24.699  0.00  0.00    -0.033 C 
ATOM     16  C   UNL     1      -2.722  -0.180  25.042  0.00  0.00    -0.048 C 
ATOM     17  C   UNL     1      -2.881  -0.833  25.522  0.00  0.00    +0.026 C 
ATOM     18  C   UNL     1      -3.310   0.384  24.906  0.00  0.00    +0.027 C 
ATOM     26  C   UNL     1      -3.151   1.036  24.426  0.00  0.00    +0.005 C 
ATOM     27  C   UNL     1      -2.406   1.125  24.083  0.00  0.00    +0.006 C 
ENDROOT
BRANCH  27  28
ATOM     28  C   UNL     1      -2.247   1.777  23.604  0.00  0.00    +0.000 C 
ATOM     29  C   UNL     1      -2.390   1.737  22.793  0.00  0.00    +0.000 C 
ATOM     30  C   UNL     1      -1.946   2.470  23.936  0.00  0.00    +0.000 C 
ENDBRANCH  27  28
BRANCH  14  13
ATOM     13  C   UNL     1      -1.075   0.650  23.877  0.00  0.00    +0.120 C 
BRANCH  13  12
ATOM     12  N   UNL     1      -0.476   0.109  24.043  0.00  0.00    -0.077 NA
BRANCH  12   9
ATOM      9  S   UNL     1       0.263   0.187  23.683  0.00  0.00    +0.077 S 
ATOM     10  O   UNL     1       0.479   0.747  24.250  0.00  0.00    -0.152 OA
ATOM     11  O   UNL     1       0.047  -0.372  23.118  0.00  0.00    -0.152 OA
BRANCH   9   6
ATOM      3  C   UNL     1       2.478   0.421  22.606  0.00  0.00    +0.139 A 
ATOM      4  C   UNL     1       1.969  -0.184  22.374  0.00  0.00    +0.038 A 
ATOM      5  C   UNL     1       1.231  -0.263  22.733  0.00  0.00    +0.023 A 
ATOM      6  C   UNL     1       1.002   0.265  23.325  0.00  0.00    +0.124 A 
ATOM      7  C   UNL     1       1.511   0.870  23.557  0.00  0.00    +0.023 A 
ATOM      8  C   UNL     1       2.250   0.948  23.198  0.00  0.00    +0.038 A 
BRANCH   3   2
ATOM      1  C   UNL     1       3.881   0.683  22.703  0.00  0.00    +0.252 C 
ATOM      2  O   UNL     1       3.218   0.499  22.247  0.00  0.00    -0.471 OA
ENDBRANCH   3   2
ENDBRANCH   9   6
ENDBRANCH  12   9
ENDBRANCH  13  12
ENDBRANCH  14  13
BRANCH  18  19
ATOM     19  C   UNL     1      -4.055   0.295  25.248  0.00  0.00    +0.091 C 
BRANCH  19  20
ATOM     20  C   UNL     1      -4.690   0.748  24.979  0.00  0.00    +0.243 C 
ATOM     21  O   UNL     1      -5.086   0.532  24.289  0.00  0.00    -0.273 OA
ATOM     22  N   UNL     1      -4.928   1.416  25.399  0.00  0.00    -0.191 NA
BRANCH  22  23
ATOM     23  C   UNL     1      -5.563   1.869  25.130  0.00  0.00    +0.191 C 
BRANCH  23  24
ATOM     24  C   UNL     1      -5.666   2.639  25.404  0.00  0.00    -0.054 C 
ATOM     25  C   UNL     1      -5.770   3.411  25.679  0.00  0.00    -0.012 C 
ENDBRANCH  23  24
ENDBRANCH  22  23
ENDBRANCH  19  20
ENDBRANCH  18  19
TORSDOF 10
ENDMDL
MODEL 4
REMARK VINA RESULT:      -8.5      2.892      4.276
REMARK  Name = 
REMARK  10 active torsions:
REMARK  status: ('A' for Active; 'I' for Inactive)
REMARK    1  A    between atoms: O_2  and  C_3
REMARK    2  A    between atoms: C_6  and  S_9
REMARK    3  A    between atoms: S_9  and  N_12
REMARK    4  A    between atoms: N_12  and  C_13
REMARK    5  A    between atoms: C_13  and  C_14
REMARK    6  A    between atoms: C_18  and  C_19
REMARK    7  A    between atoms: C_19  and  C_20
REMARK    8  A    between atoms: N_22  and  C_23
REMARK    9  A    between atoms: C_23  and  C_24
REMARK   10  A    between atoms: C_27  and  C_28
REMARK                            x       y       z     vdW  Elec       q    Type
REMARK                         _______ _______ _______ _____ _____    ______ ____
ROOT
ATOM     14  C   UNL     1      -1.954   2.316  24.417  0.00  0.00    +0.041 C 
ATOM     15  C   UNL     1      -1.770   2.767  25.083  0.00  0.00    -0.033 C 
ATOM     16  C   UNL     1      -2.340   3.260  25.417  0.00  0.00    -0.048 C 
ATOM     17  C   UNL     1      -2.156   3.711  26.084  0.00  0.00    +0.026 C 
ATOM     18  C   UNL     1      -3.094   3.303  25.086  0.00  0.00    +0.027 C 
ATOM     26  C   UNL     1      -3.278   2.852  24.420  0.00  0.00    +0.005 C 
ATOM     27  C   UNL     1      -2.708   2.358  24.085  0.00  0.00    +0.006 C 
ENDROOT
BRANCH  27  28
ATOM     28  C   UNL     1      -2.891   1.907  23.420  0.00  0.00    +0.000 C 
ATOM     29  C   UNL     1      -2.763   2.214  22.665  0.00  0.00    +0.000 C 
ATOM     30  C   UNL     1      -3.204   1.148  23.509  0.00  0.00    +0.000 C 
ENDBRANCH  27  28
BRANCH  14  13
ATOM     13  C   UNL     1      -1.384   1.822  24.083  0.00  0.00    +0.120 C 
BRANCH  13  12
ATOM     12  N   UNL     1      -0.682   1.669  24.487  0.00  0.00    -0.077 NA
BRANCH  12   9
ATOM      9  S   UNL     1      -0.059   1.288  24.102  0.00  0.00    +0.077 S 
ATOM     10  O   UNL     1       0.220   2.017  23.832  0.00  0.00    -0.152 OA
ATOM     11  O   UNL     1      -0.337   0.561  24.371  0.00  0.00    -0.152 OA
BRANCH   9   6
ATOM      3  C   UNL     1       1.808   0.146  22.947  0.00  0.00    +0.139 A 
ATOM      4  C   UNL     1       1.052  -0.180  22.929  0.00  0.00    +0.038 A 
ATOM      5  C   UNL     1       0.429   0.200  23.314  0.00  0.00    +0.023 A 
ATOM      6  C   UNL     1       0.564   0.908  23.717  0.00  0.00    +0.124 A 
ATOM      7  C   UNL     1       1.321   1.234  23.735  0.00  0.00    +0.023 A 
ATOM      8  C   UNL     1       1.944   0.853  23.349  0.00  0.00    +0.038 A 
BRANCH   3   2
ATOM      1  C   UNL     1       3.070   0.203  22.276  0.00  0.00    +0.252 C 
ATOM      2  O   UNL     1       2.431  -0.235  22.562  0.00  0.00    -0.471 OA
ENDBRANCH   3   2
ENDBRANCH   9   6
ENDBRANCH  12   9
ENDBRANCH  13  12
ENDBRANCH  14  13
BRANCH  18  19
ATOM     19  C   UNL     1      -3.665   3.796  25.419  0.00  0.00    +0.091 C 
BRANCH  19  20
ATOM     20  C   UNL     1      -4.466   3.645  25.294  0.00  0.00    +0.243 C 
ATOM     21  O   UNL     1      -4.858   3.998  24.660  0.00  0.00    -0.273 OA
ATOM     22  N   UNL     1      -4.875   3.142  25.803  0.00  0.00    -0.191 NA
BRANCH  22  23
ATOM     23  C   UNL     1      -5.677   2.990  25.678  0.00  0.00    +0.191 C 
BRANCH  23  24
ATOM     24  C   UNL     1      -6.032   2.335  26.029  0.00  0.00    -0.054 C 
ATOM     25  C   UNL     1      -6.389   1.678  26.381  0.00  0.00    -0.012 C 
ENDBRANCH  23  24
ENDBRANCH  22  23
ENDBRANCH  19  20
ENDBRANCH  18  19
TORSDOF 10
ENDMDL
MODEL 5
REMARK VINA RESULT:      -8.5      2.405      6.190
REMARK  Name = 
REMARK  10 active torsions:
REMARK  status: ('A' for Active; 'I' for Inactive)
REMARK    1  A    between atoms: O_2  and  C_3
REMARK    2  A    between atoms: C_6  and  S_9
REMARK    3  A    between atoms: S_9  and  N_12
REMARK    4  A    between atoms: N_12  and  C_13
REMARK    5  A    between atoms: C_13  and  C_14
REMARK    6  A    between atoms: C_18  and  C_19
REMARK    7  A    between atoms: C_19  and  C_20
REMARK    8  A    between atoms: N_22  and  C_23
REMARK    9  A    between atoms: C_23  and  C_24
REMARK   10  A    between atoms: C_27  and  C_28
REMARK                            x       y       z     vdW  Elec       q    Type
REMARK                         _______ _______ _______ _____ _____    ______ ____
ROOT
ATOM     14  C   UNL     1      -0.874   0.422  25.062  0.00  0.00    +0.041 C 
ATOM     15  C   UNL     1      -1.184   0.103  25.756  0.00  0.00    -0.033 C 
ATOM     16  C   UNL     1      -1.324  -0.708  25.812  0.00  0.00    -0.048 C 
ATOM     17  C   UNL     1      -1.634  -1.027  26.507  0.00  0.00    +0.026 C 
ATOM     18  C   UNL     1      -1.153  -1.201  25.172  0.00  0.00    +0.027 C 
ATOM     26  C   UNL     1      -0.843  -0.882  24.477  0.00  0.00    +0.005 C 
ATOM     27  C   UNL     1      -0.703  -0.070  24.422  0.00  0.00    +0.006 C 
ENDROOT
BRANCH  27  28
ATOM     28  C   UNL     1      -0.393   0.248  23.728  0.00  0.00    +0.000 C 
ATOM     29  C   UNL     1       0.423   0.277  23.615  0.00  0.00    +0.000 C 
ATOM     30  C   UNL     1      -0.900   0.538  23.144  0.00  0.00    +0.000 C 
ENDBRANCH  27  28
BRANCH  14  13
ATOM     13  C   UNL     1      -0.734   1.233  25.006  0.00  0.00    +0.120 C 
BRANCH  13  12
ATOM     12  N   UNL     1      -0.925   1.728  25.636  0.00  0.00    -0.077 NA
BRANCH  12   9
ATOM      9  S   UNL     1      -1.005   2.541  25.512  0.00  0.00    +0.077 S 
ATOM     10  O   UNL     1      -1.807   2.437  25.347  0.00  0.00    -0.152 OA
ATOM     11  O   UNL     1      -0.204   2.644  25.676  0.00  0.00    -0.152 OA
BRANCH   9   6
ATOM      3  C   UNL     1      -1.244   4.976  25.140  0.00  0.00    +0.139 A 
ATOM      4  C   UNL     1      -0.570   4.582  24.874  0.00  0.00    +0.038 A 
ATOM      5  C   UNL     1      -0.490   3.771  24.998  0.00  0.00    +0.023 A 
ATOM      6  C   UNL     1      -1.085   3.353  25.388  0.00  0.00    +0.124 A 
ATOM      7  C   UNL     1      -1.759   3.746  25.654  0.00  0.00    +0.023 A 
ATOM      8  C   UNL     1      -1.839   4.558  25.530  0.00  0.00    +0.038 A 
BRANCH   3   2
ATOM      1  C   UNL     1      -2.074   6.130  24.995  0.00  0.00    +0.252 C 
ATOM      2  O   UNL     1      -1.324   5.788  25.017  0.00  0.00    -0.471 OA
ENDBRANCH   3   2
ENDBRANCH   9   6
ENDBRANCH  12   9
ENDBRANCH  13  12
ENDBRANCH  14  13
BRANCH  18  19
ATOM     19  C   UNL     1      -1.293  -2.012  25.227  0.00  0.00    +0.091 C 
BRANCH  19  20
ATOM     20  C   UNL     1      -1.739  -2.395  24.649  0.00  0.00    +0.243 C 
ATOM     21  O   UNL     1      -1.362  -2.764  24.014  0.00  0.00    -0.273 OA
ATOM     22  N   UNL     1      -2.561  -2.409  24.704  0.00  0.00    -0.191 NA
BRANCH  22  23
ATOM     23  C   UNL     1      -3.008  -2.791  24.126  0.00  0.00    +0.191 C 
BRANCH  23  24
ATOM     24  C   UNL     1      -3.789  -2.565  23.991  0.00  0.00    -0.054 C 
ATOM     25  C   UNL     1      -4.572  -2.339  23.856  0.00  0.00    -0.012 C 
ENDBRANCH  23  24
ENDBRANCH  22  23
ENDBRANCH  19  20
ENDBRANCH  18  19
TORSDOF 10
ENDMDL
MODEL 6
REMARK VINA RESULT:      -7.9      1.473      2.083
REMARK  Name = 
REMARK  10 active torsions:
REMARK  status: ('A' for Active; 'I' for Inactive)
REMARK    1  A    between atoms: O_2  and  C_3
REMARK    2  A    between atoms: C_6  and  S_9
REMARK    3  A    between atoms: S_9  and  N_12
REMARK    4  A    between atoms: N_12  and  C_13
REMARK    5  A    between atoms: C_13  and  C_14
REMARK    6  A    between atoms: C_18  and  C_19
REMARK    7  A    between atoms: C_19  and  C_20
REMARK    8  A    between atoms: N_22  and  C_23
REMARK    9  A    between atoms: C_23  and  C_24
REMARK   10  A    between atoms: C_27  and  C_28
REMARK                            x       y       z     vdW  Elec       q    Type
REMARK                         _______ _______ _______ _____ _____    ______ ____
ROOT
ATOM     14  C   UNL     1      -2.010   1.278  25.039  0.00  0.00    +0.041 C 
ATOM     15  C   UNL     1      -1.311   1.183  25.466  0.00  0.00    -0.033 C 
ATOM     16  C   UNL     1      -0.846   1.839  25.648  0.00  0.00    -0.048 C 
ATOM     17  C   UNL     1      -0.147   1.744  26.076  0.00  0.00    +0.026 C 
ATOM     18  C   UNL     1      -1.080   2.591  25.403  0.00  0.00    +0.027 C 
ATOM     26  C   UNL     1      -1.779   2.686  24.975  0.00  0.00    +0.005 C 
ATOM     27  C   UNL     1      -2.245   2.029  24.793  0.00  0.00    +0.006 C 
ENDROOT
BRANCH  27  28
ATOM     28  C   UNL     1      -2.943   2.124  24.366  0.00  0.00    +0.000 C 
ATOM     29  C   UNL     1      -3.650   2.283  24.760  0.00  0.00    +0.000 C 
ATOM     30  C   UNL     1      -2.936   2.060  23.543  0.00  0.00    +0.000 C 
ENDBRANCH  27  28
BRANCH  14  13
ATOM     13  C   UNL     1      -2.475   0.621  24.857  0.00  0.00    +0.120 C 
BRANCH  13  12
ATOM     12  N   UNL     1      -2.299  -0.113  25.186  0.00  0.00    -0.077 NA
BRANCH  12   9
ATOM      9  S   UNL     1      -2.708  -0.786  24.937  0.00  0.00    +0.077 S 
ATOM     10  O   UNL     1      -3.237  -0.698  25.565  0.00  0.00    -0.152 OA
ATOM     11  O   UNL     1      -2.179  -0.874  24.311  0.00  0.00    -0.152 OA
BRANCH   9   6
ATOM      3  C   UNL     1      -3.931  -2.804  24.193  0.00  0.00    +0.139 A 
ATOM      4  C   UNL     1      -3.278  -2.878  24.690  0.00  0.00    +0.038 A 
ATOM      5  C   UNL     1      -2.870  -2.206  24.938  0.00  0.00    +0.023 A 
ATOM      6  C   UNL     1      -3.116  -1.458  24.689  0.00  0.00    +0.124 A 
ATOM      7  C   UNL     1      -3.769  -1.384  24.191  0.00  0.00    +0.023 A 
ATOM      8  C   UNL     1      -4.177  -2.057  23.943  0.00  0.00    +0.038 A 
BRANCH   3   2
ATOM      1  C   UNL     1      -4.661  -3.508  23.185  0.00  0.00    +0.252 C 
ATOM      2  O   UNL     1      -4.340  -3.477  23.944  0.00  0.00    -0.471 OA
ENDBRANCH   3   2
ENDBRANCH   9   6
ENDBRANCH  12   9
ENDBRANCH  13  12
ENDBRANCH  14  13
BRANCH  18  19
ATOM     19  C   UNL     1      -0.616   3.249  25.584  0.00  0.00    +0.091 C 
BRANCH  19  20
ATOM     20  C   UNL     1      -0.598   3.896  25.073  0.00  0.00    +0.243 C 
ATOM     21  O   UNL     1      -0.213   3.836  24.346  0.00  0.00    -0.273 OA
ATOM     22  N   UNL     1      -0.965   4.602  25.289  0.00  0.00    -0.191 NA
BRANCH  22  23
ATOM     23  C   UNL     1      -0.947   5.250  24.778  0.00  0.00    +0.191 C 
BRANCH  23  24
ATOM     24  C   UNL     1      -1.506   5.851  24.854  0.00  0.00    -0.054 C 
ATOM     25  C   UNL     1      -2.065   6.453  24.930  0.00  0.00    -0.012 C 
ENDBRANCH  23  24
ENDBRANCH  22  23
ENDBRANCH  19  20
ENDBRANCH  18  19
TORSDOF 10
ENDMDL
