MODEL 1
REMARK VINA RESULT:      -9.3      0.000      0.000
REMARK  Name = 
REMARK  6 active torsions:
REMARK  status: ('A' for Active; 'I' for Inactive)
REMARK    1  A    between atoms: O_2  and  C_3
REMARK    2  A    between atoms: C_4  and  C_9
REMARK    3  A    between atoms: N_14  and  C_15
REMARK    4  A    between atoms: C_19  and  N_23
REMARK    5  A    between atoms: N_26  and  C_27
REMARK    6  A    between atoms: C_27  and  C_28
REMARK                            x       y       z     vdW  Elec       q    Type
REMARK                         _______ _______ _______ _____ _____    ______ ____
ROOT
ATOM      9  C   UNL     1      -3.926   1.450  24.612  0.00  0.00    +0.089 A 
ATOM     10  C   UNL     1      -4.043   1.087  23.880  0.00  0.00    +0.040 A 
ATOM     11  C   UNL     1      -3.417   0.699  23.508  0.00  0.00    +0.103 A 
ATOM     12  N   UNL     1      -2.674   0.675  23.867  0.00  0.00    -0.211 NA
ATOM     13  C   UNL     1      -2.559   1.039  24.599  0.00  0.00    +0.237 A 
ATOM     14  N   UNL     1      -1.816   1.014  24.958  0.00  0.00    -0.200 NA
ATOM     30  N   UNL     1      -3.184   1.425  24.971  0.00  0.00    -0.212 NA
ENDROOT
BRANCH  14  15
ATOM     15  C   UNL     1      -1.190   0.627  24.585  0.00  0.00    +0.154 C 
ATOM     16  C   UNL     1      -1.140  -0.183  24.439  0.00  0.00    +0.166 C 
ATOM     17  O   UNL     1      -0.422  -0.328  24.057  0.00  0.00    -0.350 OA
ATOM     18  C   UNL     1      -0.030   0.391  23.967  0.00  0.00    +0.166 C 
ATOM     19  C   UNL     1       0.655   0.746  23.676  0.00  0.00    +0.156 C 
ATOM     20  C   UNL     1       0.604   1.557  23.823  0.00  0.00    +0.166 C 
ATOM     21  O   UNL     1      -0.112   1.703  24.205  0.00  0.00    -0.350 OA
ATOM     22  C   UNL     1      -0.505   0.982  24.294  0.00  0.00    +0.166 C 
BRANCH  19  23
ATOM     23  N   UNL     1       1.281   0.359  23.304  0.00  0.00    -0.184 NA
ATOM     24  C   UNL     1       2.016   0.729  23.242  0.00  0.00    +0.340 C 
ATOM     25  O   UNL     1       2.125   1.485  23.552  0.00  0.00    -0.249 OA
ATOM     26  N   UNL     1       2.642   0.341  22.869  0.00  0.00    -0.182 NA
BRANCH  26  27
ATOM     27  C   UNL     1       3.377   0.711  22.808  0.00  0.00    +0.143 C 
BRANCH  27  28
ATOM     28  C   UNL     1       4.032   0.285  22.542  0.00  0.00    -0.003 C 
ATOM     29  C   UNL     1       4.757   0.361  22.929  0.00  0.00    -0.003 C 
ENDBRANCH  27  28
ENDBRANCH  26  27
ENDBRANCH  19  23
ENDBRANCH  14  15
BRANCH   9   4
ATOM      3  C   UNL     1      -4.617   2.658  24.938  0.00  0.00    +0.140 A 
ATOM      4  C   UNL     1      -4.553   1.837  24.985  0.00  0.00    +0.052 A 
ATOM      5  C   UNL     1      -5.115   1.402  25.403  0.00  0.00    +0.005 A 
ATOM      6  C   UNL     1      -5.742   1.790  25.776  0.00  0.00    +0.000 A 
ATOM      7  C   UNL     1      -5.806   2.611  25.730  0.00  0.00    +0.003 A 
ATOM      8  C   UNL     1      -5.242   3.045  25.310  0.00  0.00    +0.037 A 
BRANCH   3   2
ATOM      1  C   UNL     1      -4.102   3.915  24.495  0.00  0.00    +0.252 C 
ATOM      2  O   UNL     1      -4.054   3.092  24.519  0.00  0.00    -0.471 OA
ENDBRANCH   3   2
ENDBRANCH   9   4
TORSDOF 6
ENDMDL
MODEL 2
REMARK VINA RESULT:      -9.2      1.441      2.483
REMARK  Name = 
REMARK  6 active torsions:
REMARK  status: ('A' for Active; 'I' for Inactive)
REMARK    1  A    between atoms: O_2  and  C_3
REMARK    2  A    between atoms: C_4  and  C_9
REMARK    3  A    between atoms: N_14  and  C_15
REMARK    4  A    between atoms: C_19  and  N_23
REMARK    5  A    between atoms: N_26  and  C_27
REMARK    6  A    between atoms: C_27  and  C_28
REMARK                            x       y       z     vdW  Elec       q    Type
REMARK                         _______ _______ _______ _____ _____    ______ ____
ROOT
ATOM      9  C   UNL     1      -2.254  -0.283  24.748  0.00  0.00    +0.089 A 
ATOM     10  C   UNL     1      -1.896  -0.295  25.491  0.00  0.00    +0.040 A 
ATOM     11  C   UNL     1      -1.122  -0.021  25.579  0.00  0.00    +0.103 A 
ATOM     12  N   UNL     1      -0.708   0.264  24.925  0.00  0.00    -0.211 NA
ATOM     13  C   UNL     1      -1.068   0.275  24.183  0.00  0.00    +0.237 A 
ATOM     14  N   UNL     1      -0.653   0.560  23.529  0.00  0.00    -0.200 NA
ATOM     30  N   UNL     1      -1.840   0.002  24.094  0.00  0.00    -0.212 NA
ENDROOT
BRANCH  14  15
ATOM     15  C   UNL     1       0.121   0.834  23.617  0.00  0.00    +0.154 C 
ATOM     16  C   UNL     1       0.365   1.438  24.122  0.00  0.00    +0.166 C 
ATOM     17  O   UNL     1       1.181   1.529  24.033  0.00  0.00    -0.350 OA
ATOM     18  C   UNL     1       1.439   0.981  23.473  0.00  0.00    +0.166 C 
ATOM     19  C   UNL     1       2.102   0.699  23.072  0.00  0.00    +0.156 C 
ATOM     20  C   UNL     1       1.857   0.094  22.567  0.00  0.00    +0.166 C 
ATOM     21  O   UNL     1       1.042   0.003  22.656  0.00  0.00    -0.350 OA
ATOM     22  C   UNL     1       0.783   0.552  23.216  0.00  0.00    +0.166 C 
BRANCH  19  23
ATOM     23  N   UNL     1       2.876   0.973  23.161  0.00  0.00    -0.184 NA
ATOM     24  C   UNL     1       3.508   0.445  23.107  0.00  0.00    +0.340 C 
ATOM     25  O   UNL     1       3.367  -0.355  22.965  0.00  0.00    -0.249 OA
ATOM     26  N   UNL     1       4.281   0.719  23.196  0.00  0.00    -0.182 NA
BRANCH  26  27
ATOM     27  C   UNL     1       4.914   0.192  23.142  0.00  0.00    +0.143 C 
BRANCH  27  28
ATOM     28  C   UNL     1       5.592   0.315  23.595  0.00  0.00    -0.003 C 
ATOM     29  C   UNL     1       6.258  -0.159  23.478  0.00  0.00    -0.003 C 
ENDBRANCH  27  28
ENDBRANCH  26  27
ENDBRANCH  19  23
ENDBRANCH  14  15
BRANCH   9   4
ATOM      3  C   UNL     1      -3.661  -0.030  24.709  0.00  0.00    +0.140 A 
ATOM      4  C   UNL     1      -3.028  -0.557  24.659  0.00  0.00    +0.052 A 
ATOM      5  C   UNL     1      -3.168  -1.358  24.522  0.00  0.00    +0.005 A 
ATOM      6  C   UNL     1      -3.942  -1.632  24.433  0.00  0.00    +0.000 A 
ATOM      7  C   UNL     1      -4.575  -1.105  24.483  0.00  0.00    +0.003 A 
ATOM      8  C   UNL     1      -4.433  -0.303  24.620  0.00  0.00    +0.037 A 
BRANCH   3   2
ATOM      1  C   UNL     1      -4.150   1.303  24.869  0.00  0.00    +0.252 C 
ATOM      2  O   UNL     1      -3.519   0.772  24.847  0.00  0.00    -0.471 OA
ENDBRANCH   3   2
ENDBRANCH   9   4
TORSDOF 6
ENDMDL
