MODEL 1
REMARK VINA RESULT:     -13.0      0.000      0.000
REMARK  Name = 
REMARK  6 active torsions:
REMARK  status: ('A' for Active; 'I' for Inactive)
REMARK    1  A    between atoms: C_2  and  C_3
REMARK    2  A    between atoms: C_2  and  C_26
REMARK    3  A    between atoms: C_10  and  N_11
REMARK    4  A    between atoms: C_12  and  C_14
REMARK    5  A    between atoms: C_14  and  C_15
REMARK    6  A    between atoms: N_28  and  C_29
REMARK                            x       y       z     vdW  Elec       q    Type
REMARK                         _______ _______ _______ _____ _____    ______ ____
ROOT
ATOM      3  C   UNL     1      -0.685  -0.895  24.646  0.00  0.00    +0.039 C 
ATOM      4  C   UNL     1      -0.284  -0.928  23.924  0.00  0.00    +0.003 C 
ATOM      5  C   UNL     1       0.076  -0.251  23.622  0.00  0.00    +0.000 C 
ATOM      6  C   UNL     1       0.036   0.459  24.039  0.00  0.00    +0.002 C 
ATOM      7  C   UNL     1       0.435   0.427  23.319  0.00  0.00    +0.000 C 
ATOM      8  C   UNL     1       0.396   1.137  23.736  0.00  0.00    +0.002 C 
ATOM      9  C   UNL     1       0.356   1.847  24.153  0.00  0.00    +0.022 C 
ATOM     10  C   UNL     1      -0.045   1.880  24.875  0.00  0.00    +0.095 C 
ATOM     21  C   UNL     1      -0.405   1.203  25.178  0.00  0.00    +0.022 C 
ATOM     22  C   UNL     1      -0.805   1.236  25.898  0.00  0.00    +0.002 C 
ATOM     23  C   UNL     1      -0.365   0.492  24.760  0.00  0.00    +0.032 C 
ATOM     24  C   UNL     1      -0.725  -0.185  25.063  0.00  0.00    +0.152 C 
ATOM     25  O   UNL     1      -1.125  -0.153  25.784  0.00  0.00    -0.223 OA
ENDROOT
BRANCH  10  11
ATOM     11  N   UNL     1      -0.085   2.591  25.292  0.00  0.00    -0.207 NA
ATOM     12  C   UNL     1      -0.331   3.280  24.912  0.00  0.00    +0.246 C 
ATOM     13  O   UNL     1      -0.538   3.259  24.113  0.00  0.00    -0.273 OA
BRANCH  12  14
ATOM     14  C   UNL     1      -0.371   3.990  25.329  0.00  0.00    +0.113 C 
BRANCH  14  15
ATOM     15  C   UNL     1      -1.054   4.451  25.296  0.00  0.00    -0.013 A 
ATOM     16  C   UNL     1      -1.038   5.186  24.919  0.00  0.00    -0.004 A 
ATOM     17  C   UNL     1      -1.722   5.647  24.886  0.00  0.00    -0.000 A 
ATOM     18  C   UNL     1      -2.420   5.374  25.229  0.00  0.00    -0.000 A 
ATOM     19  C   UNL     1      -2.436   4.639  25.606  0.00  0.00    -0.000 A 
ATOM     20  C   UNL     1      -1.753   4.179  25.639  0.00  0.00    -0.004 A 
ENDBRANCH  14  15
ENDBRANCH  12  14
ENDBRANCH  10  11
BRANCH   3   2
ATOM      1  C   UNL     1      -0.724  -1.950  25.608  0.00  0.00    +0.010 C 
ATOM      2  C   UNL     1      -1.044  -1.573  24.948  0.00  0.00    +0.081 C 
BRANCH   2  26
ATOM     26  C   UNL     1      -1.725  -1.875  24.592  0.00  0.00    +0.241 C 
ATOM     27  O   UNL     1      -1.664  -2.328  23.904  0.00  0.00    -0.273 OA
ATOM     28  N   UNL     1      -2.465  -1.723  24.921  0.00  0.00    -0.207 NA
BRANCH  28  29
ATOM     29  C   UNL     1      -3.145  -2.025  24.565  0.00  0.00    +0.095 C 
ATOM     30  C   UNL     1      -3.324  -2.828  24.629  0.00  0.00    +0.022 C 
ATOM     31  C   UNL     1      -4.003  -3.129  24.272  0.00  0.00    +0.002 C 
ATOM     32  C   UNL     1      -4.506  -2.627  23.851  0.00  0.00    +0.000 C 
ATOM     33  C   UNL     1      -4.327  -1.825  23.786  0.00  0.00    +0.002 C 
ATOM     34  C   UNL     1      -3.647  -1.523  24.143  0.00  0.00    +0.022 C 
ENDBRANCH  28  29
ENDBRANCH   2  26
ENDBRANCH   3   2
TORSDOF 6
ENDMDL
MODEL 2
REMARK VINA RESULT:     -11.8      2.250      6.343
REMARK  Name = 
REMARK  6 active torsions:
REMARK  status: ('A' for Active; 'I' for Inactive)
REMARK    1  A    between atoms: C_2  and  C_3
REMARK    2  A    between atoms: C_2  and  C_26
REMARK    3  A    between atoms: C_10  and  N_11
REMARK    4  A    between atoms: C_12  and  C_14
REMARK    5  A    between atoms: C_14  and  C_15
REMARK    6  A    between atoms: N_28  and  C_29
REMARK                            x       y       z     vdW  Elec       q    Type
REMARK                         _______ _______ _______ _____ _____    ______ ____
ROOT
ATOM      3  C   UNL     1      -4.224   2.846  24.473  0.00  0.00    +0.039 C 
ATOM      4  C   UNL     1      -4.818   2.922  25.041  0.00  0.00    +0.003 C 
ATOM      5  C   UNL     1      -5.170   2.249  25.362  0.00  0.00    +0.000 C 
ATOM      6  C   UNL     1      -4.928   1.500  25.116  0.00  0.00    +0.002 C 
ATOM      7  C   UNL     1      -5.521   1.576  25.683  0.00  0.00    +0.000 C 
ATOM      8  C   UNL     1      -5.279   0.826  25.438  0.00  0.00    +0.002 C 
ATOM      9  C   UNL     1      -5.038   0.077  25.192  0.00  0.00    +0.022 C 
ATOM     10  C   UNL     1      -4.443   0.001  24.623  0.00  0.00    +0.095 C 
ATOM     21  C   UNL     1      -4.092   0.674  24.302  0.00  0.00    +0.022 C 
ATOM     22  C   UNL     1      -3.498   0.598  23.735  0.00  0.00    +0.002 C 
ATOM     23  C   UNL     1      -4.333   1.424  24.548  0.00  0.00    +0.032 C 
ATOM     24  C   UNL     1      -3.982   2.097  24.227  0.00  0.00    +0.152 C 
ATOM     25  O   UNL     1      -3.388   2.021  23.659  0.00  0.00    -0.223 OA
ENDROOT
BRANCH  10  11
ATOM     11  N   UNL     1      -4.201  -0.749  24.378  0.00  0.00    -0.207 NA
ATOM     12  C   UNL     1      -3.930  -1.297  24.930  0.00  0.00    +0.246 C 
ATOM     13  O   UNL     1      -3.901  -1.096  25.731  0.00  0.00    -0.273 OA
BRANCH  12  14
ATOM     14  C   UNL     1      -3.689  -2.047  24.685  0.00  0.00    +0.113 C 
BRANCH  14  15
ATOM     15  C   UNL     1      -2.888  -2.242  24.683  0.00  0.00    -0.013 A 
ATOM     16  C   UNL     1      -2.543  -2.561  24.003  0.00  0.00    -0.004 A 
ATOM     17  C   UNL     1      -1.741  -2.757  24.002  0.00  0.00    -0.000 A 
ATOM     18  C   UNL     1      -1.285  -2.635  24.677  0.00  0.00    -0.000 A 
ATOM     19  C   UNL     1      -1.630  -2.316  25.357  0.00  0.00    -0.000 A 
ATOM     20  C   UNL     1      -2.431  -2.120  25.359  0.00  0.00    -0.004 A 
ENDBRANCH  14  15
ENDBRANCH  12  14
ENDBRANCH  10  11
BRANCH   3   2
ATOM      1  C   UNL     1      -4.158   3.836  23.445  0.00  0.00    +0.010 C 
ATOM      2  C   UNL     1      -3.872   3.520  24.151  0.00  0.00    +0.081 C 
BRANCH   2  26
ATOM     26  C   UNL     1      -3.236   3.877  24.536  0.00  0.00    +0.241 C 
ATOM     27  O   UNL     1      -3.332   4.181  25.298  0.00  0.00    -0.273 OA
ATOM     28  N   UNL     1      -2.504   3.932  24.159  0.00  0.00    -0.207 NA
BRANCH  28  29
ATOM     29  C   UNL     1      -1.869   4.290  24.543  0.00  0.00    +0.095 C 
ATOM     30  C   UNL     1      -1.842   5.111  24.623  0.00  0.00    +0.022 C 
ATOM     31  C   UNL     1      -1.206   5.468  25.007  0.00  0.00    +0.002 C 
ATOM     32  C   UNL     1      -0.595   5.004  25.313  0.00  0.00    +0.000 C 
ATOM     33  C   UNL     1      -0.621   4.184  25.234  0.00  0.00    +0.002 C 
ATOM     34  C   UNL     1      -1.258   3.826  24.850  0.00  0.00    +0.022 C 
ENDBRANCH  28  29
ENDBRANCH   2  26
ENDBRANCH   3   2
TORSDOF 6
ENDMDL
MODEL 3
REMARK VINA RESULT:     -11.4      2.332      5.626
REMARK  Name = 
REMARK  6 active torsions:
REMARK  status: ('A' for Active; 'I' for Inactive)
REMARK    1  A    between atoms: C_2  and  C_3
REMARK    2  A    between atoms: C_2  and  C_26
REMARK    3  A    between atoms: C_10  and  N_11
REMARK    4  A    between atoms: C_12  and  C_14
REMARK    5  A    between atoms: C_14  and  C_15
REMARK    6  A    between atoms: N_28  and  C_29
REMARK                            x       y       z     vdW  Elec       q    Type
REMARK                         _______ _______ _______ _____ _____    ______ ____
ROOT
ATOM      3  C   UNL     1       1.141   0.526  23.325  0.00  0.00    +0.039 C 
ATOM      4  C   UNL     1       1.079   1.321  23.544  0.00  0.00    +0.003 C 
ATOM      5  C   UNL     1       0.479   1.562  24.055  0.00  0.00    +0.000 C 
ATOM      6  C   UNL     1      -0.060   1.011  24.347  0.00  0.00    +0.002 C 
ATOM      7  C   UNL     1      -0.121   1.804  24.565  0.00  0.00    +0.000 C 
ATOM      8  C   UNL     1      -0.661   1.253  24.858  0.00  0.00    +0.002 C 
ATOM      9  C   UNL     1      -1.200   0.702  25.151  0.00  0.00    +0.022 C 
ATOM     10  C   UNL     1      -1.139  -0.092  24.932  0.00  0.00    +0.095 C 
ATOM     21  C   UNL     1      -0.538  -0.334  24.422  0.00  0.00    +0.022 C 
ATOM     22  C   UNL     1      -0.477  -1.127  24.203  0.00  0.00    +0.002 C 
ATOM     23  C   UNL     1       0.002   0.217  24.129  0.00  0.00    +0.032 C 
ATOM     24  C   UNL     1       0.602  -0.024  23.618  0.00  0.00    +0.152 C 
ATOM     25  O   UNL     1       0.663  -0.818  23.400  0.00  0.00    -0.223 OA
ENDROOT
BRANCH  10  11
ATOM     11  N   UNL     1      -1.679  -0.643  25.226  0.00  0.00    -0.207 NA
ATOM     12  C   UNL     1      -2.487  -0.488  25.190  0.00  0.00    +0.246 C 
ATOM     13  O   UNL     1      -2.758   0.219  24.860  0.00  0.00    -0.273 OA
BRANCH  12  14
ATOM     14  C   UNL     1      -3.027  -1.039  25.483  0.00  0.00    +0.113 C 
BRANCH  14  15
ATOM     15  C   UNL     1      -3.454  -1.517  24.963  0.00  0.00    -0.013 A 
ATOM     16  C   UNL     1      -3.991  -1.176  24.436  0.00  0.00    -0.004 A 
ATOM     17  C   UNL     1      -4.417  -1.654  23.916  0.00  0.00    -0.000 A 
ATOM     18  C   UNL     1      -4.308  -2.471  23.922  0.00  0.00    -0.000 A 
ATOM     19  C   UNL     1      -3.770  -2.812  24.449  0.00  0.00    -0.000 A 
ATOM     20  C   UNL     1      -3.344  -2.335  24.969  0.00  0.00    -0.004 A 
ENDBRANCH  14  15
ENDBRANCH  12  14
ENDBRANCH  10  11
BRANCH   3   2
ATOM      1  C   UNL     1       1.553  -0.052  22.086  0.00  0.00    +0.010 C 
ATOM      2  C   UNL     1       1.742   0.285  22.814  0.00  0.00    +0.081 C 
BRANCH   2  26
ATOM     26  C   UNL     1       2.533   0.381  23.031  0.00  0.00    +0.241 C 
ATOM     27  O   UNL     1       2.784   1.090  23.372  0.00  0.00    -0.273 OA
ATOM     28  N   UNL     1       3.072  -0.230  22.906  0.00  0.00    -0.207 NA
BRANCH  28  29
ATOM     29  C   UNL     1       3.861  -0.134  23.122  0.00  0.00    +0.095 C 
ATOM     30  C   UNL     1       4.302   0.491  22.812  0.00  0.00    +0.022 C 
ATOM     31  C   UNL     1       5.092   0.587  23.028  0.00  0.00    +0.002 C 
ATOM     32  C   UNL     1       5.442   0.058  23.556  0.00  0.00    +0.000 C 
ATOM     33  C   UNL     1       5.003  -0.566  23.867  0.00  0.00    +0.002 C 
ATOM     34  C   UNL     1       4.212  -0.663  23.651  0.00  0.00    +0.022 C 
ENDBRANCH  28  29
ENDBRANCH   2  26
ENDBRANCH   3   2
TORSDOF 6
ENDMDL
MODEL 4
REMARK VINA RESULT:     -11.3      0.678      5.524
REMARK  Name = 
REMARK  6 active torsions:
REMARK  status: ('A' for Active; 'I' for Inactive)
REMARK    1  A    between atoms: C_2  and  C_3
REMARK    2  A    between atoms: C_2  and  C_26
REMARK    3  A    between atoms: C_10  and  N_11
REMARK    4  A    between atoms: C_12  and  C_14
REMARK    5  A    between atoms: C_14  and  C_15
REMARK    6  A    between atoms: N_28  and  C_29
REMARK                            x       y       z     vdW  Elec       q    Type
REMARK                         _______ _______ _______ _____ _____    ______ ____
ROOT
ATOM      3  C   UNL     1      -0.017   1.890  25.091  0.00  0.00    +0.039 C 
ATOM      4  C   UNL     1       0.458   1.796  24.422  0.00  0.00    +0.003 C 
ATOM      5  C   UNL     1       0.453   1.083  24.009  0.00  0.00    +0.000 C 
ATOM      6  C   UNL     1      -0.027   0.463  24.263  0.00  0.00    +0.002 C 
ATOM      7  C   UNL     1       0.448   0.370  23.596  0.00  0.00    +0.000 C 
ATOM      8  C   UNL     1      -0.032  -0.252  23.850  0.00  0.00    +0.002 C 
ATOM      9  C   UNL     1      -0.512  -0.872  24.104  0.00  0.00    +0.022 C 
ATOM     10  C   UNL     1      -0.988  -0.779  24.773  0.00  0.00    +0.095 C 
ATOM     21  C   UNL     1      -0.982  -0.065  25.186  0.00  0.00    +0.022 C 
ATOM     22  C   UNL     1      -1.457   0.028  25.854  0.00  0.00    +0.002 C 
ATOM     23  C   UNL     1      -0.502   0.556  24.932  0.00  0.00    +0.032 C 
ATOM     24  C   UNL     1      -0.497   1.269  25.345  0.00  0.00    +0.152 C 
ATOM     25  O   UNL     1      -0.972   1.362  26.013  0.00  0.00    -0.223 OA
ENDROOT
BRANCH  10  11
ATOM     11  N   UNL     1      -1.468  -1.400  25.027  0.00  0.00    -0.207 NA
ATOM     12  C   UNL     1      -1.931  -1.813  24.484  0.00  0.00    +0.246 C 
ATOM     13  O   UNL     1      -1.914  -1.605  23.685  0.00  0.00    -0.273 OA
BRANCH  12  14
ATOM     14  C   UNL     1      -2.411  -2.434  24.738  0.00  0.00    +0.113 C 
BRANCH  14  15
ATOM     15  C   UNL     1      -3.168  -2.526  24.425  0.00  0.00    -0.013 A 
ATOM     16  C   UNL     1      -3.739  -1.941  24.548  0.00  0.00    -0.004 A 
ATOM     17  C   UNL     1      -4.496  -2.033  24.235  0.00  0.00    -0.000 A 
ATOM     18  C   UNL     1      -4.684  -2.708  23.799  0.00  0.00    -0.000 A 
ATOM     19  C   UNL     1      -4.113  -3.292  23.676  0.00  0.00    -0.000 A 
ATOM     20  C   UNL     1      -3.356  -3.200  23.989  0.00  0.00    -0.004 A 
ENDBRANCH  14  15
ENDBRANCH  12  14
ENDBRANCH  10  11
BRANCH   3   2
ATOM      1  C   UNL     1       0.423   2.672  26.202  0.00  0.00    +0.010 C 
ATOM      2  C   UNL     1      -0.011   2.604  25.504  0.00  0.00    +0.081 C 
BRANCH   2  26
ATOM     26  C   UNL     1      -0.439   3.250  25.220  0.00  0.00    +0.241 C 
ATOM     27  O   UNL     1      -0.348   3.492  24.436  0.00  0.00    -0.273 OA
ATOM     28  N   UNL     1      -0.958   3.653  25.718  0.00  0.00    -0.207 NA
BRANCH  28  29
ATOM     29  C   UNL     1      -1.385   4.298  25.434  0.00  0.00    +0.095 C 
ATOM     30  C   UNL     1      -0.990   4.980  25.189  0.00  0.00    +0.022 C 
ATOM     31  C   UNL     1      -1.418   5.625  24.904  0.00  0.00    +0.002 C 
ATOM     32  C   UNL     1      -2.242   5.589  24.865  0.00  0.00    +0.000 C 
ATOM     33  C   UNL     1      -2.637   4.908  25.110  0.00  0.00    +0.002 C 
ATOM     34  C   UNL     1      -2.209   4.262  25.395  0.00  0.00    +0.022 C 
ENDBRANCH  28  29
ENDBRANCH   2  26
ENDBRANCH   3   2
TORSDOF 6
ENDMDL
MODEL 5
REMARK VINA RESULT:     -10.9      2.669      4.487
REMARK  Name = 
REMARK  6 active torsions:
REMARK  status: ('A' for Active; 'I' for Inactive)
REMARK    1  A    between atoms: C_2  and  C_3
REMARK    2  A    between atoms: C_2  and  C_26
REMARK    3  A    between atoms: C_10  and  N_11
REMARK    4  A    between atoms: C_12  and  C_14
REMARK    5  A    between atoms: C_14  and  C_15
REMARK    6  A    between atoms: N_28  and  C_29
REMARK                            x       y       z     vdW  Elec       q    Type
REMARK                         _______ _______ _______ _____ _____    ______ ____
ROOT
ATOM      3  C   UNL     1      -1.607   0.749  24.787  0.00  0.00    +0.039 C 
ATOM      4  C   UNL     1      -1.467   1.516  25.060  0.00  0.00    +0.003 C 
ATOM      5  C   UNL     1      -0.756   1.894  24.881  0.00  0.00    +0.000 C 
ATOM      6  C   UNL     1      -0.185   1.506  24.431  0.00  0.00    +0.002 C 
ATOM      7  C   UNL     1      -0.045   2.271  24.703  0.00  0.00    +0.000 C 
ATOM      8  C   UNL     1       0.527   1.883  24.252  0.00  0.00    +0.002 C 
ATOM      9  C   UNL     1       1.098   1.496  23.802  0.00  0.00    +0.022 C 
ATOM     10  C   UNL     1       0.959   0.728  23.530  0.00  0.00    +0.095 C 
ATOM     21  C   UNL     1       0.248   0.351  23.708  0.00  0.00    +0.022 C 
ATOM     22  C   UNL     1       0.108  -0.415  23.436  0.00  0.00    +0.002 C 
ATOM     23  C   UNL     1      -0.324   0.739  24.159  0.00  0.00    +0.032 C 
ATOM     24  C   UNL     1      -1.035   0.361  24.337  0.00  0.00    +0.152 C 
ATOM     25  O   UNL     1      -1.175  -0.405  24.065  0.00  0.00    -0.223 OA
ENDROOT
BRANCH  10  11
ATOM     11  N   UNL     1       1.531   0.341  23.079  0.00  0.00    -0.207 NA
ATOM     12  C   UNL     1       2.301   0.635  23.047  0.00  0.00    +0.246 C 
ATOM     13  O   UNL     1       2.499   1.318  23.466  0.00  0.00    -0.273 OA
BRANCH  12  14
ATOM     14  C   UNL     1       2.873   0.247  22.597  0.00  0.00    +0.113 C 
BRANCH  14  15
ATOM     15  C   UNL     1       3.629   0.127  22.903  0.00  0.00    -0.013 A 
ATOM     16  C   UNL     1       4.210   0.705  22.805  0.00  0.00    -0.004 A 
ATOM     17  C   UNL     1       4.967   0.585  23.112  0.00  0.00    -0.000 A 
ATOM     18  C   UNL     1       5.142  -0.112  23.517  0.00  0.00    -0.000 A 
ATOM     19  C   UNL     1       4.560  -0.690  23.615  0.00  0.00    -0.000 A 
ATOM     20  C   UNL     1       3.805  -0.570  23.308  0.00  0.00    -0.004 A 
ENDBRANCH  14  15
ENDBRANCH  12  14
ENDBRANCH  10  11
BRANCH   3   2
ATOM      1  C   UNL     1      -2.312  -0.356  25.355  0.00  0.00    +0.010 C 
ATOM      2  C   UNL     1      -2.318   0.372  24.966  0.00  0.00    +0.081 C 
BRANCH   2  26
ATOM     26  C   UNL     1      -3.036   0.721  24.757  0.00  0.00    +0.241 C 
ATOM     27  O   UNL     1      -3.257   0.766  23.962  0.00  0.00    -0.273 OA
ATOM     28  N   UNL     1      -3.533   1.026  25.340  0.00  0.00    -0.207 NA
BRANCH  28  29
ATOM     29  C   UNL     1      -4.249   1.375  25.130  0.00  0.00    +0.095 C 
ATOM     30  C   UNL     1      -4.288   2.187  24.987  0.00  0.00    +0.022 C 
ATOM     31  C   UNL     1      -5.005   2.535  24.778  0.00  0.00    +0.002 C 
ATOM     32  C   UNL     1      -5.685   2.072  24.710  0.00  0.00    +0.000 C 
ATOM     33  C   UNL     1      -5.647   1.261  24.853  0.00  0.00    +0.002 C 
ATOM     34  C   UNL     1      -4.930   0.911  25.063  0.00  0.00    +0.022 C 
ENDBRANCH  28  29
ENDBRANCH   2  26
ENDBRANCH   3   2
TORSDOF 6
ENDMDL
MODEL 6
REMARK VINA RESULT:     -10.9      2.126      3.488
REMARK  Name = 
REMARK  6 active torsions:
REMARK  status: ('A' for Active; 'I' for Inactive)
REMARK    1  A    between atoms: C_2  and  C_3
REMARK    2  A    between atoms: C_2  and  C_26
REMARK    3  A    between atoms: C_10  and  N_11
REMARK    4  A    between atoms: C_12  and  C_14
REMARK    5  A    between atoms: C_14  and  C_15
REMARK    6  A    between atoms: N_28  and  C_29
REMARK                            x       y       z     vdW  Elec       q    Type
REMARK                         _______ _______ _______ _____ _____    ______ ____
ROOT
ATOM      3  C   UNL     1      -4.270   0.060  24.455  0.00  0.00    +0.039 C 
ATOM      4  C   UNL     1      -4.918   0.054  24.967  0.00  0.00    +0.003 C 
ATOM      5  C   UNL     1      -5.186   0.759  25.301  0.00  0.00    +0.000 C 
ATOM      6  C   UNL     1      -4.807   1.469  25.124  0.00  0.00    +0.002 C 
ATOM      7  C   UNL     1      -5.453   1.463  25.635  0.00  0.00    +0.000 C 
ATOM      8  C   UNL     1      -5.074   2.174  25.458  0.00  0.00    +0.002 C 
ATOM      9  C   UNL     1      -4.695   2.885  25.281  0.00  0.00    +0.022 C 
ATOM     10  C   UNL     1      -4.048   2.891  24.768  0.00  0.00    +0.095 C 
ATOM     21  C   UNL     1      -3.780   2.186  24.434  0.00  0.00    +0.022 C 
ATOM     22  C   UNL     1      -3.133   2.192  23.922  0.00  0.00    +0.002 C 
ATOM     23  C   UNL     1      -4.159   1.475  24.611  0.00  0.00    +0.032 C 
ATOM     24  C   UNL     1      -3.892   0.770  24.277  0.00  0.00    +0.152 C 
ATOM     25  O   UNL     1      -3.245   0.776  23.766  0.00  0.00    -0.223 OA
ENDROOT
BRANCH  10  11
ATOM     11  N   UNL     1      -3.669   3.602  24.591  0.00  0.00    -0.207 NA
ATOM     12  C   UNL     1      -3.303   4.035  25.189  0.00  0.00    +0.246 C 
ATOM     13  O   UNL     1      -3.315   3.757  25.967  0.00  0.00    -0.273 OA
BRANCH  12  14
ATOM     14  C   UNL     1      -2.924   4.746  25.012  0.00  0.00    +0.113 C 
BRANCH  14  15
ATOM     15  C   UNL     1      -2.101   4.793  25.033  0.00  0.00    -0.013 A 
ATOM     16  C   UNL     1      -1.710   5.387  24.614  0.00  0.00    -0.004 A 
ATOM     17  C   UNL     1      -0.886   5.433  24.636  0.00  0.00    -0.000 A 
ATOM     18  C   UNL     1      -0.454   4.886  25.075  0.00  0.00    -0.000 A 
ATOM     19  C   UNL     1      -0.845   4.291  25.494  0.00  0.00    -0.000 A 
ATOM     20  C   UNL     1      -1.668   4.245  25.473  0.00  0.00    -0.004 A 
ENDBRANCH  14  15
ENDBRANCH  12  14
ENDBRANCH  10  11
BRANCH   3   2
ATOM      1  C   UNL     1      -4.324  -0.912  23.409  0.00  0.00    +0.010 C 
ATOM      2  C   UNL     1      -4.003  -0.646  24.121  0.00  0.00    +0.081 C 
BRANCH   2  26
ATOM     26  C   UNL     1      -3.415  -1.086  24.498  0.00  0.00    +0.241 C 
ATOM     27  O   UNL     1      -3.553  -1.400  25.249  0.00  0.00    -0.273 OA
ATOM     28  N   UNL     1      -2.691  -1.211  24.125  0.00  0.00    -0.207 NA
BRANCH  28  29
ATOM     29  C   UNL     1      -2.104  -1.650  24.502  0.00  0.00    +0.095 C 
ATOM     30  C   UNL     1      -1.506  -1.267  24.923  0.00  0.00    +0.022 C 
ATOM     31  C   UNL     1      -0.919  -1.706  25.300  0.00  0.00    +0.002 C 
ATOM     32  C   UNL     1      -0.929  -2.531  25.257  0.00  0.00    +0.000 C 
ATOM     33  C   UNL     1      -1.526  -2.914  24.837  0.00  0.00    +0.002 C 
ATOM     34  C   UNL     1      -2.113  -2.475  24.459  0.00  0.00    +0.022 C 
ENDBRANCH  28  29
ENDBRANCH   2  26
ENDBRANCH   3   2
TORSDOF 6
ENDMDL
MODEL 7
REMARK VINA RESULT:     -10.3      1.916      5.398
REMARK  Name = 
REMARK  6 active torsions:
REMARK  status: ('A' for Active; 'I' for Inactive)
REMARK    1  A    between atoms: C_2  and  C_3
REMARK    2  A    between atoms: C_2  and  C_26
REMARK    3  A    between atoms: C_10  and  N_11
REMARK    4  A    between atoms: C_12  and  C_14
REMARK    5  A    between atoms: C_14  and  C_15
REMARK    6  A    between atoms: N_28  and  C_29
REMARK                            x       y       z     vdW  Elec       q    Type
REMARK                         _______ _______ _______ _____ _____    ______ ____
ROOT
ATOM      3  C   UNL     1      -1.975   3.121  25.134  0.00  0.00    +0.039 C 
ATOM      4  C   UNL     1      -1.395   3.259  25.707  0.00  0.00    +0.003 C 
ATOM      5  C   UNL     1      -0.892   2.648  25.939  0.00  0.00    +0.000 C 
ATOM      6  C   UNL     1      -0.968   1.901  25.600  0.00  0.00    +0.002 C 
ATOM      7  C   UNL     1      -0.390   2.038  26.171  0.00  0.00    +0.000 C 
ATOM      8  C   UNL     1      -0.464   1.289  25.832  0.00  0.00    +0.002 C 
ATOM      9  C   UNL     1      -0.540   0.542  25.493  0.00  0.00    +0.022 C 
ATOM     10  C   UNL     1      -1.119   0.404  24.921  0.00  0.00    +0.095 C 
ATOM     21  C   UNL     1      -1.622   1.015  24.688  0.00  0.00    +0.022 C 
ATOM     22  C   UNL     1      -2.201   0.877  24.117  0.00  0.00    +0.002 C 
ATOM     23  C   UNL     1      -1.547   1.763  25.027  0.00  0.00    +0.032 C 
ATOM     24  C   UNL     1      -2.050   2.374  24.795  0.00  0.00    +0.152 C 
ATOM     25  O   UNL     1      -2.629   2.236  24.224  0.00  0.00    -0.223 OA
ENDROOT
BRANCH  10  11
ATOM     11  N   UNL     1      -1.194  -0.345  24.582  0.00  0.00    -0.207 NA
ATOM     12  C   UNL     1      -1.323  -1.003  25.060  0.00  0.00    +0.246 C 
ATOM     13  O   UNL     1      -1.378  -0.914  25.879  0.00  0.00    -0.273 OA
BRANCH  12  14
ATOM     14  C   UNL     1      -1.398  -1.752  24.721  0.00  0.00    +0.113 C 
BRANCH  14  15
ATOM     15  C   UNL     1      -2.130  -2.132  24.717  0.00  0.00    -0.013 A 
ATOM     16  C   UNL     1      -2.470  -2.365  24.001  0.00  0.00    -0.004 A 
ATOM     17  C   UNL     1      -3.202  -2.745  23.998  0.00  0.00    -0.000 A 
ATOM     18  C   UNL     1      -3.594  -2.894  24.708  0.00  0.00    -0.000 A 
ATOM     19  C   UNL     1      -3.253  -2.661  25.423  0.00  0.00    -0.000 A 
ATOM     20  C   UNL     1      -2.522  -2.281  25.427  0.00  0.00    -0.004 A 
ENDBRANCH  14  15
ENDBRANCH  12  14
ENDBRANCH  10  11
BRANCH   3   2
ATOM      1  C   UNL     1      -2.233   4.273  24.328  0.00  0.00    +0.010 C 
ATOM      2  C   UNL     1      -2.478   3.733  24.902  0.00  0.00    +0.081 C 
BRANCH   2  26
ATOM     26  C   UNL     1      -3.226   3.805  25.243  0.00  0.00    +0.241 C 
ATOM     27  O   UNL     1      -3.298   4.002  26.043  0.00  0.00    -0.273 OA
ATOM     28  N   UNL     1      -3.902   3.682  24.787  0.00  0.00    -0.207 NA
BRANCH  28  29
ATOM     29  C   UNL     1      -4.649   3.754  25.129  0.00  0.00    +0.095 C 
ATOM     30  C   UNL     1      -4.994   4.499  25.213  0.00  0.00    +0.022 C 
ATOM     31  C   UNL     1      -5.741   4.571  25.555  0.00  0.00    +0.002 C 
ATOM     32  C   UNL     1      -6.144   3.898  25.812  0.00  0.00    +0.000 C 
ATOM     33  C   UNL     1      -5.800   3.154  25.728  0.00  0.00    +0.002 C 
ATOM     34  C   UNL     1      -5.052   3.081  25.386  0.00  0.00    +0.022 C 
ENDBRANCH  28  29
ENDBRANCH   2  26
ENDBRANCH   3   2
TORSDOF 6
ENDMDL
MODEL 8
REMARK VINA RESULT:     -10.2      2.531      4.440
REMARK  Name = 
REMARK  6 active torsions:
REMARK  status: ('A' for Active; 'I' for Inactive)
REMARK    1  A    between atoms: C_2  and  C_3
REMARK    2  A    between atoms: C_2  and  C_26
REMARK    3  A    between atoms: C_10  and  N_11
REMARK    4  A    between atoms: C_12  and  C_14
REMARK    5  A    between atoms: C_14  and  C_15
REMARK    6  A    between atoms: N_28  and  C_29
REMARK                            x       y       z     vdW  Elec       q    Type
REMARK                         _______ _______ _______ _____ _____    ______ ____
ROOT
ATOM      3  C   UNL     1      -0.171   1.054  24.265  0.00  0.00    +0.039 C 
ATOM      4  C   UNL     1       0.268   1.525  24.782  0.00  0.00    +0.003 C 
ATOM      5  C   UNL     1      -0.080   2.186  25.133  0.00  0.00    +0.000 C 
ATOM      6  C   UNL     1      -0.864   2.376  24.967  0.00  0.00    +0.002 C 
ATOM      7  C   UNL     1      -0.427   2.846  25.484  0.00  0.00    +0.000 C 
ATOM      8  C   UNL     1      -1.213   3.036  25.318  0.00  0.00    +0.002 C 
ATOM      9  C   UNL     1      -1.997   3.227  25.153  0.00  0.00    +0.022 C 
ATOM     10  C   UNL     1      -2.436   2.756  24.635  0.00  0.00    +0.095 C 
ATOM     21  C   UNL     1      -2.088   2.095  24.284  0.00  0.00    +0.022 C 
ATOM     22  C   UNL     1      -2.526   1.625  23.767  0.00  0.00    +0.002 C 
ATOM     23  C   UNL     1      -1.303   1.905  24.450  0.00  0.00    +0.032 C 
ATOM     24  C   UNL     1      -0.955   1.245  24.099  0.00  0.00    +0.152 C 
ATOM     25  O   UNL     1      -1.393   0.774  23.582  0.00  0.00    -0.223 OA
ENDROOT
BRANCH  10  11
ATOM     11  N   UNL     1      -3.221   2.946  24.469  0.00  0.00    -0.207 NA
ATOM     12  C   UNL     1      -3.725   3.187  25.076  0.00  0.00    +0.246 C 
ATOM     13  O   UNL     1      -3.443   3.236  25.851  0.00  0.00    -0.273 OA
BRANCH  12  14
ATOM     14  C   UNL     1      -4.510   3.377  24.911  0.00  0.00    +0.113 C 
BRANCH  14  15
ATOM     15  C   UNL     1      -5.119   2.889  25.177  0.00  0.00    -0.013 A 
ATOM     16  C   UNL     1      -5.476   2.354  24.659  0.00  0.00    -0.004 A 
ATOM     17  C   UNL     1      -6.085   1.865  24.926  0.00  0.00    -0.000 A 
ATOM     18  C   UNL     1      -6.337   1.911  25.709  0.00  0.00    -0.000 A 
ATOM     19  C   UNL     1      -5.980   2.446  26.227  0.00  0.00    -0.000 A 
ATOM     20  C   UNL     1      -5.372   2.934  25.961  0.00  0.00    -0.004 A 
ENDBRANCH  14  15
ENDBRANCH  12  14
ENDBRANCH  10  11
BRANCH   3   2
ATOM      1  C   UNL     1      -0.098  -0.362  24.095  0.00  0.00    +0.010 C 
ATOM      2  C   UNL     1       0.178   0.394  23.914  0.00  0.00    +0.081 C 
BRANCH   2  26
ATOM     26  C   UNL     1       0.801   0.488  23.381  0.00  0.00    +0.241 C 
ATOM     27  O   UNL     1       0.691   0.927  22.690  0.00  0.00    -0.273 OA
ATOM     28  N   UNL     1       1.534   0.145  23.539  0.00  0.00    -0.207 NA
BRANCH  28  29
ATOM     29  C   UNL     1       2.157   0.239  23.007  0.00  0.00    +0.095 C 
ATOM     30  C   UNL     1       2.150  -0.163  22.286  0.00  0.00    +0.022 C 
ATOM     31  C   UNL     1       2.772  -0.069  21.754  0.00  0.00    +0.002 C 
ATOM     32  C   UNL     1       3.404   0.430  21.942  0.00  0.00    +0.000 C 
ATOM     33  C   UNL     1       3.411   0.832  22.662  0.00  0.00    +0.002 C 
ATOM     34  C   UNL     1       2.788   0.738  23.194  0.00  0.00    +0.022 C 
ENDBRANCH  28  29
ENDBRANCH   2  26
ENDBRANCH   3   2
TORSDOF 6
ENDMDL
MODEL 9
REMARK VINA RESULT:     -10.2      2.774      4.889
REMARK  Name = 
REMARK  6 active torsions:
REMARK  status: ('A' for Active; 'I' for Inactive)
REMARK    1  A    between atoms: C_2  and  C_3
REMARK    2  A    between atoms: C_2  and  C_26
REMARK    3  A    between atoms: C_10  and  N_11
REMARK    4  A    between atoms: C_12  and  C_14
REMARK    5  A    between atoms: C_14  and  C_15
REMARK    6  A    between atoms: N_28  and  C_29
REMARK                            x       y       z     vdW  Elec       q    Type
REMARK                         _______ _______ _______ _____ _____    ______ ____
ROOT
ATOM      3  C   UNL     1      -2.113   3.129  24.892  0.00  0.00    +0.039 C 
ATOM      4  C   UNL     1      -1.737   3.321  25.602  0.00  0.00    +0.003 C 
ATOM      5  C   UNL     1      -1.007   2.987  25.785  0.00  0.00    +0.000 C 
ATOM      6  C   UNL     1      -0.651   2.460  25.260  0.00  0.00    +0.002 C 
ATOM      7  C   UNL     1      -0.276   2.652  25.968  0.00  0.00    +0.000 C 
ATOM      8  C   UNL     1       0.080   2.124  25.443  0.00  0.00    +0.002 C 
ATOM      9  C   UNL     1       0.436   1.597  24.918  0.00  0.00    +0.022 C 
ATOM     10  C   UNL     1       0.060   1.405  24.208  0.00  0.00    +0.095 C 
ATOM     21  C   UNL     1      -0.671   1.740  24.025  0.00  0.00    +0.022 C 
ATOM     22  C   UNL     1      -1.047   1.548  23.316  0.00  0.00    +0.002 C 
ATOM     23  C   UNL     1      -1.027   2.267  24.550  0.00  0.00    +0.032 C 
ATOM     24  C   UNL     1      -1.758   2.602  24.367  0.00  0.00    +0.152 C 
ATOM     25  O   UNL     1      -2.134   2.410  23.658  0.00  0.00    -0.223 OA
ENDROOT
BRANCH  10  11
ATOM     11  N   UNL     1       0.416   0.877  23.683  0.00  0.00    -0.207 NA
ATOM     12  C   UNL     1       1.215   0.956  23.498  0.00  0.00    +0.246 C 
ATOM     13  O   UNL     1       1.660   1.562  23.838  0.00  0.00    -0.273 OA
BRANCH  12  14
ATOM     14  C   UNL     1       1.572   0.428  22.973  0.00  0.00    +0.113 C 
BRANCH  14  15
ATOM     15  C   UNL     1       2.393   0.369  22.940  0.00  0.00    -0.013 A 
ATOM     16  C   UNL     1       2.766  -0.330  23.172  0.00  0.00    -0.004 A 
ATOM     17  C   UNL     1       3.589  -0.389  23.140  0.00  0.00    -0.000 A 
ATOM     18  C   UNL     1       4.038   0.250  22.876  0.00  0.00    -0.000 A 
ATOM     19  C   UNL     1       3.665   0.950  22.644  0.00  0.00    -0.000 A 
ATOM     20  C   UNL     1       2.843   1.009  22.677  0.00  0.00    -0.004 A 
ENDBRANCH  14  15
ENDBRANCH  12  14
ENDBRANCH  10  11
BRANCH   3   2
ATOM      1  C   UNL     1      -2.894   4.059  24.139  0.00  0.00    +0.010 C 
ATOM      2  C   UNL     1      -2.845   3.464  24.709  0.00  0.00    +0.081 C 
BRANCH   2  26
ATOM     26  C   UNL     1      -3.527   3.206  25.096  0.00  0.00    +0.241 C 
ATOM     27  O   UNL     1      -3.602   3.309  25.912  0.00  0.00    -0.273 OA
ATOM     28  N   UNL     1      -4.133   2.847  24.668  0.00  0.00    -0.207 NA
BRANCH  28  29
ATOM     29  C   UNL     1      -4.814   2.589  25.055  0.00  0.00    +0.095 C 
ATOM     30  C   UNL     1      -5.335   3.138  25.383  0.00  0.00    +0.022 C 
ATOM     31  C   UNL     1      -6.016   2.881  25.770  0.00  0.00    +0.002 C 
ATOM     32  C   UNL     1      -6.177   2.072  25.829  0.00  0.00    +0.000 C 
ATOM     33  C   UNL     1      -5.656   1.524  25.501  0.00  0.00    +0.002 C 
ATOM     34  C   UNL     1      -4.975   1.781  25.114  0.00  0.00    +0.022 C 
ENDBRANCH  28  29
ENDBRANCH   2  26
ENDBRANCH   3   2
TORSDOF 6
ENDMDL
