MODEL 1
REMARK VINA RESULT:     -12.4      0.000      0.000
REMARK  Name = 
REMARK  5 active torsions:
REMARK  status: ('A' for Active; 'I' for Inactive)
REMARK    1  A    between atoms: C_2  and  C_4
REMARK    2  A    between atoms: C_7  and  C_8
REMARK    3  A    between atoms: C_8  and  N_9
REMARK    4  A    between atoms: N_15  and  C_16
REMARK    5  A    between atoms: C_16  and  C_17
REMARK                            x       y       z     vdW  Elec       q    Type
REMARK                         _______ _______ _______ _____ _____    ______ ____
ROOT
ATOM      9  N   UNL     1      -3.819   0.998  24.106  0.00  0.00    -0.266 NA
ATOM     10  C   UNL     1      -4.559   1.194  24.413  0.00  0.00    +0.094 C 
ATOM     11  C   UNL     1      -4.640   1.851  24.906  0.00  0.00    +0.112 C 
ATOM     12  N   UNL     1      -3.982   2.312  25.091  0.00  0.00    -0.261 N 
ATOM     13  C   UNL     1      -3.241   2.116  24.784  0.00  0.00    +0.113 C 
ATOM     14  C   UNL     1      -2.696   2.668  25.061  0.00  0.00    +0.116 C 
ATOM     15  N   UNL     1      -3.098   3.206  25.540  0.00  0.00    -0.258 N 
ATOM     24  C   UNL     1      -3.893   2.985  25.558  0.00  0.00    +0.308 C 
ATOM     25  O   UNL     1      -4.494   3.372  25.971  0.00  0.00    -0.252 OA
ATOM     26  C   UNL     1      -3.160   1.458  24.291  0.00  0.00    +0.094 C 
ENDROOT
BRANCH   9   8
ATOM      8  C   UNL     1      -3.738   0.341  23.613  0.00  0.00    +0.099 C 
BRANCH   8   7
ATOM      4  C   UNL     1      -3.562  -1.924  24.595  0.00  0.00    +0.080 A 
ATOM      5  C   UNL     1      -4.275  -1.671  24.268  0.00  0.00    +0.006 A 
ATOM      6  C   UNL     1      -4.335  -0.916  23.940  0.00  0.00    -0.003 A 
ATOM      7  C   UNL     1      -3.680  -0.414  23.940  0.00  0.00    -0.006 A 
ATOM     27  C   UNL     1      -2.965  -0.668  24.268  0.00  0.00    -0.003 A 
ATOM     28  C   UNL     1      -2.907  -1.423  24.595  0.00  0.00    +0.006 A 
BRANCH   4   2
ATOM      1  O   UNL     1      -3.385  -2.770  25.733  0.00  0.00    -0.241 OA
ATOM      2  C   UNL     1      -3.503  -2.680  24.922  0.00  0.00    +0.388 C 
ATOM      3  O   UNL     1      -3.562  -3.345  24.437  0.00  0.00    -0.241 OA
ENDBRANCH   4   2
ENDBRANCH   8   7
ENDBRANCH   9   8
BRANCH  15  16
ATOM     16  C   UNL     1      -2.765   3.851  25.931  0.00  0.00    +0.122 C 
BRANCH  16  17
ATOM     17  C   UNL     1      -2.126   4.252  25.597  0.00  0.00    -0.002 A 
ATOM     18  C   UNL     1      -1.375   3.909  25.601  0.00  0.00    -0.000 A 
ATOM     19  C   UNL     1      -0.737   4.311  25.266  0.00  0.00    +0.029 A 
ATOM     20  C   UNL     1      -0.849   5.055  24.928  0.00  0.00    +0.140 A 
ATOM     21  F   UNL     1      -0.210   5.456  24.593  0.00  0.00    -0.204 F 
ATOM     22  C   UNL     1      -1.599   5.397  24.924  0.00  0.00    +0.029 A 
ATOM     23  C   UNL     1      -2.238   4.997  25.258  0.00  0.00    -0.000 A 
ENDBRANCH  16  17
ENDBRANCH  15  16
TORSDOF 5
ENDMDL
MODEL 2
REMARK VINA RESULT:     -11.8      2.095      2.721
REMARK  Name = 
REMARK  5 active torsions:
REMARK  status: ('A' for Active; 'I' for Inactive)
REMARK    1  A    between atoms: C_2  and  C_4
REMARK    2  A    between atoms: C_7  and  C_8
REMARK    3  A    between atoms: C_8  and  N_9
REMARK    4  A    between atoms: N_15  and  C_16
REMARK    5  A    between atoms: C_16  and  C_17
REMARK                            x       y       z     vdW  Elec       q    Type
REMARK                         _______ _______ _______ _____ _____    ______ ____
ROOT
ATOM      9  N   UNL     1      -0.889  -0.203  25.171  0.00  0.00    -0.266 NA
ATOM     10  C   UNL     1      -0.359  -0.064  24.554  0.00  0.00    +0.094 C 
ATOM     11  C   UNL     1      -0.228   0.705  24.289  0.00  0.00    +0.112 C 
ATOM     12  N   UNL     1      -0.625   1.337  24.641  0.00  0.00    -0.261 N 
ATOM     13  C   UNL     1      -1.155   1.198  25.258  0.00  0.00    +0.113 C 
ATOM     14  C   UNL     1      -1.465   1.924  25.496  0.00  0.00    +0.116 C 
ATOM     15  N   UNL     1      -1.127   2.512  25.027  0.00  0.00    -0.258 N 
ATOM     24  C   UNL     1      -0.608   2.148  24.499  0.00  0.00    +0.308 C 
ATOM     25  O   UNL     1      -0.152   2.531  23.927  0.00  0.00    -0.252 OA
ATOM     26  C   UNL     1      -1.287   0.427  25.523  0.00  0.00    +0.094 C 
ENDROOT
BRANCH   9   8
ATOM      8  C   UNL     1      -1.021  -0.974  25.436  0.00  0.00    +0.099 C 
BRANCH   8   7
ATOM      4  C   UNL     1      -2.994  -2.235  24.635  0.00  0.00    +0.080 A 
ATOM      5  C   UNL     1      -2.261  -2.345  24.275  0.00  0.00    +0.006 A 
ATOM      6  C   UNL     1      -1.602  -1.925  24.541  0.00  0.00    -0.003 A 
ATOM      7  C   UNL     1      -1.678  -1.395  25.169  0.00  0.00    -0.006 A 
ATOM     27  C   UNL     1      -2.412  -1.284  25.530  0.00  0.00    -0.003 A 
ATOM     28  C   UNL     1      -3.070  -1.705  25.263  0.00  0.00    +0.006 A 
BRANCH   4   2
ATOM      1  O   UNL     1      -3.764  -3.438  24.602  0.00  0.00    -0.241 OA
ATOM      2  C   UNL     1      -3.652  -2.655  24.369  0.00  0.00    +0.388 C 
ATOM      3  O   UNL     1      -4.199  -2.291  23.869  0.00  0.00    -0.241 OA
ENDBRANCH   4   2
ENDBRANCH   8   7
ENDBRANCH   9   8
BRANCH  15  16
ATOM     16  C   UNL     1      -1.281   3.321  25.077  0.00  0.00    +0.122 C 
BRANCH  16  17
ATOM     17  C   UNL     1      -2.036   3.586  25.276  0.00  0.00    -0.002 A 
ATOM     18  C   UNL     1      -2.637   3.583  24.710  0.00  0.00    -0.000 A 
ATOM     19  C   UNL     1      -3.392   3.849  24.910  0.00  0.00    +0.029 A 
ATOM     20  C   UNL     1      -3.547   4.117  25.673  0.00  0.00    +0.140 A 
ATOM     21  F   UNL     1      -4.302   4.383  25.873  0.00  0.00    -0.204 F 
ATOM     22  C   UNL     1      -2.946   4.120  26.239  0.00  0.00    +0.029 A 
ATOM     23  C   UNL     1      -2.191   3.855  26.041  0.00  0.00    -0.000 A 
ENDBRANCH  16  17
ENDBRANCH  15  16
TORSDOF 5
ENDMDL
MODEL 3
REMARK VINA RESULT:     -11.7      2.576      5.912
REMARK  Name = 
REMARK  5 active torsions:
REMARK  status: ('A' for Active; 'I' for Inactive)
REMARK    1  A    between atoms: C_2  and  C_4
REMARK    2  A    between atoms: C_7  and  C_8
REMARK    3  A    between atoms: C_8  and  N_9
REMARK    4  A    between atoms: N_15  and  C_16
REMARK    5  A    between atoms: C_16  and  C_17
REMARK                            x       y       z     vdW  Elec       q    Type
REMARK                         _______ _______ _______ _____ _____    ______ ____
ROOT
ATOM      9  N   UNL     1      -1.038   1.464  24.574  0.00  0.00    -0.266 NA
ATOM     10  C   UNL     1      -0.496   1.145  25.107  0.00  0.00    +0.094 C 
ATOM     11  C   UNL     1      -0.690   0.469  25.538  0.00  0.00    +0.112 C 
ATOM     12  N   UNL     1      -1.426   0.112  25.436  0.00  0.00    -0.261 N 
ATOM     13  C   UNL     1      -1.969   0.431  24.903  0.00  0.00    +0.113 C 
ATOM     14  C   UNL     1      -2.647  -0.037  24.919  0.00  0.00    +0.116 C 
ATOM     15  N   UNL     1      -2.525  -0.646  25.462  0.00  0.00    -0.258 N 
ATOM     24  C   UNL     1      -1.770  -0.553  25.781  0.00  0.00    +0.308 C 
ATOM     25  O   UNL     1      -1.420  -1.041  26.347  0.00  0.00    -0.252 OA
ATOM     26  C   UNL     1      -1.775   1.108  24.472  0.00  0.00    +0.094 C 
ENDROOT
BRANCH   9   8
ATOM      8  C   UNL     1      -0.844   2.141  24.143  0.00  0.00    +0.099 C 
BRANCH   8   7
ATOM      4  C   UNL     1      -1.476   4.375  24.999  0.00  0.00    +0.080 A 
ATOM      5  C   UNL     1      -2.020   3.930  24.568  0.00  0.00    +0.006 A 
ATOM      6  C   UNL     1      -1.810   3.185  24.282  0.00  0.00    -0.003 A 
ATOM      7  C   UNL     1      -1.055   2.885  24.428  0.00  0.00    -0.006 A 
ATOM     27  C   UNL     1      -0.510   3.331  24.860  0.00  0.00    -0.003 A 
ATOM     28  C   UNL     1      -0.721   4.075  25.145  0.00  0.00    +0.006 A 
BRANCH   4   2
ATOM      1  O   UNL     1      -2.330   5.201  25.793  0.00  0.00    -0.241 OA
ATOM      2  C   UNL     1      -1.686   5.120  25.285  0.00  0.00    +0.388 C 
ATOM      3  O   UNL     1      -1.250   5.785  25.062  0.00  0.00    -0.241 OA
ENDBRANCH   4   2
ENDBRANCH   8   7
ENDBRANCH   9   8
BRANCH  15  16
ATOM     16  C   UNL     1      -3.062  -1.243  25.652  0.00  0.00    +0.122 C 
BRANCH  16  17
ATOM     17  C   UNL     1      -3.445  -1.659  25.052  0.00  0.00    -0.002 A 
ATOM     18  C   UNL     1      -4.065  -1.308  24.635  0.00  0.00    -0.000 A 
ATOM     19  C   UNL     1      -4.448  -1.725  24.036  0.00  0.00    +0.029 A 
ATOM     20  C   UNL     1      -4.212  -2.494  23.852  0.00  0.00    +0.140 A 
ATOM     21  F   UNL     1      -4.595  -2.912  23.253  0.00  0.00    -0.204 F 
ATOM     22  C   UNL     1      -3.593  -2.846  24.269  0.00  0.00    +0.029 A 
ATOM     23  C   UNL     1      -3.209  -2.429  24.869  0.00  0.00    -0.000 A 
ENDBRANCH  16  17
ENDBRANCH  15  16
TORSDOF 5
ENDMDL
MODEL 4
REMARK VINA RESULT:     -11.6      2.681      5.436
REMARK  Name = 
REMARK  5 active torsions:
REMARK  status: ('A' for Active; 'I' for Inactive)
REMARK    1  A    between atoms: C_2  and  C_4
REMARK    2  A    between atoms: C_7  and  C_8
REMARK    3  A    between atoms: C_8  and  N_9
REMARK    4  A    between atoms: N_15  and  C_16
REMARK    5  A    between atoms: C_16  and  C_17
REMARK                            x       y       z     vdW  Elec       q    Type
REMARK                         _______ _______ _______ _____ _____    ______ ____
ROOT
ATOM      9  N   UNL     1      -2.438   2.061  24.132  0.00  0.00    -0.266 NA
ATOM     10  C   UNL     1      -1.659   2.225  24.346  0.00  0.00    +0.094 C 
ATOM     11  C   UNL     1      -1.162   1.614  24.589  0.00  0.00    +0.112 C 
ATOM     12  N   UNL     1      -1.443   0.839  24.619  0.00  0.00    -0.261 N 
ATOM     13  C   UNL     1      -2.223   0.676  24.405  0.00  0.00    +0.113 C 
ATOM     14  C   UNL     1      -2.346  -0.135  24.489  0.00  0.00    +0.116 C 
ATOM     15  N   UNL     1      -1.642  -0.474  24.755  0.00  0.00    -0.258 N 
ATOM     24  C   UNL     1      -1.085   0.129  24.835  0.00  0.00    +0.308 C 
ATOM     25  O   UNL     1      -0.304   0.037  25.088  0.00  0.00    -0.252 OA
ATOM     26  C   UNL     1      -2.721   1.287  24.161  0.00  0.00    +0.094 C 
ENDROOT
BRANCH   9   8
ATOM      8  C   UNL     1      -2.937   2.673  23.887  0.00  0.00    +0.099 C 
BRANCH   8   7
ATOM      4  C   UNL     1      -4.874   3.321  25.285  0.00  0.00    +0.080 A 
ATOM      5  C   UNL     1      -4.130   3.644  25.436  0.00  0.00    +0.006 A 
ATOM      6  C   UNL     1      -3.484   3.428  24.970  0.00  0.00    -0.003 A 
ATOM      7  C   UNL     1      -3.582   2.889  24.354  0.00  0.00    -0.006 A 
ATOM     27  C   UNL     1      -4.326   2.566  24.202  0.00  0.00    -0.003 A 
ATOM     28  C   UNL     1      -4.972   2.782  24.668  0.00  0.00    +0.006 A 
BRANCH   4   2
ATOM      1  O   UNL     1      -5.874   4.274  25.650  0.00  0.00    -0.241 OA
ATOM      2  C   UNL     1      -5.520   3.536  25.751  0.00  0.00    +0.388 C 
ATOM      3  O   UNL     1      -5.812   3.013  26.318  0.00  0.00    -0.241 OA
ENDBRANCH   4   2
ENDBRANCH   8   7
ENDBRANCH   9   8
BRANCH  15  16
ATOM     16  C   UNL     1      -1.518  -1.274  24.913  0.00  0.00    +0.122 C 
BRANCH  16  17
ATOM     17  C   UNL     1      -2.143  -1.808  24.853  0.00  0.00    -0.002 A 
ATOM     18  C   UNL     1      -2.721  -1.835  25.441  0.00  0.00    -0.000 A 
ATOM     19  C   UNL     1      -3.346  -2.371  25.380  0.00  0.00    +0.029 A 
ATOM     20  C   UNL     1      -3.393  -2.879  24.733  0.00  0.00    +0.140 A 
ATOM     21  F   UNL     1      -4.017  -3.414  24.672  0.00  0.00    -0.204 F 
ATOM     22  C   UNL     1      -2.814  -2.852  24.145  0.00  0.00    +0.029 A 
ATOM     23  C   UNL     1      -2.189  -2.318  24.205  0.00  0.00    -0.000 A 
ENDBRANCH  16  17
ENDBRANCH  15  16
TORSDOF 5
ENDMDL
