MODEL 1
REMARK VINA RESULT:     -12.7      0.000      0.000
REMARK  Name = 
REMARK  7 active torsions:
REMARK  status: ('A' for Active; 'I' for Inactive)
REMARK    1  A    between atoms: N_2  and  C_4
REMARK    2  A    between atoms: C_7  and  C_10
REMARK    3  A    between atoms: C_13  and  C_15
REMARK    4  A    between atoms: N_18  and  C_19
REMARK    5  A    between atoms: C_19  and  C_20
REMARK    6  A    between atoms: C_24  and  O_25
REMARK    7  A    between atoms: O_25  and  C_26
REMARK                            x       y       z     vdW  Elec       q    Type
REMARK                         _______ _______ _______ _____ _____    ______ ____
ROOT
ATOM     15  C   UNL     1      -4.056   2.617  25.017  0.00  0.00    +0.096 C 
ATOM     16  C   UNL     1      -4.316   3.256  24.563  0.00  0.00    +0.028 C 
ATOM     17  C   UNL     1      -3.897   3.925  24.801  0.00  0.00    +0.073 C 
ATOM     18  N   UNL     1      -3.378   3.701  25.402  0.00  0.00    -0.268 NA
ATOM     31  C   UNL     1      -3.476   2.892  25.535  0.00  0.00    +0.082 C 
ENDROOT
BRANCH  15  13
ATOM     10  C   UNL     1      -4.360   0.512  24.830  0.00  0.00    +0.250 A 
ATOM     11  N   UNL     1      -5.135   0.778  24.923  0.00  0.00    -0.107 NA
ATOM     12  N   UNL     1      -5.116   1.599  25.005  0.00  0.00    -0.111 NA
ATOM     13  C   UNL     1      -4.329   1.841  24.962  0.00  0.00    +0.227 A 
ATOM     14  O   UNL     1      -3.861   1.169  24.854  0.00  0.00    -0.419 OA
BRANCH  10   7
ATOM      4  C   UNL     1      -3.653  -1.841  24.531  0.00  0.00    +0.048 A 
ATOM      5  C   UNL     1      -3.977  -1.424  23.898  0.00  0.00    +0.015 A 
ATOM      6  C   UNL     1      -4.213  -0.639  23.998  0.00  0.00    +0.006 A 
ATOM      7  C   UNL     1      -4.125  -0.272  24.731  0.00  0.00    +0.055 A 
ATOM      8  C   UNL     1      -3.800  -0.689  25.365  0.00  0.00    +0.006 A 
ATOM      9  C   UNL     1      -3.564  -1.474  25.265  0.00  0.00    +0.015 A 
BRANCH   4   2
ATOM      1  C   UNL     1      -2.631  -2.840  24.563  0.00  0.00    +0.112 C 
ATOM      2  N   UNL     1      -3.418  -2.625  24.432  0.00  0.00    -0.304 N 
ATOM      3  C   UNL     1      -3.967  -3.195  24.201  0.00  0.00    +0.112 C 
ENDBRANCH   4   2
ENDBRANCH  10   7
ENDBRANCH  15  13
BRANCH  18  19
ATOM     19  C   UNL     1      -2.853   4.197  25.799  0.00  0.00    +0.099 C 
BRANCH  19  20
ATOM     20  C   UNL     1      -2.065   4.245  25.557  0.00  0.00    -0.003 A 
ATOM     21  C   UNL     1      -1.820   4.866  25.073  0.00  0.00    -0.003 A 
ATOM     22  C   UNL     1      -1.034   4.914  24.831  0.00  0.00    +0.003 A 
ATOM     23  C   UNL     1      -0.492   4.340  25.072  0.00  0.00    +0.037 A 
ATOM     24  C   UNL     1      -0.737   3.719  25.556  0.00  0.00    +0.147 A 
ATOM     30  C   UNL     1      -1.525   3.671  25.799  0.00  0.00    +0.034 A 
BRANCH  24  25
ATOM     25  O   UNL     1      -0.196   3.145  25.798  0.00  0.00    -0.404 OA
BRANCH  25  26
ATOM     26  C   UNL     1      -0.223   2.389  25.471  0.00  0.00    +0.575 C 
ATOM     27  F   UNL     1      -0.250   1.632  25.143  0.00  0.00    -0.133 F 
ATOM     28  F   UNL     1       0.112   2.677  24.775  0.00  0.00    -0.133 F 
ATOM     29  F   UNL     1      -0.559   2.099  26.167  0.00  0.00    -0.133 F 
ENDBRANCH  25  26
ENDBRANCH  24  25
ENDBRANCH  19  20
ENDBRANCH  18  19
TORSDOF 7
ENDMDL
MODEL 2
REMARK VINA RESULT:     -11.3      2.043      3.001
REMARK  Name = 
REMARK  7 active torsions:
REMARK  status: ('A' for Active; 'I' for Inactive)
REMARK    1  A    between atoms: N_2  and  C_4
REMARK    2  A    between atoms: C_7  and  C_10
REMARK    3  A    between atoms: C_13  and  C_15
REMARK    4  A    between atoms: N_18  and  C_19
REMARK    5  A    between atoms: C_19  and  C_20
REMARK    6  A    between atoms: C_24  and  O_25
REMARK    7  A    between atoms: O_25  and  C_26
REMARK                            x       y       z     vdW  Elec       q    Type
REMARK                         _______ _______ _______ _____ _____    ______ ____
ROOT
ATOM     15  C   UNL     1      -0.307   1.359  24.755  0.00  0.00    +0.096 C 
ATOM     16  C   UNL     1       0.218   1.812  24.306  0.00  0.00    +0.028 C 
ATOM     17  C   UNL     1       0.244   2.569  24.632  0.00  0.00    +0.073 C 
ATOM     18  N   UNL     1      -0.265   2.585  25.282  0.00  0.00    -0.268 NA
ATOM     31  C   UNL     1      -0.605   1.837  25.357  0.00  0.00    +0.082 C 
ENDROOT
BRANCH  15  13
ATOM     10  C   UNL     1      -1.191  -0.567  24.495  0.00  0.00    +0.250 A 
ATOM     11  N   UNL     1      -0.398  -0.735  24.346  0.00  0.00    -0.107 NA
ATOM     12  N   UNL     1       0.031  -0.033  24.426  0.00  0.00    -0.111 NA
ATOM     13  C   UNL     1      -0.498   0.568  24.623  0.00  0.00    +0.227 A 
ATOM     14  O   UNL     1      -1.254   0.238  24.666  0.00  0.00    -0.419 OA
BRANCH  10   7
ATOM      4  C   UNL     1      -3.058  -2.191  24.438  0.00  0.00    +0.048 A 
ATOM      5  C   UNL     1      -3.214  -1.382  24.405  0.00  0.00    +0.015 A 
ATOM      6  C   UNL     1      -2.591  -0.840  24.424  0.00  0.00    +0.006 A 
ATOM      7  C   UNL     1      -1.813  -1.108  24.476  0.00  0.00    +0.055 A 
ATOM      8  C   UNL     1      -1.656  -1.918  24.510  0.00  0.00    +0.006 A 
ATOM      9  C   UNL     1      -2.279  -2.460  24.491  0.00  0.00    +0.015 A 
BRANCH   4   2
ATOM      1  C   UNL     1      -4.318  -2.610  23.910  0.00  0.00    +0.112 C 
ATOM      2  N   UNL     1      -3.680  -2.733  24.419  0.00  0.00    -0.304 N 
ATOM      3  C   UNL     1      -3.665  -3.396  24.909  0.00  0.00    +0.112 C 
ENDBRANCH   4   2
ENDBRANCH  10   7
ENDBRANCH  15  13
BRANCH  18  19
ATOM     19  C   UNL     1      -0.408   3.234  25.769  0.00  0.00    +0.099 C 
BRANCH  19  20
ATOM     20  C   UNL     1      -0.996   3.778  25.571  0.00  0.00    -0.003 A 
ATOM     21  C   UNL     1      -0.799   4.468  25.164  0.00  0.00    -0.003 A 
ATOM     22  C   UNL     1      -1.385   5.012  24.966  0.00  0.00    +0.003 A 
ATOM     23  C   UNL     1      -2.170   4.866  25.174  0.00  0.00    +0.037 A 
ATOM     24  C   UNL     1      -2.368   4.176  25.581  0.00  0.00    +0.147 A 
ATOM     30  C   UNL     1      -1.780   3.632  25.779  0.00  0.00    +0.034 A 
BRANCH  24  25
ATOM     25  O   UNL     1      -3.153   4.029  25.789  0.00  0.00    -0.404 OA
BRANCH  25  26
ATOM     26  C   UNL     1      -3.644   3.610  25.276  0.00  0.00    +0.575 C 
ATOM     27  F   UNL     1      -4.135   3.189  24.763  0.00  0.00    -0.133 F 
ATOM     28  F   UNL     1      -3.521   2.924  25.718  0.00  0.00    -0.133 F 
ATOM     29  F   UNL     1      -3.767   4.295  24.832  0.00  0.00    -0.133 F 
ENDBRANCH  25  26
ENDBRANCH  24  25
ENDBRANCH  19  20
ENDBRANCH  18  19
TORSDOF 7
ENDMDL
MODEL 3
REMARK VINA RESULT:     -11.1      1.516      5.160
REMARK  Name = 
REMARK  7 active torsions:
REMARK  status: ('A' for Active; 'I' for Inactive)
REMARK    1  A    between atoms: N_2  and  C_4
REMARK    2  A    between atoms: C_7  and  C_10
REMARK    3  A    between atoms: C_13  and  C_15
REMARK    4  A    between atoms: N_18  and  C_19
REMARK    5  A    between atoms: C_19  and  C_20
REMARK    6  A    between atoms: C_24  and  O_25
REMARK    7  A    between atoms: O_25  and  C_26
REMARK                            x       y       z     vdW  Elec       q    Type
REMARK                         _______ _______ _______ _____ _____    ______ ____
ROOT
ATOM     15  C   UNL     1      -4.163   0.421  24.881  0.00  0.00    +0.096 C 
ATOM     16  C   UNL     1      -4.662   0.005  24.373  0.00  0.00    +0.028 C 
ATOM     17  C   UNL     1      -4.542  -0.801  24.501  0.00  0.00    +0.073 C 
ATOM     18  N   UNL     1      -3.968  -0.883  25.089  0.00  0.00    -0.268 NA
ATOM     31  C   UNL     1      -3.734  -0.127  25.324  0.00  0.00    +0.082 C 
ENDROOT
BRANCH  15  13
ATOM     10  C   UNL     1      -3.600   2.477  25.003  0.00  0.00    +0.250 A 
ATOM     11  N   UNL     1      -4.422   2.534  25.042  0.00  0.00    -0.107 NA
ATOM     12  N   UNL     1      -4.733   1.771  25.001  0.00  0.00    -0.111 NA
ATOM     13  C   UNL     1      -4.103   1.242  24.937  0.00  0.00    +0.227 A 
ATOM     14  O   UNL     1      -3.402   1.678  24.938  0.00  0.00    -0.419 OA
BRANCH  10   7
ATOM      4  C   UNL     1      -2.005   4.369  25.070  0.00  0.00    +0.048 A 
ATOM      5  C   UNL     1      -2.033   3.877  24.409  0.00  0.00    +0.015 A 
ATOM      6  C   UNL     1      -2.566   3.246  24.387  0.00  0.00    +0.006 A 
ATOM      7  C   UNL     1      -3.068   3.108  25.026  0.00  0.00    +0.055 A 
ATOM      8  C   UNL     1      -3.040   3.600  25.687  0.00  0.00    +0.006 A 
ATOM      9  C   UNL     1      -2.507   4.231  25.710  0.00  0.00    +0.015 A 
BRANCH   4   2
ATOM      1  C   UNL     1      -0.663   4.858  25.020  0.00  0.00    +0.112 C 
ATOM      2  N   UNL     1      -1.473   4.999  25.092  0.00  0.00    -0.304 N 
ATOM      3  C   UNL     1      -1.750   5.770  25.187  0.00  0.00    +0.112 C 
ENDBRANCH   4   2
ENDBRANCH  10   7
ENDBRANCH  15  13
BRANCH  18  19
ATOM     19  C   UNL     1      -3.680  -1.595  25.390  0.00  0.00    +0.099 C 
BRANCH  19  20
ATOM     20  C   UNL     1      -3.017  -1.948  25.049  0.00  0.00    -0.003 A 
ATOM     21  C   UNL     1      -3.111  -2.548  24.491  0.00  0.00    -0.003 A 
ATOM     22  C   UNL     1      -2.449  -2.902  24.150  0.00  0.00    +0.003 A 
ATOM     23  C   UNL     1      -1.692  -2.656  24.369  0.00  0.00    +0.037 A 
ATOM     24  C   UNL     1      -1.598  -2.056  24.927  0.00  0.00    +0.147 A 
ATOM     30  C   UNL     1      -2.262  -1.702  25.268  0.00  0.00    +0.034 A 
BRANCH  24  25
ATOM     25  O   UNL     1      -0.841  -1.810  25.146  0.00  0.00    -0.404 OA
BRANCH  25  26
ATOM     26  C   UNL     1      -0.543  -1.094  24.863  0.00  0.00    +0.575 C 
ATOM     27  F   UNL     1      -0.245  -0.379  24.580  0.00  0.00    -0.133 F 
ATOM     28  F   UNL     1      -0.417  -1.438  24.124  0.00  0.00    -0.133 F 
ATOM     29  F   UNL     1      -0.670  -0.749  25.602  0.00  0.00    -0.133 F 
ENDBRANCH  25  26
ENDBRANCH  24  25
ENDBRANCH  19  20
ENDBRANCH  18  19
TORSDOF 7
ENDMDL
MODEL 4
REMARK VINA RESULT:     -10.9      2.386      5.960
REMARK  Name = 
REMARK  7 active torsions:
REMARK  status: ('A' for Active; 'I' for Inactive)
REMARK    1  A    between atoms: N_2  and  C_4
REMARK    2  A    between atoms: C_7  and  C_10
REMARK    3  A    between atoms: C_13  and  C_15
REMARK    4  A    between atoms: N_18  and  C_19
REMARK    5  A    between atoms: C_19  and  C_20
REMARK    6  A    between atoms: C_24  and  O_25
REMARK    7  A    between atoms: O_25  and  C_26
REMARK                            x       y       z     vdW  Elec       q    Type
REMARK                         _______ _______ _______ _____ _____    ______ ____
ROOT
ATOM     15  C   UNL     1      -0.564  -0.254  24.521  0.00  0.00    +0.096 C 
ATOM     16  C   UNL     1      -0.166  -0.850  24.111  0.00  0.00    +0.028 C 
ATOM     17  C   UNL     1      -0.513  -1.572  24.310  0.00  0.00    +0.073 C 
ATOM     18  N   UNL     1      -1.125  -1.422  24.843  0.00  0.00    -0.268 NA
ATOM     31  C   UNL     1      -1.157  -0.608  24.973  0.00  0.00    +0.082 C 
ENDROOT
BRANCH  15  13
ATOM     10  C   UNL     1      -0.512   1.879  24.594  0.00  0.00    +0.250 A 
ATOM     11  N   UNL     1       0.226   1.712  24.264  0.00  0.00    -0.107 NA
ATOM     12  N   UNL     1       0.296   0.893  24.196  0.00  0.00    -0.111 NA
ATOM     13  C   UNL     1      -0.398   0.553  24.485  0.00  0.00    +0.227 A 
ATOM     14  O   UNL     1      -0.898   1.162  24.731  0.00  0.00    -0.419 OA
BRANCH  10   7
ATOM      4  C   UNL     1      -1.410   4.131  25.089  0.00  0.00    +0.048 A 
ATOM      5  C   UNL     1      -1.817   3.628  24.578  0.00  0.00    +0.015 A 
ATOM      6  C   UNL     1      -1.517   2.877  24.413  0.00  0.00    +0.006 A 
ATOM      7  C   UNL     1      -0.811   2.630  24.759  0.00  0.00    +0.055 A 
ATOM      8  C   UNL     1      -0.403   3.133  25.270  0.00  0.00    +0.006 A 
ATOM      9  C   UNL     1      -0.703   3.884  25.435  0.00  0.00    +0.015 A 
BRANCH   4   2
ATOM      1  C   UNL     1      -2.416   4.962  25.673  0.00  0.00    +0.112 C 
ATOM      2  N   UNL     1      -1.709   4.882  25.254  0.00  0.00    -0.304 N 
ATOM      3  C   UNL     1      -1.303   5.554  25.000  0.00  0.00    +0.112 C 
ENDBRANCH   4   2
ENDBRANCH  10   7
ENDBRANCH  15  13
BRANCH  18  19
ATOM     19  C   UNL     1      -1.619  -1.988  25.185  0.00  0.00    +0.099 C 
BRANCH  19  20
ATOM     20  C   UNL     1      -2.379  -2.106  24.887  0.00  0.00    -0.003 A 
ATOM     21  C   UNL     1      -2.531  -2.741  24.383  0.00  0.00    -0.003 A 
ATOM     22  C   UNL     1      -3.290  -2.860  24.086  0.00  0.00    +0.003 A 
ATOM     23  C   UNL     1      -3.899  -2.343  24.293  0.00  0.00    +0.037 A 
ATOM     24  C   UNL     1      -3.748  -1.708  24.797  0.00  0.00    +0.147 A 
ATOM     30  C   UNL     1      -2.988  -1.590  25.094  0.00  0.00    +0.034 A 
BRANCH  24  25
ATOM     25  O   UNL     1      -4.358  -1.191  25.003  0.00  0.00    -0.404 OA
BRANCH  25  26
ATOM     26  C   UNL     1      -4.395  -0.441  24.663  0.00  0.00    +0.575 C 
ATOM     27  F   UNL     1      -4.432   0.310  24.322  0.00  0.00    -0.133 F 
ATOM     28  F   UNL     1      -4.160  -0.104  25.378  0.00  0.00    -0.133 F 
ATOM     29  F   UNL     1      -4.630  -0.777  23.947  0.00  0.00    -0.133 F 
ENDBRANCH  25  26
ENDBRANCH  24  25
ENDBRANCH  19  20
ENDBRANCH  18  19
TORSDOF 7
ENDMDL
