MODEL 1
REMARK VINA RESULT:     -11.9      0.000      0.000
REMARK  Name = 
REMARK  8 active torsions:
REMARK  status: ('A' for Active; 'I' for Inactive)
REMARK    1  A    between atoms: N_4  and  C_26
REMARK    2  A    between atoms: C_7  and  C_8
REMARK    3  A    between atoms: C_10  and  N_11
REMARK    4  A    between atoms: C_12  and  C_14
REMARK    5  A    between atoms: C_14  and  C_15
REMARK    6  A    between atoms: C_15  and  C_16
REMARK    7  A    between atoms: C_16  and  C_17
REMARK    8  A    between atoms: C_29  and  C_32
REMARK                            x       y       z     vdW  Elec       q    Type
REMARK                         _______ _______ _______ _____ _____    ______ ____
ROOT
ATOM      8  C   UNL     1      -4.424   1.629  25.098  0.00  0.00    +0.048 C 
ATOM      9  C   UNL     1      -4.044   0.962  25.396  0.00  0.00    +0.035 C 
ATOM     10  C   UNL     1      -4.477   0.298  25.170  0.00  0.00    +0.118 C 
ATOM     24  C   UNL     1      -5.126   0.555  24.731  0.00  0.00    -0.009 C 
ATOM     25  C   UNL     1      -5.094   1.377  24.686  0.00  0.00    -0.025 C 
ENDROOT
BRANCH   8   7
ATOM      1  C   UNL     1      -5.442   2.991  25.678  0.00  0.00    +0.054 C 
ATOM      2  C   UNL     1      -4.646   3.037  25.459  0.00  0.00    +0.077 A 
ATOM      3  N   UNL     1      -4.181   3.717  25.469  0.00  0.00    -0.170 NA
ATOM      4  N   UNL     1      -3.425   3.512  25.209  0.00  0.00    -0.234 N 
ATOM      5  C   UNL     1      -3.425   2.705  25.038  0.00  0.00    +0.058 A 
ATOM      6  C   UNL     1      -2.781   2.268  24.761  0.00  0.00    +0.052 C 
ATOM      7  C   UNL     1      -4.180   2.411  25.193  0.00  0.00    +0.010 A 
BRANCH   4  26
ATOM     26  C   UNL     1      -2.782   4.024  25.132  0.00  0.00    +0.082 A 
ATOM     27  C   UNL     1      -2.264   4.132  25.765  0.00  0.00    +0.019 A 
ATOM     28  C   UNL     1      -1.621   4.644  25.688  0.00  0.00    +0.005 A 
ATOM     29  C   UNL     1      -1.497   5.047  24.980  0.00  0.00    +0.072 A 
ATOM     30  C   UNL     1      -2.016   4.940  24.347  0.00  0.00    +0.005 A 
ATOM     31  C   UNL     1      -2.659   4.428  24.424  0.00  0.00    +0.019 A 
BRANCH  29  32
ATOM     32  C   UNL     1      -0.854   5.560  24.904  0.00  0.00    +0.419 C 
ATOM     33  F   UNL     1      -0.213   6.072  24.827  0.00  0.00    -0.166 F 
ATOM     34  F   UNL     1      -0.403   4.946  24.586  0.00  0.00    -0.166 F 
ATOM     35  F   UNL     1      -1.306   6.173  25.221  0.00  0.00    -0.166 F 
ENDBRANCH  29  32
ENDBRANCH   4  26
ENDBRANCH   8   7
BRANCH  10  11
ATOM     11  N   UNL     1      -4.294  -0.486  25.350  0.00  0.00    -0.203 NA
ATOM     12  C   UNL     1      -3.802  -0.921  24.851  0.00  0.00    +0.242 C 
ATOM     13  O   UNL     1      -3.492  -0.573  24.171  0.00  0.00    -0.273 OA
BRANCH  12  14
ATOM     14  C   UNL     1      -3.620  -1.706  25.032  0.00  0.00    +0.087 C 
BRANCH  14  15
ATOM     15  C   UNL     1      -2.971  -2.071  24.677  0.00  0.00    +0.019 C 
ATOM     20  C   UNL     1      -2.541  -1.687  25.269  0.00  0.00    +0.001 C 
ATOM     21  C   UNL     1      -1.746  -1.880  25.171  0.00  0.00    +0.000 C 
ATOM     22  C   UNL     1      -1.683  -2.382  24.519  0.00  0.00    +0.000 C 
ATOM     23  C   UNL     1      -2.440  -2.500  24.215  0.00  0.00    +0.001 C 
BRANCH  15  16
ATOM     16  C   UNL     1      -3.536  -2.378  24.160  0.00  0.00    +0.115 C 
BRANCH  16  17
ATOM     17  C   UNL     1      -3.796  -3.156  24.247  0.00  0.00    +0.365 C 
ATOM     18  O   UNL     1      -3.709  -3.542  24.971  0.00  0.00    -0.246 OA
ATOM     19  O   UNL     1      -4.142  -3.548  23.609  0.00  0.00    -0.246 OA
ENDBRANCH  16  17
ENDBRANCH  15  16
ENDBRANCH  14  15
ENDBRANCH  12  14
ENDBRANCH  10  11
TORSDOF 8
ENDMDL
MODEL 2
REMARK VINA RESULT:     -11.6      3.305      6.193
REMARK  Name = 
REMARK  8 active torsions:
REMARK  status: ('A' for Active; 'I' for Inactive)
REMARK    1  A    between atoms: N_4  and  C_26
REMARK    2  A    between atoms: C_7  and  C_8
REMARK    3  A    between atoms: C_10  and  N_11
REMARK    4  A    between atoms: C_12  and  C_14
REMARK    5  A    between atoms: C_14  and  C_15
REMARK    6  A    between atoms: C_15  and  C_16
REMARK    7  A    between atoms: C_16  and  C_17
REMARK    8  A    between atoms: C_29  and  C_32
REMARK                            x       y       z     vdW  Elec       q    Type
REMARK                         _______ _______ _______ _____ _____    ______ ____
ROOT
ATOM      8  C   UNL     1      -4.357   1.969  24.792  0.00  0.00    +0.048 C 
ATOM      9  C   UNL     1      -3.748   2.329  25.215  0.00  0.00    +0.035 C 
ATOM     10  C   UNL     1      -3.736   3.129  25.016  0.00  0.00    +0.118 C 
ATOM     24  C   UNL     1      -4.339   3.264  24.468  0.00  0.00    -0.009 C 
ATOM     25  C   UNL     1      -4.722   2.547  24.330  0.00  0.00    -0.025 C 
ENDROOT
BRANCH   8   7
ATOM      1  C   UNL     1      -5.947   1.312  25.307  0.00  0.00    +0.054 C 
ATOM      2  C   UNL     1      -5.295   0.869  25.060  0.00  0.00    +0.077 A 
ATOM      3  N   UNL     1      -5.261   0.047  25.007  0.00  0.00    -0.170 NA
ATOM      4  N   UNL     1      -4.509  -0.159  24.737  0.00  0.00    -0.234 N 
ATOM      5  C   UNL     1      -4.079   0.536  24.624  0.00  0.00    +0.058 A 
ATOM      6  C   UNL     1      -3.299   0.586  24.357  0.00  0.00    +0.052 C 
ATOM      7  C   UNL     1      -4.565   1.172  24.824  0.00  0.00    +0.010 A 
BRANCH   4  26
ATOM     26  C   UNL     1      -4.234  -0.927  24.604  0.00  0.00    +0.082 A 
ATOM     27  C   UNL     1      -4.396  -1.303  23.888  0.00  0.00    +0.019 A 
ATOM     28  C   UNL     1      -4.122  -2.070  23.755  0.00  0.00    +0.005 A 
ATOM     29  C   UNL     1      -3.687  -2.459  24.337  0.00  0.00    +0.072 A 
ATOM     30  C   UNL     1      -3.525  -2.082  25.053  0.00  0.00    +0.005 A 
ATOM     31  C   UNL     1      -3.799  -1.315  25.186  0.00  0.00    +0.019 A 
BRANCH  29  32
ATOM     32  C   UNL     1      -3.412  -3.226  24.203  0.00  0.00    +0.419 C 
ATOM     33  F   UNL     1      -3.139  -3.993  24.070  0.00  0.00    -0.166 F 
ATOM     34  F   UNL     1      -2.638  -2.943  24.169  0.00  0.00    -0.166 F 
ATOM     35  F   UNL     1      -4.186  -3.508  24.237  0.00  0.00    -0.166 F 
ENDBRANCH  29  32
ENDBRANCH   4  26
ENDBRANCH   8   7
BRANCH  10  11
ATOM     11  N   UNL     1      -3.215   3.696  25.311  0.00  0.00    -0.203 NA
ATOM     12  C   UNL     1      -2.455   3.763  24.995  0.00  0.00    +0.242 C 
ATOM     13  O   UNL     1      -2.217   3.263  24.384  0.00  0.00    -0.273 OA
BRANCH  12  14
ATOM     14  C   UNL     1      -1.934   4.330  25.291  0.00  0.00    +0.087 C 
BRANCH  14  15
ATOM     15  C   UNL     1      -1.121   4.241  25.181  0.00  0.00    +0.019 C 
ATOM     20  C   UNL     1      -1.192   3.669  25.772  0.00  0.00    +0.001 C 
ATOM     21  C   UNL     1      -0.444   3.351  25.908  0.00  0.00    +0.000 C 
ATOM     22  C   UNL     1       0.089   3.725  25.401  0.00  0.00    +0.000 C 
ATOM     23  C   UNL     1      -0.330   4.275  24.952  0.00  0.00    +0.001 C 
BRANCH  15  16
ATOM     16  C   UNL     1      -1.221   4.831  24.613  0.00  0.00    +0.115 C 
BRANCH  16  17
ATOM     17  C   UNL     1      -0.998   5.608  24.781  0.00  0.00    +0.365 C 
ATOM     18  O   UNL     1      -0.249   5.878  24.566  0.00  0.00    -0.246 OA
ATOM     19  O   UNL     1      -1.525   6.114  25.163  0.00  0.00    -0.246 OA
ENDBRANCH  16  17
ENDBRANCH  15  16
ENDBRANCH  14  15
ENDBRANCH  12  14
ENDBRANCH  10  11
TORSDOF 8
ENDMDL
MODEL 3
REMARK VINA RESULT:     -10.2      3.487      5.424
REMARK  Name = 
REMARK  8 active torsions:
REMARK  status: ('A' for Active; 'I' for Inactive)
REMARK    1  A    between atoms: N_4  and  C_26
REMARK    2  A    between atoms: C_7  and  C_8
REMARK    3  A    between atoms: C_10  and  N_11
REMARK    4  A    between atoms: C_12  and  C_14
REMARK    5  A    between atoms: C_14  and  C_15
REMARK    6  A    between atoms: C_15  and  C_16
REMARK    7  A    between atoms: C_16  and  C_17
REMARK    8  A    between atoms: C_29  and  C_32
REMARK                            x       y       z     vdW  Elec       q    Type
REMARK                         _______ _______ _______ _____ _____    ______ ____
ROOT
ATOM      8  C   UNL     1      -1.540  -0.024  24.626  0.00  0.00    +0.048 C 
ATOM      9  C   UNL     1      -2.186   0.287  24.220  0.00  0.00    +0.035 C 
ATOM     10  C   UNL     1      -2.762   0.490  24.773  0.00  0.00    +0.118 C 
ATOM     24  C   UNL     1      -2.471   0.305  25.523  0.00  0.00    -0.009 C 
ATOM     25  C   UNL     1      -1.716  -0.012  25.432  0.00  0.00    -0.025 C 
ENDROOT
BRANCH   8   7
ATOM      1  C   UNL     1      -1.041  -1.743  24.476  0.00  0.00    +0.054 C 
ATOM      2  C   UNL     1      -0.609  -1.087  24.218  0.00  0.00    +0.077 A 
ATOM      3  N   UNL     1       0.127  -1.108  23.847  0.00  0.00    -0.170 NA
ATOM      4  N   UNL     1       0.353  -0.330  23.687  0.00  0.00    -0.234 N 
ATOM      5  C   UNL     1      -0.244   0.170  23.959  0.00  0.00    +0.058 A 
ATOM      6  C   UNL     1      -0.246   0.994  23.911  0.00  0.00    +0.052 C 
ATOM      7  C   UNL     1      -0.839  -0.298  24.288  0.00  0.00    +0.010 A 
BRANCH   4  26
ATOM     26  C   UNL     1       1.053  -0.094  23.319  0.00  0.00    +0.082 A 
ATOM     27  C   UNL     1       1.566   0.424  23.704  0.00  0.00    +0.019 A 
ATOM     28  C   UNL     1       2.266   0.660  23.336  0.00  0.00    +0.005 A 
ATOM     29  C   UNL     1       2.452   0.378  22.584  0.00  0.00    +0.072 A 
ATOM     30  C   UNL     1       1.938  -0.141  22.198  0.00  0.00    +0.005 A 
ATOM     31  C   UNL     1       1.238  -0.377  22.567  0.00  0.00    +0.019 A 
BRANCH  29  32
ATOM     32  C   UNL     1       3.152   0.614  22.216  0.00  0.00    +0.419 C 
ATOM     33  F   UNL     1       3.852   0.850  21.848  0.00  0.00    -0.166 F 
ATOM     34  F   UNL     1       2.910   0.244  21.518  0.00  0.00    -0.166 F 
ATOM     35  F   UNL     1       3.394   0.983  22.913  0.00  0.00    -0.166 F 
ENDBRANCH  29  32
ENDBRANCH   4  26
ENDBRANCH   8   7
BRANCH  10  11
ATOM     11  N   UNL     1      -3.500   0.821  24.608  0.00  0.00    -0.203 NA
ATOM     12  C   UNL     1      -3.659   1.602  24.819  0.00  0.00    +0.242 C 
ATOM     13  O   UNL     1      -3.081   2.054  25.196  0.00  0.00    -0.273 OA
BRANCH  12  14
ATOM     14  C   UNL     1      -4.397   1.932  24.653  0.00  0.00    +0.087 C 
BRANCH  14  15
ATOM     15  C   UNL     1      -4.581   2.689  24.924  0.00  0.00    +0.019 C 
ATOM     20  C   UNL     1      -4.181   2.935  24.245  0.00  0.00    +0.001 C 
ATOM     21  C   UNL     1      -4.193   3.759  24.226  0.00  0.00    +0.000 C 
ATOM     22  C   UNL     1      -4.600   4.023  24.893  0.00  0.00    +0.000 C 
ATOM     23  C   UNL     1      -4.840   3.362  25.324  0.00  0.00    +0.001 C 
BRANCH  15  16
ATOM     16  C   UNL     1      -4.942   2.286  25.546  0.00  0.00    +0.115 C 
BRANCH  16  17
ATOM     17  C   UNL     1      -5.761   2.319  25.640  0.00  0.00    +0.365 C 
ATOM     18  O   UNL     1      -6.084   2.652  26.322  0.00  0.00    -0.246 OA
ATOM     19  O   UNL     1      -6.256   2.020  25.052  0.00  0.00    -0.246 OA
ENDBRANCH  16  17
ENDBRANCH  15  16
ENDBRANCH  14  15
ENDBRANCH  12  14
ENDBRANCH  10  11
TORSDOF 8
ENDMDL
MODEL 4
REMARK VINA RESULT:     -10.0      3.813      6.708
REMARK  Name = 
REMARK  8 active torsions:
REMARK  status: ('A' for Active; 'I' for Inactive)
REMARK    1  A    between atoms: N_4  and  C_26
REMARK    2  A    between atoms: C_7  and  C_8
REMARK    3  A    between atoms: C_10  and  N_11
REMARK    4  A    between atoms: C_12  and  C_14
REMARK    5  A    between atoms: C_14  and  C_15
REMARK    6  A    between atoms: C_15  and  C_16
REMARK    7  A    between atoms: C_16  and  C_17
REMARK    8  A    between atoms: C_29  and  C_32
REMARK                            x       y       z     vdW  Elec       q    Type
REMARK                         _______ _______ _______ _____ _____    ______ ____
ROOT
ATOM      8  C   UNL     1      -0.367   0.879  24.725  0.00  0.00    +0.048 C 
ATOM      9  C   UNL     1      -0.828   1.411  25.153  0.00  0.00    +0.035 C 
ATOM     10  C   UNL     1      -0.375   2.084  25.297  0.00  0.00    +0.118 C 
ATOM     24  C   UNL     1       0.369   1.968  24.958  0.00  0.00    -0.009 C 
ATOM     25  C   UNL     1       0.374   1.224  24.604  0.00  0.00    -0.025 C 
ENDROOT
BRANCH   8   7
ATOM      1  C   UNL     1       0.508  -0.149  23.540  0.00  0.00    +0.054 C 
ATOM      2  C   UNL     1      -0.201  -0.340  23.919  0.00  0.00    +0.077 A 
ATOM      3  N   UNL     1      -0.631  -1.036  23.818  0.00  0.00    -0.170 NA
ATOM      4  N   UNL     1      -1.300  -0.993  24.301  0.00  0.00    -0.234 N 
ATOM      5  C   UNL     1      -1.282  -0.271  24.699  0.00  0.00    +0.058 A 
ATOM      6  C   UNL     1      -1.844  -0.000  25.239  0.00  0.00    +0.052 C 
ATOM      7  C   UNL     1      -0.602   0.133  24.462  0.00  0.00    +0.010 A 
BRANCH   4  26
ATOM     26  C   UNL     1      -1.884  -1.572  24.373  0.00  0.00    +0.082 A 
ATOM     27  C   UNL     1      -1.684  -2.329  24.633  0.00  0.00    +0.019 A 
ATOM     28  C   UNL     1      -2.268  -2.908  24.705  0.00  0.00    +0.005 A 
ATOM     29  C   UNL     1      -3.050  -2.729  24.517  0.00  0.00    +0.072 A 
ATOM     30  C   UNL     1      -3.251  -1.972  24.257  0.00  0.00    +0.005 A 
ATOM     31  C   UNL     1      -2.667  -1.393  24.185  0.00  0.00    +0.019 A 
BRANCH  29  32
ATOM     32  C   UNL     1      -3.635  -3.308  24.589  0.00  0.00    +0.419 C 
ATOM     33  F   UNL     1      -4.218  -3.886  24.660  0.00  0.00    -0.166 F 
ATOM     34  F   UNL     1      -3.555  -3.286  25.410  0.00  0.00    -0.166 F 
ATOM     35  F   UNL     1      -3.713  -3.330  23.768  0.00  0.00    -0.166 F 
ENDBRANCH  29  32
ENDBRANCH   4  26
ENDBRANCH   8   7
BRANCH  10  11
ATOM     11  N   UNL     1      -0.619   2.756  25.708  0.00  0.00    -0.203 NA
ATOM     12  C   UNL     1      -1.075   3.330  25.329  0.00  0.00    +0.242 C 
ATOM     13  O   UNL     1      -1.287   3.232  24.538  0.00  0.00    -0.273 OA
BRANCH  12  14
ATOM     14  C   UNL     1      -1.319   4.002  25.741  0.00  0.00    +0.087 C 
BRANCH  14  15
ATOM     15  C   UNL     1      -1.817   4.551  25.378  0.00  0.00    +0.019 C 
ATOM     20  C   UNL     1      -1.116   4.967  25.245  0.00  0.00    +0.001 C 
ATOM     21  C   UNL     1      -1.306   5.661  24.843  0.00  0.00    +0.000 C 
ATOM     22  C   UNL     1      -2.123   5.675  24.728  0.00  0.00    +0.000 C 
ATOM     23  C   UNL     1      -2.438   4.988  25.058  0.00  0.00    +0.001 C 
BRANCH  15  16
ATOM     16  C   UNL     1      -2.412   4.020  25.587  0.00  0.00    +0.115 C 
BRANCH  16  17
ATOM     17  C   UNL     1      -3.020   4.259  26.091  0.00  0.00    +0.365 C 
ATOM     18  O   UNL     1      -3.804   4.224  25.838  0.00  0.00    -0.246 OA
ATOM     19  O   UNL     1      -2.843   4.532  26.850  0.00  0.00    -0.246 OA
ENDBRANCH  16  17
ENDBRANCH  15  16
ENDBRANCH  14  15
ENDBRANCH  12  14
ENDBRANCH  10  11
TORSDOF 8
ENDMDL
MODEL 5
REMARK VINA RESULT:      -9.7      2.094      3.107
REMARK  Name = 
REMARK  8 active torsions:
REMARK  status: ('A' for Active; 'I' for Inactive)
REMARK    1  A    between atoms: N_4  and  C_26
REMARK    2  A    between atoms: C_7  and  C_8
REMARK    3  A    between atoms: C_10  and  N_11
REMARK    4  A    between atoms: C_12  and  C_14
REMARK    5  A    between atoms: C_14  and  C_15
REMARK    6  A    between atoms: C_15  and  C_16
REMARK    7  A    between atoms: C_16  and  C_17
REMARK    8  A    between atoms: C_29  and  C_32
REMARK                            x       y       z     vdW  Elec       q    Type
REMARK                         _______ _______ _______ _____ _____    ______ ____
ROOT
ATOM      8  C   UNL     1      -0.110   0.473  24.076  0.00  0.00    +0.048 C 
ATOM      9  C   UNL     1      -0.623   0.028  24.543  0.00  0.00    +0.035 C 
ATOM     10  C   UNL     1      -0.628  -0.743  24.253  0.00  0.00    +0.118 C 
ATOM     24  C   UNL     1      -0.118  -0.776  23.605  0.00  0.00    -0.009 C 
ATOM     25  C   UNL     1       0.202  -0.025  23.495  0.00  0.00    -0.025 C 
ENDROOT
BRANCH   8   7
ATOM      1  C   UNL     1       1.503   1.238  23.881  0.00  0.00    +0.054 C 
ATOM      2  C   UNL     1       0.802   1.627  24.080  0.00  0.00    +0.077 A 
ATOM      3  N   UNL     1       0.721   2.434  24.225  0.00  0.00    -0.170 NA
ATOM      4  N   UNL     1      -0.071   2.582  24.405  0.00  0.00    -0.234 N 
ATOM      5  C   UNL     1      -0.478   1.865  24.370  0.00  0.00    +0.058 A 
ATOM      6  C   UNL     1      -1.284   1.758  24.512  0.00  0.00    +0.052 C 
ATOM      7  C   UNL     1       0.062   1.274  24.170  0.00  0.00    +0.010 A 
BRANCH   4  26
ATOM     26  C   UNL     1      -0.398   3.318  24.586  0.00  0.00    +0.082 A 
ATOM     27  C   UNL     1      -0.497   3.882  23.993  0.00  0.00    +0.019 A 
ATOM     28  C   UNL     1      -0.824   4.618  24.175  0.00  0.00    +0.005 A 
ATOM     29  C   UNL     1      -1.052   4.788  24.948  0.00  0.00    +0.072 A 
ATOM     30  C   UNL     1      -0.954   4.223  25.542  0.00  0.00    +0.005 A 
ATOM     31  C   UNL     1      -0.626   3.487  25.360  0.00  0.00    +0.019 A 
BRANCH  29  32
ATOM     32  C   UNL     1      -1.380   5.524  25.130  0.00  0.00    +0.419 C 
ATOM     33  F   UNL     1      -1.707   6.258  25.312  0.00  0.00    -0.166 F 
ATOM     34  F   UNL     1      -0.670   5.891  24.922  0.00  0.00    -0.166 F 
ATOM     35  F   UNL     1      -2.088   5.156  25.338  0.00  0.00    -0.166 F 
ENDBRANCH  29  32
ENDBRANCH   4  26
ENDBRANCH   8   7
BRANCH  10  11
ATOM     11  N   UNL     1      -1.066  -1.373  24.557  0.00  0.00    -0.203 NA
ATOM     12  C   UNL     1      -1.875  -1.427  24.402  0.00  0.00    +0.242 C 
ATOM     13  O   UNL     1      -2.247  -0.851  23.943  0.00  0.00    -0.273 OA
BRANCH  12  14
ATOM     14  C   UNL     1      -2.312  -2.058  24.705  0.00  0.00    +0.087 C 
BRANCH  14  15
ATOM     15  C   UNL     1      -3.077  -1.932  24.987  0.00  0.00    +0.019 C 
ATOM     20  C   UNL     1      -2.691  -1.708  25.682  0.00  0.00    +0.001 C 
ATOM     21  C   UNL     1      -3.264  -1.496  26.235  0.00  0.00    +0.000 C 
ATOM     22  C   UNL     1      -4.005  -1.588  25.882  0.00  0.00    +0.000 C 
ATOM     23  C   UNL     1      -3.889  -1.858  25.112  0.00  0.00    +0.001 C 
BRANCH  15  16
ATOM     16  C   UNL     1      -3.303  -2.182  24.234  0.00  0.00    +0.115 C 
BRANCH  16  17
ATOM     17  C   UNL     1      -3.762  -2.861  24.145  0.00  0.00    +0.365 C 
ATOM     18  O   UNL     1      -3.494  -3.583  24.441  0.00  0.00    -0.246 OA
ATOM     19  O   UNL     1      -4.491  -2.818  23.760  0.00  0.00    -0.246 OA
ENDBRANCH  16  17
ENDBRANCH  15  16
ENDBRANCH  14  15
ENDBRANCH  12  14
ENDBRANCH  10  11
TORSDOF 8
ENDMDL
MODEL 6
REMARK VINA RESULT:      -9.3      3.492      5.357
REMARK  Name = 
REMARK  8 active torsions:
REMARK  status: ('A' for Active; 'I' for Inactive)
REMARK    1  A    between atoms: N_4  and  C_26
REMARK    2  A    between atoms: C_7  and  C_8
REMARK    3  A    between atoms: C_10  and  N_11
REMARK    4  A    between atoms: C_12  and  C_14
REMARK    5  A    between atoms: C_14  and  C_15
REMARK    6  A    between atoms: C_15  and  C_16
REMARK    7  A    between atoms: C_16  and  C_17
REMARK    8  A    between atoms: C_29  and  C_32
REMARK                            x       y       z     vdW  Elec       q    Type
REMARK                         _______ _______ _______ _____ _____    ______ ____
ROOT
ATOM      8  C   UNL     1      -1.180   3.117  25.058  0.00  0.00    +0.048 C 
ATOM      9  C   UNL     1      -1.968   2.972  24.865  0.00  0.00    +0.035 C 
ATOM     10  C   UNL     1      -2.399   3.657  25.022  0.00  0.00    +0.118 C 
ATOM     24  C   UNL     1      -1.877   4.226  25.313  0.00  0.00    -0.009 C 
ATOM     25  C   UNL     1      -1.123   3.893  25.335  0.00  0.00    -0.025 C 
ENDROOT
BRANCH   8   7
ATOM      1  C   UNL     1      -0.111   2.556  26.388  0.00  0.00    +0.054 C 
ATOM      2  C   UNL     1      -0.064   2.324  25.597  0.00  0.00    +0.077 A 
ATOM      3  N   UNL     1       0.481   1.794  25.280  0.00  0.00    -0.170 NA
ATOM      4  N   UNL     1       0.328   1.724  24.472  0.00  0.00    -0.234 N 
ATOM      5  C   UNL     1      -0.313   2.211  24.291  0.00  0.00    +0.058 A 
ATOM      6  C   UNL     1      -0.652   2.309  23.544  0.00  0.00    +0.052 C 
ATOM      7  C   UNL     1      -0.555   2.582  24.987  0.00  0.00    +0.010 A 
BRANCH   4  26
ATOM     26  C   UNL     1       0.742   1.249  23.938  0.00  0.00    +0.082 A 
ATOM     27  C   UNL     1       1.490   1.480  23.678  0.00  0.00    +0.019 A 
ATOM     28  C   UNL     1       1.905   1.005  23.144  0.00  0.00    +0.005 A 
ATOM     29  C   UNL     1       1.572   0.302  22.872  0.00  0.00    +0.072 A 
ATOM     30  C   UNL     1       0.823   0.071  23.133  0.00  0.00    +0.005 A 
ATOM     31  C   UNL     1       0.408   0.546  23.667  0.00  0.00    +0.019 A 
BRANCH  29  32
ATOM     32  C   UNL     1       1.986  -0.172  22.339  0.00  0.00    +0.419 C 
ATOM     33  F   UNL     1       2.401  -0.646  21.806  0.00  0.00    -0.166 F 
ATOM     34  F   UNL     1       1.322  -0.204  21.850  0.00  0.00    -0.166 F 
ATOM     35  F   UNL     1       2.650  -0.141  22.828  0.00  0.00    -0.166 F 
ENDBRANCH  29  32
ENDBRANCH   4  26
ENDBRANCH   8   7
BRANCH  10  11
ATOM     11  N   UNL     1      -3.210   3.756  24.910  0.00  0.00    -0.203 NA
ATOM     12  C   UNL     1      -3.739   3.186  25.185  0.00  0.00    +0.242 C 
ATOM     13  O   UNL     1      -3.457   2.515  25.572  0.00  0.00    -0.273 OA
BRANCH  12  14
ATOM     14  C   UNL     1      -4.550   3.287  25.071  0.00  0.00    +0.087 C 
BRANCH  14  15
ATOM     15  C   UNL     1      -5.065   2.654  25.192  0.00  0.00    +0.019 C 
ATOM     20  C   UNL     1      -4.843   2.440  24.426  0.00  0.00    +0.001 C 
ATOM     21  C   UNL     1      -5.244   1.748  24.228  0.00  0.00    +0.000 C 
ATOM     22  C   UNL     1      -5.715   1.533  24.871  0.00  0.00    +0.000 C 
ATOM     23  C   UNL     1      -5.604   2.093  25.466  0.00  0.00    +0.001 C 
BRANCH  15  16
ATOM     16  C   UNL     1      -5.180   3.000  25.932  0.00  0.00    +0.115 C 
BRANCH  16  17
ATOM     17  C   UNL     1      -5.922   3.295  26.139  0.00  0.00    +0.365 C 
ATOM     18  O   UNL     1      -6.397   2.882  26.672  0.00  0.00    -0.246 OA
ATOM     19  O   UNL     1      -6.189   4.005  25.812  0.00  0.00    -0.246 OA
ENDBRANCH  16  17
ENDBRANCH  15  16
ENDBRANCH  14  15
ENDBRANCH  12  14
ENDBRANCH  10  11
TORSDOF 8
ENDMDL
