MODEL 1
REMARK VINA RESULT:      -6.7      0.000      0.000
REMARK  Name = 
REMARK  5 active torsions:
REMARK  status: ('A' for Active; 'I' for Inactive)
REMARK    1  A    between atoms: N_4  and  C_5
REMARK    2  A    between atoms: C_5  and  C_6
REMARK    3  A    between atoms: C_9  and  N_10
REMARK    4  A    between atoms: N_10  and  C_11
REMARK    5  A    between atoms: C_11  and  C_12
REMARK                            x       y       z     vdW  Elec       q    Type
REMARK                         _______ _______ _______ _____ _____    ______ ____
ROOT
ATOM      6  C   UNL     1      -2.889   0.235  24.565  0.00  0.00    +0.169 C 
ATOM      7  O   UNL     1      -2.205   0.147  25.019  0.00  0.00    -0.350 OA
ATOM      8  C   UNL     1      -1.882   0.896  25.142  0.00  0.00    +0.162 C 
ATOM      9  C   UNL     1      -2.366   1.447  24.764  0.00  0.00    +0.135 C 
ATOM     17  C   UNL     1      -2.988   1.038  24.407  0.00  0.00    +0.199 C 
ATOM     18  O   UNL     1      -3.602   1.375  23.969  0.00  0.00    -0.219 OA
ENDROOT
BRANCH   6   5
ATOM      5  C   UNL     1      -3.385  -0.374  24.313  0.00  0.00    +0.147 C 
BRANCH   5   4
ATOM      1  C   UNL     1      -3.571  -2.540  24.510  0.00  0.00    +0.096 C 
ATOM      2  C   UNL     1      -3.723  -1.762  24.281  0.00  0.00    +0.242 C 
ATOM      3  O   UNL     1      -4.366  -1.594  23.791  0.00  0.00    -0.273 OA
ATOM      4  N   UNL     1      -3.233  -1.152  24.542  0.00  0.00    -0.203 NA
ENDBRANCH   5   4
ENDBRANCH   6   5
BRANCH   9  10
ATOM     10  N   UNL     1      -2.249   2.263  24.745  0.00  0.00    -0.208 NA
BRANCH  10  11
ATOM     11  C   UNL     1      -1.695   2.613  25.247  0.00  0.00    +0.136 C 
BRANCH  11  12
ATOM     12  C   UNL     1      -1.560   3.425  25.212  0.00  0.00    +0.097 A 
ATOM     13  C   UNL     1      -0.887   3.792  24.906  0.00  0.00    +0.117 A 
ATOM     14  N   UNL     1      -0.984   4.608  24.981  0.00  0.00    -0.221 NA
ATOM     15  C   UNL     1      -1.718   4.745  25.333  0.00  0.00    +0.199 A 
ATOM     16  N   UNL     1      -2.073   4.014  25.475  0.00  0.00    -0.225 NA
ENDBRANCH  11  12
ENDBRANCH  10  11
ENDBRANCH   9  10
TORSDOF 5
ENDMDL
MODEL 2
REMARK VINA RESULT:      -6.7      1.217      4.881
REMARK  Name = 
REMARK  5 active torsions:
REMARK  status: ('A' for Active; 'I' for Inactive)
REMARK    1  A    between atoms: N_4  and  C_5
REMARK    2  A    between atoms: C_5  and  C_6
REMARK    3  A    between atoms: C_9  and  N_10
REMARK    4  A    between atoms: N_10  and  C_11
REMARK    5  A    between atoms: C_11  and  C_12
REMARK                            x       y       z     vdW  Elec       q    Type
REMARK                         _______ _______ _______ _____ _____    ______ ____
ROOT
ATOM      6  C   UNL     1      -2.358   2.028  24.682  0.00  0.00    +0.169 C 
ATOM      7  O   UNL     1      -3.152   2.082  24.900  0.00  0.00    -0.350 OA
ATOM      8  C   UNL     1      -3.491   1.335  24.814  0.00  0.00    +0.162 C 
ATOM      9  C   UNL     1      -2.906   0.819  24.544  0.00  0.00    +0.135 C 
ATOM     17  C   UNL     1      -2.206   1.248  24.462  0.00  0.00    +0.199 C 
ATOM     18  O   UNL     1      -1.481   0.949  24.206  0.00  0.00    -0.219 OA
ENDROOT
BRANCH   6   5
ATOM      5  C   UNL     1      -1.811   2.647  24.684  0.00  0.00    +0.147 C 
BRANCH   5   4
ATOM      1  C   UNL     1      -1.686   4.735  25.308  0.00  0.00    +0.096 C 
ATOM      2  C   UNL     1      -1.472   3.996  25.011  0.00  0.00    +0.242 C 
ATOM      3  O   UNL     1      -0.702   3.867  24.743  0.00  0.00    -0.273 OA
ATOM      4  N   UNL     1      -2.027   3.386  24.981  0.00  0.00    -0.203 NA
ENDBRANCH   5   4
ENDBRANCH   6   5
BRANCH   9  10
ATOM     10  N   UNL     1      -3.004   0.016  24.383  0.00  0.00    -0.208 NA
BRANCH  10  11
ATOM     11  C   UNL     1      -3.658  -0.388  24.683  0.00  0.00    +0.136 C 
BRANCH  11  12
ATOM     12  C   UNL     1      -3.740  -1.197  24.549  0.00  0.00    +0.097 A 
ATOM     13  C   UNL     1      -4.174  -1.548  23.942  0.00  0.00    +0.117 A 
ATOM     14  N   UNL     1      -4.105  -2.366  24.017  0.00  0.00    -0.221 NA
ATOM     15  C   UNL     1      -3.627  -2.522  24.671  0.00  0.00    +0.199 A 
ATOM     16  N   UNL     1      -3.401  -1.800  25.000  0.00  0.00    -0.225 NA
ENDBRANCH  11  12
ENDBRANCH  10  11
ENDBRANCH   9  10
TORSDOF 5
ENDMDL
