MODEL 1
REMARK VINA RESULT:     -10.7      0.000      0.000
REMARK  Name = 
REMARK  5 active torsions:
REMARK  status: ('A' for Active; 'I' for Inactive)
REMARK    1  A    between atoms: C_2  and  N_4
REMARK    2  A    between atoms: N_7  and  C_8
REMARK    3  A    between atoms: C_13  and  C_14
REMARK    4  A    between atoms: C_14  and  C_15
REMARK    5  A    between atoms: C_15  and  C_16
REMARK                            x       y       z     vdW  Elec       q    Type
REMARK                         _______ _______ _______ _____ _____    ______ ____
ROOT
ATOM      8  C   UNL     1      -4.139   0.157  25.251  0.00  0.00    +0.115 C 
ATOM      9  C   UNL     1      -4.895   0.481  25.196  0.00  0.00    +0.049 C 
ATOM     10  C   UNL     1      -4.822   1.262  24.941  0.00  0.00    +0.138 C 
ATOM     11  N   UNL     1      -4.019   1.421  24.838  0.00  0.00    -0.265 NA
ATOM     12  C   UNL     1      -3.596   0.739  25.029  0.00  0.00    +0.094 C 
ATOM     13  C   UNL     1      -3.776   2.168  24.584  0.00  0.00    +0.080 C 
ATOM     23  C   UNL     1      -4.336   2.755  24.432  0.00  0.00    +0.131 C 
ATOM     24  N   UNL     1      -5.139   2.594  24.535  0.00  0.00    -0.203 NA
ATOM     25  C   UNL     1      -5.382   1.848  24.790  0.00  0.00    +0.256 C 
ATOM     26  O   UNL     1      -6.185   1.689  24.893  0.00  0.00    -0.272 OA
ENDROOT
BRANCH   8   7
ATOM      4  N   UNL     1      -3.549  -1.942  25.155  0.00  0.00    -0.189 NA
ATOM      5  C   UNL     1      -3.733  -1.173  24.921  0.00  0.00    +0.339 C 
ATOM      6  O   UNL     1      -3.695  -0.963  24.123  0.00  0.00    -0.249 OA
ATOM      7  N   UNL     1      -3.955  -0.612  25.485  0.00  0.00    -0.187 NA
BRANCH   4   2
ATOM      1  C   UNL     1      -3.905  -2.912  24.167  0.00  0.00    +0.023 C 
ATOM      2  C   UNL     1      -3.327  -2.503  24.591  0.00  0.00    +0.097 C 
ATOM      3  C   UNL     1      -2.528  -2.653  24.451  0.00  0.00    +0.023 C 
ENDBRANCH   4   2
ENDBRANCH   8   7
BRANCH  13  14
ATOM     14  C   UNL     1      -2.973   2.328  24.481  0.00  0.00    +0.027 C 
BRANCH  14  15
ATOM     15  C   UNL     1      -2.680   3.084  24.635  0.00  0.00    +0.087 C 
BRANCH  15  16
ATOM     16  C   UNL     1      -1.879   3.246  24.520  0.00  0.00    +0.226 C 
ATOM     17  O   UNL     1      -1.389   2.681  24.173  0.00  0.00    -0.275 OA
ATOM     18  N   UNL     1      -1.570   3.975  24.751  0.00  0.00    -0.280 N 
ATOM     19  C   UNL     1      -0.785   4.216  24.671  0.00  0.00    +0.093 C 
ATOM     20  C   UNL     1      -0.720   4.981  24.974  0.00  0.00    +0.023 C 
ATOM     21  C   UNL     1      -1.466   5.213  25.241  0.00  0.00    +0.023 C 
ATOM     22  C   UNL     1      -1.991   4.592  25.103  0.00  0.00    +0.093 C 
ENDBRANCH  15  16
ENDBRANCH  14  15
ENDBRANCH  13  14
TORSDOF 5
ENDMDL
MODEL 2
REMARK VINA RESULT:     -10.7      0.953      4.933
REMARK  Name = 
REMARK  5 active torsions:
REMARK  status: ('A' for Active; 'I' for Inactive)
REMARK    1  A    between atoms: C_2  and  N_4
REMARK    2  A    between atoms: N_7  and  C_8
REMARK    3  A    between atoms: C_13  and  C_14
REMARK    4  A    between atoms: C_14  and  C_15
REMARK    5  A    between atoms: C_15  and  C_16
REMARK                            x       y       z     vdW  Elec       q    Type
REMARK                         _______ _______ _______ _____ _____    ______ ____
ROOT
ATOM      8  C   UNL     1      -3.769   3.098  24.569  0.00  0.00    +0.115 C 
ATOM      9  C   UNL     1      -4.390   3.285  25.078  0.00  0.00    +0.049 C 
ATOM     10  C   UNL     1      -4.817   2.594  25.226  0.00  0.00    +0.138 C 
ATOM     11  N   UNL     1      -4.459   1.980  24.807  0.00  0.00    -0.265 NA
ATOM     12  C   UNL     1      -3.812   2.291  24.401  0.00  0.00    +0.094 C 
ATOM     13  C   UNL     1      -4.769   1.217  24.850  0.00  0.00    +0.080 C 
ATOM     23  C   UNL     1      -5.437   1.068  25.311  0.00  0.00    +0.131 C 
ATOM     24  N   UNL     1      -5.794   1.682  25.730  0.00  0.00    -0.203 NA
ATOM     25  C   UNL     1      -5.484   2.446  25.687  0.00  0.00    +0.256 C 
ATOM     26  O   UNL     1      -5.842   3.060  26.106  0.00  0.00    -0.272 OA
ENDROOT
BRANCH   8   7
ATOM      4  N   UNL     1      -1.986   4.351  24.449  0.00  0.00    -0.189 NA
ATOM      5  C   UNL     1      -2.551   3.825  24.740  0.00  0.00    +0.339 C 
ATOM      6  O   UNL     1      -2.462   3.499  25.493  0.00  0.00    -0.249 OA
ATOM      7  N   UNL     1      -3.205   3.624  24.277  0.00  0.00    -0.187 NA
BRANCH   4   2
ATOM      1  C   UNL     1      -1.307   5.281  25.295  0.00  0.00    +0.023 C 
ATOM      2  C   UNL     1      -1.332   4.551  24.911  0.00  0.00    +0.097 C 
ATOM      3  C   UNL     1      -0.704   4.022  24.989  0.00  0.00    +0.023 C 
ENDBRANCH   4   2
ENDBRANCH   8   7
BRANCH  13  14
ATOM     14  C   UNL     1      -4.412   0.602  24.431  0.00  0.00    +0.027 C 
BRANCH  14  15
ATOM     15  C   UNL     1      -4.326  -0.140  24.780  0.00  0.00    +0.087 C 
BRANCH  15  16
ATOM     16  C   UNL     1      -4.090  -0.786  24.324  0.00  0.00    +0.226 C 
ATOM     17  O   UNL     1      -4.180  -0.767  23.505  0.00  0.00    -0.275 OA
ATOM     18  N   UNL     1      -3.765  -1.451  24.688  0.00  0.00    -0.280 N 
ATOM     19  C   UNL     1      -3.505  -2.134  24.306  0.00  0.00    +0.093 C 
ATOM     20  C   UNL     1      -3.221  -2.655  24.880  0.00  0.00    +0.023 C 
ATOM     21  C   UNL     1      -3.305  -2.293  25.617  0.00  0.00    +0.023 C 
ATOM     22  C   UNL     1      -3.642  -1.549  25.498  0.00  0.00    +0.093 C 
ENDBRANCH  15  16
ENDBRANCH  14  15
ENDBRANCH  13  14
TORSDOF 5
ENDMDL
MODEL 3
REMARK VINA RESULT:      -9.7      2.158      3.138
REMARK  Name = 
REMARK  5 active torsions:
REMARK  status: ('A' for Active; 'I' for Inactive)
REMARK    1  A    between atoms: C_2  and  N_4
REMARK    2  A    between atoms: N_7  and  C_8
REMARK    3  A    between atoms: C_13  and  C_14
REMARK    4  A    between atoms: C_14  and  C_15
REMARK    5  A    between atoms: C_15  and  C_16
REMARK                            x       y       z     vdW  Elec       q    Type
REMARK                         _______ _______ _______ _____ _____    ______ ____
ROOT
ATOM      8  C   UNL     1      -1.310  -0.686  24.881  0.00  0.00    +0.115 C 
ATOM      9  C   UNL     1      -0.676  -0.768  24.361  0.00  0.00    +0.049 C 
ATOM     10  C   UNL     1      -0.328  -0.027  24.261  0.00  0.00    +0.138 C 
ATOM     11  N   UNL     1      -0.750   0.515  24.719  0.00  0.00    -0.265 NA
ATOM     12  C   UNL     1      -1.356   0.108  25.103  0.00  0.00    +0.094 C 
ATOM     13  C   UNL     1      -0.526   1.309  24.729  0.00  0.00    +0.080 C 
ATOM     23  C   UNL     1       0.119   1.561  24.279  0.00  0.00    +0.131 C 
ATOM     24  N   UNL     1       0.540   1.019  23.821  0.00  0.00    -0.203 NA
ATOM     25  C   UNL     1       0.316   0.225  23.812  0.00  0.00    +0.256 C 
ATOM     26  O   UNL     1       0.737  -0.317  23.354  0.00  0.00    -0.272 OA
ENDROOT
BRANCH   8   7
ATOM      4  N   UNL     1      -2.988  -2.079  24.952  0.00  0.00    -0.189 NA
ATOM      5  C   UNL     1      -2.487  -1.476  24.697  0.00  0.00    +0.339 C 
ATOM      6  O   UNL     1      -2.659  -1.060  24.006  0.00  0.00    -0.249 OA
ATOM      7  N   UNL     1      -1.812  -1.289  25.135  0.00  0.00    -0.187 NA
BRANCH   4   2
ATOM      1  C   UNL     1      -4.260  -1.705  24.417  0.00  0.00    +0.023 C 
ATOM      2  C   UNL     1      -3.663  -2.266  24.514  0.00  0.00    +0.097 C 
ATOM      3  C   UNL     1      -3.740  -3.014  24.174  0.00  0.00    +0.023 C 
ENDBRANCH   4   2
ENDBRANCH   8   7
BRANCH  13  14
ATOM     14  C   UNL     1      -0.946   1.851  25.187  0.00  0.00    +0.027 C 
BRANCH  14  15
ATOM     15  C   UNL     1      -0.887   2.659  25.028  0.00  0.00    +0.087 C 
BRANCH  15  16
ATOM     16  C   UNL     1      -1.433   3.184  25.357  0.00  0.00    +0.226 C 
ATOM     17  O   UNL     1      -2.051   2.899  25.821  0.00  0.00    -0.275 OA
ATOM     18  N   UNL     1      -1.358   3.994  25.220  0.00  0.00    -0.280 N 
ATOM     19  C   UNL     1      -1.858   4.582  25.509  0.00  0.00    +0.093 C 
ATOM     20  C   UNL     1      -1.580   5.310  25.237  0.00  0.00    +0.023 C 
ATOM     21  C   UNL     1      -0.908   5.171  24.779  0.00  0.00    +0.023 C 
ATOM     22  C   UNL     1      -0.771   4.358  24.768  0.00  0.00    +0.093 C 
ENDBRANCH  15  16
ENDBRANCH  14  15
ENDBRANCH  13  14
TORSDOF 5
ENDMDL
MODEL 4
REMARK VINA RESULT:      -9.6      2.373      5.899
REMARK  Name = 
REMARK  5 active torsions:
REMARK  status: ('A' for Active; 'I' for Inactive)
REMARK    1  A    between atoms: C_2  and  N_4
REMARK    2  A    between atoms: N_7  and  C_8
REMARK    3  A    between atoms: C_13  and  C_14
REMARK    4  A    between atoms: C_14  and  C_15
REMARK    5  A    between atoms: C_15  and  C_16
REMARK                            x       y       z     vdW  Elec       q    Type
REMARK                         _______ _______ _______ _____ _____    ______ ____
ROOT
ATOM      8  C   UNL     1      -0.279   2.042  25.130  0.00  0.00    +0.115 C 
ATOM      9  C   UNL     1       0.258   1.875  24.527  0.00  0.00    +0.049 C 
ATOM     10  C   UNL     1       0.153   1.089  24.301  0.00  0.00    +0.138 C 
ATOM     11  N   UNL     1      -0.450   0.769  24.765  0.00  0.00    -0.265 NA
ATOM     12  C   UNL     1      -0.717   1.358  25.277  0.00  0.00    +0.094 C 
ATOM     13  C   UNL     1      -0.678  -0.017  24.661  0.00  0.00    +0.080 C 
ATOM     23  C   UNL     1      -0.302  -0.484  24.092  0.00  0.00    +0.131 C 
ATOM     24  N   UNL     1       0.300  -0.163  23.629  0.00  0.00    -0.203 NA
ATOM     25  C   UNL     1       0.527   0.623  23.733  0.00  0.00    +0.256 C 
ATOM     26  O   UNL     1       1.130   0.942  23.269  0.00  0.00    -0.272 OA
ENDROOT
BRANCH   8   7
ATOM      4  N   UNL     1      -0.968   4.057  25.608  0.00  0.00    -0.189 NA
ATOM      5  C   UNL     1      -0.882   3.335  25.219  0.00  0.00    +0.339 C 
ATOM      6  O   UNL     1      -1.313   3.181  24.532  0.00  0.00    -0.249 OA
ATOM      7  N   UNL     1      -0.365   2.765  25.518  0.00  0.00    -0.187 NA
BRANCH   4   2
ATOM      1  C   UNL     1      -2.293   4.572  25.464  0.00  0.00    +0.023 C 
ATOM      2  C   UNL     1      -1.485   4.627  25.308  0.00  0.00    +0.097 C 
ATOM      3  C   UNL     1      -1.193   5.251  24.854  0.00  0.00    +0.023 C 
ENDBRANCH   4   2
ENDBRANCH   8   7
BRANCH  13  14
ATOM     14  C   UNL     1      -1.280  -0.338  25.124  0.00  0.00    +0.027 C 
BRANCH  14  15
ATOM     15  C   UNL     1      -1.709  -0.987  24.852  0.00  0.00    +0.087 C 
BRANCH  15  16
ATOM     16  C   UNL     1      -2.356  -1.264  25.284  0.00  0.00    +0.226 C 
ATOM     17  O   UNL     1      -2.534  -0.934  26.018  0.00  0.00    -0.275 OA
ATOM     18  N   UNL     1      -2.824  -1.871  24.981  0.00  0.00    -0.280 N 
ATOM     19  C   UNL     1      -3.485  -2.204  25.346  0.00  0.00    +0.093 C 
ATOM     20  C   UNL     1      -3.783  -2.791  24.850  0.00  0.00    +0.023 C 
ATOM     21  C   UNL     1      -3.307  -2.822  24.177  0.00  0.00    +0.023 C 
ATOM     22  C   UNL     1      -2.714  -2.254  24.257  0.00  0.00    +0.093 C 
ENDBRANCH  15  16
ENDBRANCH  14  15
ENDBRANCH  13  14
TORSDOF 5
ENDMDL
MODEL 5
REMARK VINA RESULT:      -9.4      2.051      4.352
REMARK  Name = 
REMARK  5 active torsions:
REMARK  status: ('A' for Active; 'I' for Inactive)
REMARK    1  A    between atoms: C_2  and  N_4
REMARK    2  A    between atoms: N_7  and  C_8
REMARK    3  A    between atoms: C_13  and  C_14
REMARK    4  A    between atoms: C_14  and  C_15
REMARK    5  A    between atoms: C_15  and  C_16
REMARK                            x       y       z     vdW  Elec       q    Type
REMARK                         _______ _______ _______ _____ _____    ______ ____
ROOT
ATOM      8  C   UNL     1      -3.207   3.295  24.485  0.00  0.00    +0.115 C 
ATOM      9  C   UNL     1      -2.815   3.937  24.823  0.00  0.00    +0.049 C 
ATOM     10  C   UNL     1      -2.009   3.761  24.848  0.00  0.00    +0.138 C 
ATOM     11  N   UNL     1      -1.903   3.009  24.525  0.00  0.00    -0.265 NA
ATOM     12  C   UNL     1      -2.643   2.721  24.301  0.00  0.00    +0.094 C 
ATOM     13  C   UNL     1      -1.147   2.684  24.477  0.00  0.00    +0.080 C 
ATOM     23  C   UNL     1      -0.495   3.111  24.752  0.00  0.00    +0.131 C 
ATOM     24  N   UNL     1      -0.602   3.863  25.074  0.00  0.00    -0.203 NA
ATOM     25  C   UNL     1      -1.359   4.188  25.122  0.00  0.00    +0.256 C 
ATOM     26  O   UNL     1      -1.465   4.940  25.445  0.00  0.00    -0.272 OA
ENDROOT
BRANCH   8   7
ATOM      4  N   UNL     1      -5.298   2.723  24.731  0.00  0.00    -0.189 NA
ATOM      5  C   UNL     1      -4.486   2.782  24.862  0.00  0.00    +0.339 C 
ATOM      6  O   UNL     1      -4.141   2.388  25.499  0.00  0.00    -0.249 OA
ATOM      7  N   UNL     1      -4.019   3.236  24.354  0.00  0.00    -0.187 NA
BRANCH   4   2
ATOM      1  C   UNL     1      -6.049   1.535  24.990  0.00  0.00    +0.023 C 
ATOM      2  C   UNL     1      -5.765   2.269  25.238  0.00  0.00    +0.097 C 
ATOM      3  C   UNL     1      -5.949   2.549  25.992  0.00  0.00    +0.023 C 
ENDBRANCH   4   2
ENDBRANCH   8   7
BRANCH  13  14
ATOM     14  C   UNL     1      -1.040   1.932  24.155  0.00  0.00    +0.027 C 
BRANCH  14  15
ATOM     15  C   UNL     1      -0.718   1.327  24.615  0.00  0.00    +0.087 C 
BRANCH  15  16
ATOM     16  C   UNL     1      -0.515   0.608  24.266  0.00  0.00    +0.226 C 
ATOM     17  O   UNL     1      -0.198   0.593  23.505  0.00  0.00    -0.275 OA
ATOM     18  N   UNL     1      -0.630  -0.097  24.679  0.00  0.00    -0.280 N 
ATOM     19  C   UNL     1      -0.455  -0.855  24.403  0.00  0.00    +0.093 C 
ATOM     20  C   UNL     1      -0.657  -1.394  24.994  0.00  0.00    +0.023 C 
ATOM     21  C   UNL     1      -0.957  -0.970  25.635  0.00  0.00    +0.023 C 
ATOM     22  C   UNL     1      -0.941  -0.168  25.440  0.00  0.00    +0.093 C 
ENDBRANCH  15  16
ENDBRANCH  14  15
ENDBRANCH  13  14
TORSDOF 5
ENDMDL
MODEL 6
REMARK VINA RESULT:      -9.1      1.903      3.705
REMARK  Name = 
REMARK  5 active torsions:
REMARK  status: ('A' for Active; 'I' for Inactive)
REMARK    1  A    between atoms: C_2  and  N_4
REMARK    2  A    between atoms: N_7  and  C_8
REMARK    3  A    between atoms: C_13  and  C_14
REMARK    4  A    between atoms: C_14  and  C_15
REMARK    5  A    between atoms: C_15  and  C_16
REMARK                            x       y       z     vdW  Elec       q    Type
REMARK                         _______ _______ _______ _____ _____    ______ ____
ROOT
ATOM      8  C   UNL     1      -0.802   1.105  24.653  0.00  0.00    +0.115 C 
ATOM      9  C   UNL     1      -0.370   1.583  25.168  0.00  0.00    +0.049 C 
ATOM     10  C   UNL     1      -0.812   2.264  25.316  0.00  0.00    +0.138 C 
ATOM     11  N   UNL     1      -1.518   2.206  24.893  0.00  0.00    -0.265 NA
ATOM     12  C   UNL     1      -1.512   1.490  24.482  0.00  0.00    +0.094 C 
ATOM     13  C   UNL     1      -2.075   2.813  24.935  0.00  0.00    +0.080 C 
ATOM     23  C   UNL     1      -1.927   3.478  25.401  0.00  0.00    +0.131 C 
ATOM     24  N   UNL     1      -1.221   3.534  25.825  0.00  0.00    -0.203 NA
ATOM     25  C   UNL     1      -0.664   2.927  25.782  0.00  0.00    +0.256 C 
ATOM     26  O   UNL     1       0.042   2.985  26.206  0.00  0.00    -0.272 OA
ENDROOT
BRANCH   8   7
ATOM      4  N   UNL     1      -0.578  -1.056  24.441  0.00  0.00    -0.189 NA
ATOM      5  C   UNL     1      -0.813  -0.322  24.735  0.00  0.00    +0.339 C 
ATOM      6  O   UNL     1      -1.295  -0.280  25.403  0.00  0.00    -0.249 OA
ATOM      7  N   UNL     1      -0.566   0.371  24.359  0.00  0.00    -0.187 NA
BRANCH   4   2
ATOM      1  C   UNL     1      -0.376  -2.066  25.432  0.00  0.00    +0.023 C 
ATOM      2  C   UNL     1      -0.825  -1.749  24.817  0.00  0.00    +0.097 C 
ATOM      3  C   UNL     1      -1.520  -2.123  24.577  0.00  0.00    +0.023 C 
ENDBRANCH   4   2
ENDBRANCH   8   7
BRANCH  13  14
ATOM     14  C   UNL     1      -2.781   2.756  24.512  0.00  0.00    +0.027 C 
BRANCH  14  15
ATOM     15  C   UNL     1      -3.503   2.859  24.897  0.00  0.00    +0.087 C 
BRANCH  15  16
ATOM     16  C   UNL     1      -4.209   2.725  24.492  0.00  0.00    +0.226 C 
ATOM     17  O   UNL     1      -4.239   2.816  23.673  0.00  0.00    -0.275 OA
ATOM     18  N   UNL     1      -4.886   2.499  24.906  0.00  0.00    -0.280 N 
ATOM     19  C   UNL     1      -5.627   2.346  24.579  0.00  0.00    +0.093 C 
ATOM     20  C   UNL     1      -6.139   2.139  25.192  0.00  0.00    +0.023 C 
ATOM     21  C   UNL     1      -5.714   2.164  25.899  0.00  0.00    +0.023 C 
ATOM     22  C   UNL     1      -4.939   2.387  25.722  0.00  0.00    +0.093 C 
ENDBRANCH  15  16
ENDBRANCH  14  15
ENDBRANCH  13  14
TORSDOF 5
ENDMDL
MODEL 7
REMARK VINA RESULT:      -8.3     15.900     18.985
REMARK  Name = 
REMARK  5 active torsions:
REMARK  status: ('A' for Active; 'I' for Inactive)
REMARK    1  A    between atoms: C_2  and  N_4
REMARK    2  A    between atoms: N_7  and  C_8
REMARK    3  A    between atoms: C_13  and  C_14
REMARK    4  A    between atoms: C_14  and  C_15
REMARK    5  A    between atoms: C_15  and  C_16
REMARK                            x       y       z     vdW  Elec       q    Type
REMARK                         _______ _______ _______ _____ _____    ______ ____
ROOT
ATOM      8  C   UNL     1      11.937   8.518  19.506  0.00  0.00    +0.115 C 
ATOM      9  C   UNL     1      11.670   8.267  18.767  0.00  0.00    +0.049 C 
ATOM     10  C   UNL     1      12.322   8.002  18.336  0.00  0.00    +0.138 C 
ATOM     11  N   UNL     1      12.992   8.090  18.808  0.00  0.00    -0.265 NA
ATOM     12  C   UNL     1      12.755   8.409  19.531  0.00  0.00    +0.094 C 
ATOM     13  C   UNL     1      13.732   7.867  18.519  0.00  0.00    +0.080 C 
ATOM     23  C   UNL     1      13.801   7.557  17.757  0.00  0.00    +0.131 C 
ATOM     24  N   UNL     1      13.130   7.470  17.285  0.00  0.00    -0.203 NA
ATOM     25  C   UNL     1      12.390   7.692  17.575  0.00  0.00    +0.256 C 
ATOM     26  O   UNL     1      11.720   7.604  17.102  0.00  0.00    -0.272 OA
ENDROOT
BRANCH   8   7
ATOM      4  N   UNL     1      10.846   8.676  21.389  0.00  0.00    -0.189 NA
ATOM      5  C   UNL     1      11.312   8.369  20.782  0.00  0.00    +0.339 C 
ATOM      6  O   UNL     1      11.620   7.606  20.843  0.00  0.00    -0.249 OA
ATOM      7  N   UNL     1      11.471   8.826  20.113  0.00  0.00    -0.187 NA
BRANCH   4   2
ATOM      1  C   UNL     1      11.059   8.393  22.773  0.00  0.00    +0.023 C 
ATOM      2  C   UNL     1      10.687   8.219  22.058  0.00  0.00    +0.097 C 
ATOM      3  C   UNL     1      10.156   7.589  22.011  0.00  0.00    +0.023 C 
ENDBRANCH   4   2
ENDBRANCH   8   7
BRANCH  13  14
ATOM     14  C   UNL     1      14.403   7.955  18.991  0.00  0.00    +0.027 C 
BRANCH  14  15
ATOM     15  C   UNL     1      15.023   7.413  18.932  0.00  0.00    +0.087 C 
BRANCH  15  16
ATOM     16  C   UNL     1      15.688   7.494  19.413  0.00  0.00    +0.226 C 
ATOM     17  O   UNL     1      15.762   8.149  19.909  0.00  0.00    -0.275 OA
ATOM     18  N   UNL     1      16.280   6.920  19.398  0.00  0.00    -0.280 N 
ATOM     19  C   UNL     1      16.973   6.926  19.845  0.00  0.00    +0.093 C 
ATOM     20  C   UNL     1      17.404   6.248  19.657  0.00  0.00    +0.023 C 
ATOM     21  C   UNL     1      16.977   5.823  19.093  0.00  0.00    +0.023 C 
ATOM     22  C   UNL     1      16.282   6.238  18.933  0.00  0.00    +0.093 C 
ENDBRANCH  15  16
ENDBRANCH  14  15
ENDBRANCH  13  14
TORSDOF 5
ENDMDL
MODEL 8
REMARK VINA RESULT:      -7.4     16.034     19.245
REMARK  Name = 
REMARK  5 active torsions:
REMARK  status: ('A' for Active; 'I' for Inactive)
REMARK    1  A    between atoms: C_2  and  N_4
REMARK    2  A    between atoms: N_7  and  C_8
REMARK    3  A    between atoms: C_13  and  C_14
REMARK    4  A    between atoms: C_14  and  C_15
REMARK    5  A    between atoms: C_15  and  C_16
REMARK                            x       y       z     vdW  Elec       q    Type
REMARK                         _______ _______ _______ _____ _____    ______ ____
ROOT
ATOM      8  C   UNL     1      14.640   8.269  18.795  0.00  0.00    +0.115 C 
ATOM      9  C   UNL     1      15.089   7.582  18.879  0.00  0.00    +0.049 C 
ATOM     10  C   UNL     1      14.926   7.259  19.621  0.00  0.00    +0.138 C 
ATOM     11  N   UNL     1      14.376   7.747  19.996  0.00  0.00    -0.265 NA
ATOM     12  C   UNL     1      14.200   8.371  19.486  0.00  0.00    +0.094 C 
ATOM     13  C   UNL     1      14.108   7.560  20.753  0.00  0.00    +0.080 C 
ATOM     23  C   UNL     1      14.389   6.884  21.135  0.00  0.00    +0.131 C 
ATOM     24  N   UNL     1      14.938   6.397  20.760  0.00  0.00    -0.203 NA
ATOM     25  C   UNL     1      15.207   6.584  20.002  0.00  0.00    +0.256 C 
ATOM     26  O   UNL     1      15.756   6.096  19.628  0.00  0.00    -0.272 OA
ENDROOT
BRANCH   8   7
ATOM      4  N   UNL     1      14.134   9.093  16.839  0.00  0.00    -0.189 NA
ATOM      5  C   UNL     1      14.142   8.595  17.497  0.00  0.00    +0.339 C 
ATOM      6  O   UNL     1      13.659   7.926  17.514  0.00  0.00    -0.249 OA
ATOM      7  N   UNL     1      14.633   8.767  18.138  0.00  0.00    -0.187 NA
BRANCH   4   2
ATOM      1  C   UNL     1      12.835   9.079  16.245  0.00  0.00    +0.023 C 
ATOM      2  C   UNL     1      13.643   8.922  16.198  0.00  0.00    +0.097 C 
ATOM      3  C   UNL     1      13.961   8.594  15.511  0.00  0.00    +0.023 C 
ENDBRANCH   4   2
ENDBRANCH   8   7
BRANCH  13  14
ATOM     14  C   UNL     1      13.558   8.047  21.128  0.00  0.00    +0.027 C 
BRANCH  14  15
ATOM     15  C   UNL     1      12.880   7.721  21.466  0.00  0.00    +0.087 C 
BRANCH  15  16
ATOM     16  C   UNL     1      12.347   8.205  21.869  0.00  0.00    +0.226 C 
ATOM     17  O   UNL     1      12.587   8.944  22.145  0.00  0.00    -0.275 OA
ATOM     18  N   UNL     1      11.573   7.950  21.995  0.00  0.00    -0.280 N 
ATOM     19  C   UNL     1      10.981   8.370  22.387  0.00  0.00    +0.093 C 
ATOM     20  C   UNL     1      10.297   7.908  22.386  0.00  0.00    +0.023 C 
ATOM     21  C   UNL     1      10.465   7.203  21.994  0.00  0.00    +0.023 C 
ATOM     22  C   UNL     1      11.254   7.228  21.752  0.00  0.00    +0.093 C 
ENDBRANCH  15  16
ENDBRANCH  14  15
ENDBRANCH  13  14
TORSDOF 5
ENDMDL
MODEL 9
REMARK VINA RESULT:      -7.2     13.726     14.585
REMARK  Name = 
REMARK  5 active torsions:
REMARK  status: ('A' for Active; 'I' for Inactive)
REMARK    1  A    between atoms: C_2  and  N_4
REMARK    2  A    between atoms: N_7  and  C_8
REMARK    3  A    between atoms: C_13  and  C_14
REMARK    4  A    between atoms: C_14  and  C_15
REMARK    5  A    between atoms: C_15  and  C_16
REMARK                            x       y       z     vdW  Elec       q    Type
REMARK                         _______ _______ _______ _____ _____    ______ ____
ROOT
ATOM      8  C   UNL     1      -7.612 -10.269  17.715  0.00  0.00    +0.115 C 
ATOM      9  C   UNL     1      -7.428 -10.375  18.512  0.00  0.00    +0.049 C 
ATOM     10  C   UNL     1      -6.617 -10.515  18.571  0.00  0.00    +0.138 C 
ATOM     11  N   UNL     1      -6.299 -10.495  17.810  0.00  0.00    -0.265 NA
ATOM     12  C   UNL     1      -6.913 -10.343  17.281  0.00  0.00    +0.094 C 
ATOM     13  C   UNL     1      -5.491 -10.618  17.698  0.00  0.00    +0.080 C 
ATOM     23  C   UNL     1      -5.001 -10.761  18.347  0.00  0.00    +0.131 C 
ATOM     24  N   UNL     1      -5.320 -10.781  19.107  0.00  0.00    -0.203 NA
ATOM     25  C   UNL     1      -6.128 -10.658  19.220  0.00  0.00    +0.256 C 
ATOM     26  O   UNL     1      -6.446 -10.678  19.981  0.00  0.00    -0.272 OA
ENDROOT
BRANCH   8   7
ATOM      4  N   UNL     1      -9.345  -9.183  16.953  0.00  0.00    -0.189 NA
ATOM      5  C   UNL     1      -8.596  -9.336  17.264  0.00  0.00    +0.339 C 
ATOM      6  O   UNL     1      -8.083  -8.713  17.433  0.00  0.00    -0.249 OA
ATOM      7  N   UNL     1      -8.360 -10.115  17.405  0.00  0.00    -0.187 NA
BRANCH   4   2
ATOM      1  C   UNL     1      -9.498  -8.079  16.059  0.00  0.00    +0.023 C 
ATOM      2  C   UNL     1      -9.581  -8.404  16.812  0.00  0.00    +0.097 C 
ATOM      3  C   UNL     1      -9.899  -7.952  17.425  0.00  0.00    +0.023 C 
ENDBRANCH   4   2
ENDBRANCH   8   7
BRANCH  13  14
ATOM     14  C   UNL     1      -5.172 -10.598  16.938  0.00  0.00    +0.027 C 
BRANCH  14  15
ATOM     15  C   UNL     1      -4.358 -10.672  16.829  0.00  0.00    +0.087 C 
BRANCH  15  16
ATOM     16  C   UNL     1      -4.042 -10.676  16.067  0.00  0.00    +0.226 C 
ATOM     17  O   UNL     1      -4.543 -10.656  15.412  0.00  0.00    -0.275 OA
ATOM     18  N   UNL     1      -3.225 -10.700  15.960  0.00  0.00    -0.280 N 
ATOM     19  C   UNL     1      -2.831 -10.706  15.235  0.00  0.00    +0.093 C 
ATOM     20  C   UNL     1      -2.019 -10.732  15.386  0.00  0.00    +0.023 C 
ATOM     21  C   UNL     1      -1.912 -10.742  16.204  0.00  0.00    +0.023 C 
ATOM     22  C   UNL     1      -2.657 -10.722  16.559  0.00  0.00    +0.093 C 
ENDBRANCH  15  16
ENDBRANCH  14  15
ENDBRANCH  13  14
TORSDOF 5
ENDMDL
