MODEL 1
REMARK VINA RESULT:     -13.0      0.000      0.000
REMARK  Name = 
REMARK  4 active torsions:
REMARK  status: ('A' for Active; 'I' for Inactive)
REMARK    1  A    between atoms: O_2  and  C_3
REMARK    2  A    between atoms: C_8  and  C_9
REMARK    3  A    between atoms: C_12  and  C_14
REMARK    4  A    between atoms: C_19  and  C_21
REMARK                            x       y       z     vdW  Elec       q    Type
REMARK                         _______ _______ _______ _____ _____    ______ ____
ROOT
ATOM      9  C   UNL     1      -3.744  -0.451  24.179  0.00  0.00    +0.252 A 
ATOM     10  N   UNL     1      -3.441  -0.008  23.553  0.00  0.00    -0.107 NA
ATOM     11  N   UNL     1      -3.670   0.777  23.661  0.00  0.00    -0.111 NA
ATOM     12  C   UNL     1      -4.114   0.819  24.355  0.00  0.00    +0.228 A 
ATOM     13  O   UNL     1      -4.160   0.060  24.675  0.00  0.00    -0.419 OA
ENDROOT
BRANCH  12  14
ATOM     14  C   UNL     1      -4.453   1.501  24.673  0.00  0.00    +0.100 C 
ATOM     15  C   UNL     1      -5.255   1.615  24.830  0.00  0.00    +0.033 C 
ATOM     16  C   UNL     1      -5.348   2.373  25.144  0.00  0.00    +0.094 C 
ATOM     17  N   UNL     1      -4.603   2.726  25.181  0.00  0.00    -0.279 N 
ATOM     18  C   UNL     1      -4.050   2.187  24.889  0.00  0.00    +0.103 C 
ATOM     19  C   UNL     1      -4.440   3.485  25.460  0.00  0.00    +0.225 C 
ATOM     20  O   UNL     1      -5.053   3.963  25.736  0.00  0.00    -0.275 OA
BRANCH  19  21
ATOM     21  C   UNL     1      -3.665   3.766  25.463  0.00  0.00    +0.077 C 
ATOM     22  C   UNL     1      -3.209   3.712  26.150  0.00  0.00    +0.009 C 
ATOM     23  C   UNL     1      -2.433   3.992  26.153  0.00  0.00    +0.000 C 
ATOM     24  C   UNL     1      -2.113   4.327  25.470  0.00  0.00    +0.000 C 
ATOM     25  C   UNL     1      -2.568   4.381  24.784  0.00  0.00    +0.000 C 
ATOM     26  C   UNL     1      -3.344   4.100  24.780  0.00  0.00    +0.009 C 
ENDBRANCH  19  21
ENDBRANCH  12  14
BRANCH   9   8
ATOM      3  C   UNL     1      -2.990  -1.548  24.697  0.00  0.00    +0.143 A 
ATOM      4  C   UNL     1      -2.894  -2.360  24.808  0.00  0.00    +0.037 A 
ATOM      5  C   UNL     1      -3.455  -2.887  24.512  0.00  0.00    +0.003 A 
ATOM      6  C   UNL     1      -4.114  -2.601  24.105  0.00  0.00    +0.000 A 
ATOM      7  C   UNL     1      -4.210  -1.789  23.994  0.00  0.00    +0.008 A 
ATOM      8  C   UNL     1      -3.648  -1.263  24.290  0.00  0.00    +0.089 A 
BRANCH   3   2
ATOM      1  C   UNL     1      -1.751  -1.309  25.368  0.00  0.00    +0.252 C 
ATOM      2  O   UNL     1      -2.427  -1.022  24.994  0.00  0.00    -0.471 OA
ENDBRANCH   3   2
ENDBRANCH   9   8
TORSDOF 4
ENDMDL
MODEL 2
REMARK VINA RESULT:     -12.2      1.737      5.444
REMARK  Name = 
REMARK  4 active torsions:
REMARK  status: ('A' for Active; 'I' for Inactive)
REMARK    1  A    between atoms: O_2  and  C_3
REMARK    2  A    between atoms: C_8  and  C_9
REMARK    3  A    between atoms: C_12  and  C_14
REMARK    4  A    between atoms: C_19  and  C_21
REMARK                            x       y       z     vdW  Elec       q    Type
REMARK                         _______ _______ _______ _____ _____    ______ ____
ROOT
ATOM      9  C   UNL     1      -1.481   2.666  24.379  0.00  0.00    +0.252 A 
ATOM     10  N   UNL     1      -1.681   2.454  23.607  0.00  0.00    -0.107 NA
ATOM     11  N   UNL     1      -1.565   1.642  23.526  0.00  0.00    -0.111 NA
ATOM     12  C   UNL     1      -1.294   1.351  24.249  0.00  0.00    +0.228 A 
ATOM     13  O   UNL     1      -1.242   1.984  24.776  0.00  0.00    -0.419 OA
ENDROOT
BRANCH  12  14
ATOM     14  C   UNL     1      -1.107   0.565  24.416  0.00  0.00    +0.100 C 
ATOM     15  C   UNL     1      -0.346   0.249  24.475  0.00  0.00    +0.033 C 
ATOM     16  C   UNL     1      -0.417  -0.554  24.649  0.00  0.00    +0.094 C 
ATOM     17  N   UNL     1      -1.220  -0.735  24.698  0.00  0.00    -0.279 N 
ATOM     18  C   UNL     1      -1.646  -0.043  24.554  0.00  0.00    +0.103 C 
ATOM     19  C   UNL     1      -1.541  -1.478  24.862  0.00  0.00    +0.225 C 
ATOM     20  O   UNL     1      -1.042  -2.122  24.995  0.00  0.00    -0.275 OA
BRANCH  19  21
ATOM     21  C   UNL     1      -2.359  -1.576  24.894  0.00  0.00    +0.077 C 
ATOM     22  C   UNL     1      -2.773  -1.375  25.579  0.00  0.00    +0.009 C 
ATOM     23  C   UNL     1      -3.591  -1.473  25.611  0.00  0.00    +0.000 C 
ATOM     24  C   UNL     1      -3.996  -1.771  24.957  0.00  0.00    +0.000 C 
ATOM     25  C   UNL     1      -3.583  -1.972  24.272  0.00  0.00    +0.000 C 
ATOM     26  C   UNL     1      -2.764  -1.874  24.240  0.00  0.00    +0.009 C 
ENDBRANCH  19  21
ENDBRANCH  12  14
BRANCH   9   8
ATOM      3  C   UNL     1      -2.213   3.698  25.043  0.00  0.00    +0.143 A 
ATOM      4  C   UNL     1      -2.247   4.458  25.362  0.00  0.00    +0.037 A 
ATOM      5  C   UNL     1      -1.583   4.947  25.335  0.00  0.00    +0.003 A 
ATOM      6  C   UNL     1      -0.884   4.675  24.989  0.00  0.00    +0.000 A 
ATOM      7  C   UNL     1      -0.850   3.914  24.670  0.00  0.00    +0.008 A 
ATOM      8  C   UNL     1      -1.515   3.426  24.698  0.00  0.00    +0.089 A 
BRANCH   3   2
ATOM      1  C   UNL     1      -3.582   3.488  25.396  0.00  0.00    +0.252 C 
ATOM      2  O   UNL     1      -2.878   3.209  25.070  0.00  0.00    -0.471 OA
ENDBRANCH   3   2
ENDBRANCH   9   8
TORSDOF 4
ENDMDL
MODEL 3
REMARK VINA RESULT:      -9.2     16.852     18.764
REMARK  Name = 
REMARK  4 active torsions:
REMARK  status: ('A' for Active; 'I' for Inactive)
REMARK    1  A    between atoms: O_2  and  C_3
REMARK    2  A    between atoms: C_8  and  C_9
REMARK    3  A    between atoms: C_12  and  C_14
REMARK    4  A    between atoms: C_19  and  C_21
REMARK                            x       y       z     vdW  Elec       q    Type
REMARK                         _______ _______ _______ _____ _____    ______ ____
ROOT
ATOM      9  C   UNL     1      11.122   8.309  20.311  0.00  0.00    +0.252 A 
ATOM     10  N   UNL     1      10.587   8.402  19.690  0.00  0.00    -0.107 NA
ATOM     11  N   UNL     1      11.002   8.333  18.981  0.00  0.00    -0.111 NA
ATOM     12  C   UNL     1      11.795   8.198  19.163  0.00  0.00    +0.228 A 
ATOM     13  O   UNL     1      11.869   8.183  19.985  0.00  0.00    -0.419 OA
ENDROOT
BRANCH  12  14
ATOM     14  C   UNL     1      12.407   8.096  18.620  0.00  0.00    +0.100 C 
ATOM     15  C   UNL     1      12.342   8.152  17.799  0.00  0.00    +0.033 C 
ATOM     16  C   UNL     1      13.087   8.010  17.473  0.00  0.00    +0.094 C 
ATOM     17  N   UNL     1      13.612   7.866  18.092  0.00  0.00    -0.279 N 
ATOM     18  C   UNL     1      13.193   7.919  18.801  0.00  0.00    +0.103 C 
ATOM     19  C   UNL     1      14.417   7.699  18.017  0.00  0.00    +0.225 C 
ATOM     20  O   UNL     1      14.762   7.664  17.268  0.00  0.00    -0.275 OA
BRANCH  19  21
ATOM     21  C   UNL     1      14.876   7.567  18.689  0.00  0.00    +0.077 C 
ATOM     22  C   UNL     1      15.199   8.206  19.101  0.00  0.00    +0.009 C 
ATOM     23  C   UNL     1      15.658   8.074  19.773  0.00  0.00    +0.000 C 
ATOM     24  C   UNL     1      15.794   7.303  20.034  0.00  0.00    +0.000 C 
ATOM     25  C   UNL     1      15.472   6.665  19.623  0.00  0.00    +0.000 C 
ATOM     26  C   UNL     1      15.013   6.796  18.950  0.00  0.00    +0.009 C 
ENDBRANCH  19  21
ENDBRANCH  12  14
BRANCH   9   8
ATOM      3  C   UNL     1      10.829   7.638  21.537  0.00  0.00    +0.143 A 
ATOM      4  C   UNL     1      10.649   7.666  22.341  0.00  0.00    +0.037 A 
ATOM      5  C   UNL     1      10.581   8.393  22.724  0.00  0.00    +0.003 A 
ATOM      6  C   UNL     1      10.694   9.094  22.302  0.00  0.00    +0.000 A 
ATOM      7  C   UNL     1      10.874   9.066  21.497  0.00  0.00    +0.008 A 
ATOM      8  C   UNL     1      10.942   8.337  21.115  0.00  0.00    +0.089 A 
BRANCH   3   2
ATOM      1  C   UNL     1      10.871   6.210  21.591  0.00  0.00    +0.252 C 
ATOM      2  O   UNL     1      10.897   6.909  21.155  0.00  0.00    -0.471 OA
ENDBRANCH   3   2
ENDBRANCH   9   8
TORSDOF 4
ENDMDL
