MODEL 1
REMARK VINA RESULT:     -12.4      0.000      0.000
REMARK  Name = 
REMARK  6 active torsions:
REMARK  status: ('A' for Active; 'I' for Inactive)
REMARK    1  A    between atoms: C_2  and  O_10
REMARK    2  A    between atoms: N_3  and  C_4
REMARK    3  A    between atoms: O_10  and  C_11
REMARK    4  A    between atoms: C_15  and  N_19
REMARK    5  A    between atoms: N_19  and  S_20
REMARK    6  A    between atoms: S_20  and  C_23
REMARK                            x       y       z     vdW  Elec       q    Type
REMARK                         _______ _______ _______ _____ _____    ______ ____
ROOT
ATOM     11  C   UNL     1      -0.703  -0.874  24.747  0.00  0.00    +0.229 C 
ATOM     12  C   UNL     1      -0.267  -0.813  24.050  0.00  0.00    +0.188 C 
ATOM     13  O   UNL     1       0.013  -0.039  23.991  0.00  0.00    -0.348 OA
ATOM     14  C   UNL     1      -0.251   0.378  24.652  0.00  0.00    +0.166 C 
ATOM     15  C   UNL     1      -0.242   1.114  25.025  0.00  0.00    +0.157 C 
ATOM     16  C   UNL     1      -0.679   1.053  25.722  0.00  0.00    +0.164 C 
ATOM     17  O   UNL     1      -0.958   0.279  25.780  0.00  0.00    -0.348 OA
ATOM     18  C   UNL     1      -0.694  -0.139  25.120  0.00  0.00    +0.186 C 
ENDROOT
BRANCH  11  10
ATOM     10  O   UNL     1      -1.082  -1.553  25.023  0.00  0.00    -0.432 OA
BRANCH  10   2
ATOM      1  O   UNL     1      -1.671  -2.201  23.893  0.00  0.00    -0.224 OA
ATOM      2  C   UNL     1      -1.749  -1.841  24.632  0.00  0.00    +0.425 C 
ATOM      3  N   UNL     1      -2.494  -1.771  24.979  0.00  0.00    -0.142 NA
BRANCH   3   4
ATOM      4  C   UNL     1      -3.160  -2.059  24.588  0.00  0.00    +0.077 A 
ATOM      5  C   UNL     1      -3.327  -2.868  24.596  0.00  0.00    +0.017 A 
ATOM      6  C   UNL     1      -3.993  -3.156  24.205  0.00  0.00    +0.001 A 
ATOM      7  C   UNL     1      -4.494  -2.636  23.806  0.00  0.00    +0.000 A 
ATOM      8  C   UNL     1      -4.329  -1.828  23.798  0.00  0.00    +0.001 A 
ATOM      9  C   UNL     1      -3.662  -1.539  24.190  0.00  0.00    +0.017 A 
ENDBRANCH   3   4
ENDBRANCH  10   2
ENDBRANCH  11  10
BRANCH  15  19
ATOM     19  N   UNL     1       0.137   1.792  24.749  0.00  0.00    -0.074 NA
BRANCH  19  20
ATOM     20  S   UNL     1      -0.227   2.529  24.826  0.00  0.00    +0.077 S 
ATOM     21  O   UNL     1      -0.559   2.444  24.075  0.00  0.00    -0.152 OA
ATOM     22  O   UNL     1       0.105   2.615  25.576  0.00  0.00    -0.152 OA
BRANCH  20  23
ATOM     23  C   UNL     1      -0.590   3.266  24.903  0.00  0.00    +0.124 A 
ATOM     24  C   UNL     1      -1.335   3.325  25.252  0.00  0.00    +0.020 A 
ATOM     25  C   UNL     1      -1.697   4.061  25.328  0.00  0.00    +0.001 A 
ATOM     26  C   UNL     1      -2.442   4.121  25.678  0.00  0.00    +0.000 A 
ATOM     27  C   UNL     1      -2.805   4.857  25.754  0.00  0.00    +0.000 A 
ATOM     28  C   UNL     1      -2.422   5.536  25.481  0.00  0.00    +0.000 A 
ATOM     29  C   UNL     1      -1.678   5.477  25.132  0.00  0.00    +0.000 A 
ATOM     30  C   UNL     1      -1.314   4.740  25.055  0.00  0.00    +0.000 A 
ATOM     31  C   UNL     1      -0.570   4.681  24.706  0.00  0.00    +0.001 A 
ATOM     32  C   UNL     1      -0.207   3.945  24.630  0.00  0.00    +0.020 A 
ENDBRANCH  20  23
ENDBRANCH  19  20
ENDBRANCH  15  19
TORSDOF 6
ENDMDL
MODEL 2
REMARK VINA RESULT:     -11.7      1.065      5.777
REMARK  Name = 
REMARK  6 active torsions:
REMARK  status: ('A' for Active; 'I' for Inactive)
REMARK    1  A    between atoms: C_2  and  O_10
REMARK    2  A    between atoms: N_3  and  C_4
REMARK    3  A    between atoms: O_10  and  C_11
REMARK    4  A    between atoms: C_15  and  N_19
REMARK    5  A    between atoms: N_19  and  S_20
REMARK    6  A    between atoms: S_20  and  C_23
REMARK                            x       y       z     vdW  Elec       q    Type
REMARK                         _______ _______ _______ _____ _____    ______ ____
ROOT
ATOM     11  C   UNL     1      -0.152   1.800  25.061  0.00  0.00    +0.229 C 
ATOM     12  C   UNL     1      -0.320   1.663  25.857  0.00  0.00    +0.188 C 
ATOM     13  O   UNL     1      -0.468   0.857  25.951  0.00  0.00    -0.348 OA
ATOM     14  C   UNL     1      -0.391   0.496  25.214  0.00  0.00    +0.166 C 
ATOM     15  C   UNL     1      -0.436  -0.225  24.816  0.00  0.00    +0.157 C 
ATOM     16  C   UNL     1      -0.268  -0.089  24.019  0.00  0.00    +0.164 C 
ATOM     17  O   UNL     1      -0.120   0.718  23.926  0.00  0.00    -0.348 OA
ATOM     18  C   UNL     1      -0.196   1.079  24.663  0.00  0.00    +0.186 C 
ENDROOT
BRANCH  11  10
ATOM     10  O   UNL     1       0.029   2.531  24.723  0.00  0.00    -0.432 OA
BRANCH  10   2
ATOM      1  O   UNL     1      -0.211   3.489  25.754  0.00  0.00    -0.224 OA
ATOM      2  C   UNL     1      -0.348   3.214  24.989  0.00  0.00    +0.425 C 
ATOM      3  N   UNL     1      -0.864   3.622  24.490  0.00  0.00    -0.142 NA
BRANCH   3   4
ATOM      4  C   UNL     1      -1.241   4.305  24.756  0.00  0.00    +0.077 A 
ATOM      5  C   UNL     1      -0.860   5.035  24.704  0.00  0.00    +0.017 A 
ATOM      6  C   UNL     1      -1.238   5.718  24.970  0.00  0.00    +0.001 A 
ATOM      7  C   UNL     1      -1.997   5.671  25.289  0.00  0.00    +0.000 A 
ATOM      8  C   UNL     1      -2.379   4.942  25.342  0.00  0.00    +0.001 A 
ATOM      9  C   UNL     1      -2.001   4.259  25.075  0.00  0.00    +0.017 A 
ENDBRANCH   3   4
ENDBRANCH  10   2
ENDBRANCH  11  10
BRANCH  15  19
ATOM     19  N   UNL     1      -0.616  -0.955  25.154  0.00  0.00    -0.074 NA
BRANCH  19  20
ATOM     20  S   UNL     1      -1.300  -1.358  24.928  0.00  0.00    +0.077 S 
ATOM     21  O   UNL     1      -0.945  -1.557  24.210  0.00  0.00    -0.152 OA
ATOM     22  O   UNL     1      -1.655  -1.159  25.646  0.00  0.00    -0.152 OA
BRANCH  20  23
ATOM     23  C   UNL     1      -1.984  -1.761  24.702  0.00  0.00    +0.124 A 
ATOM     24  C   UNL     1      -2.660  -1.340  24.491  0.00  0.00    +0.020 A 
ATOM     25  C   UNL     1      -3.343  -1.742  24.265  0.00  0.00    +0.001 A 
ATOM     26  C   UNL     1      -4.021  -1.321  24.054  0.00  0.00    +0.000 A 
ATOM     27  C   UNL     1      -4.704  -1.724  23.828  0.00  0.00    +0.000 A 
ATOM     28  C   UNL     1      -4.710  -2.550  23.813  0.00  0.00    +0.000 A 
ATOM     29  C   UNL     1      -4.033  -2.971  24.024  0.00  0.00    +0.000 A 
ATOM     30  C   UNL     1      -3.349  -2.568  24.250  0.00  0.00    +0.000 A 
ATOM     31  C   UNL     1      -2.673  -2.989  24.460  0.00  0.00    +0.001 A 
ATOM     32  C   UNL     1      -1.990  -2.586  24.686  0.00  0.00    +0.020 A 
ENDBRANCH  20  23
ENDBRANCH  19  20
ENDBRANCH  15  19
TORSDOF 6
ENDMDL
MODEL 3
REMARK VINA RESULT:     -11.5      2.434      6.332
REMARK  Name = 
REMARK  6 active torsions:
REMARK  status: ('A' for Active; 'I' for Inactive)
REMARK    1  A    between atoms: C_2  and  O_10
REMARK    2  A    between atoms: N_3  and  C_4
REMARK    3  A    between atoms: O_10  and  C_11
REMARK    4  A    between atoms: C_15  and  N_19
REMARK    5  A    between atoms: N_19  and  S_20
REMARK    6  A    between atoms: S_20  and  C_23
REMARK                            x       y       z     vdW  Elec       q    Type
REMARK                         _______ _______ _______ _____ _____    ______ ____
ROOT
ATOM     11  C   UNL     1      -4.423   3.044  25.101  0.00  0.00    +0.229 C 
ATOM     12  C   UNL     1      -4.803   2.858  25.809  0.00  0.00    +0.188 C 
ATOM     13  O   UNL     1      -4.960   2.048  25.810  0.00  0.00    -0.348 OA
ATOM     14  C   UNL     1      -4.677   1.734  25.102  0.00  0.00    +0.166 C 
ATOM     15  C   UNL     1      -4.599   1.039  24.664  0.00  0.00    +0.157 C 
ATOM     16  C   UNL     1      -4.219   1.224  23.956  0.00  0.00    +0.164 C 
ATOM     17  O   UNL     1      -4.062   2.034  23.956  0.00  0.00    -0.348 OA
ATOM     18  C   UNL     1      -4.345   2.349  24.664  0.00  0.00    +0.186 C 
ENDROOT
BRANCH  11  10
ATOM     10  O   UNL     1      -4.166   3.793  24.872  0.00  0.00    -0.432 OA
BRANCH  10   2
ATOM      1  O   UNL     1      -3.241   4.184  25.887  0.00  0.00    -0.224 OA
ATOM      2  C   UNL     1      -3.417   4.058  25.091  0.00  0.00    +0.425 C 
ATOM      3  N   UNL     1      -2.843   4.198  24.515  0.00  0.00    -0.142 NA
BRANCH   3   4
ATOM      4  C   UNL     1      -2.093   4.463  24.734  0.00  0.00    +0.077 A 
ATOM      5  C   UNL     1      -1.482   3.922  24.853  0.00  0.00    +0.017 A 
ATOM      6  C   UNL     1      -0.733   4.187  25.072  0.00  0.00    +0.001 A 
ATOM      7  C   UNL     1      -0.594   4.994  25.174  0.00  0.00    +0.000 A 
ATOM      8  C   UNL     1      -1.205   5.536  25.056  0.00  0.00    +0.001 A 
ATOM      9  C   UNL     1      -1.955   5.270  24.836  0.00  0.00    +0.017 A 
ENDBRANCH   3   4
ENDBRANCH  10   2
ENDBRANCH  11  10
BRANCH  15  19
ATOM     19  N   UNL     1      -4.856   0.290  24.894  0.00  0.00    -0.074 NA
BRANCH  19  20
ATOM     20  S   UNL     1      -4.370  -0.367  24.781  0.00  0.00    +0.077 S 
ATOM     21  O   UNL     1      -4.599  -0.399  23.988  0.00  0.00    -0.152 OA
ATOM     22  O   UNL     1      -4.141  -0.335  25.573  0.00  0.00    -0.152 OA
BRANCH  20  23
ATOM     23  C   UNL     1      -3.884  -1.024  24.667  0.00  0.00    +0.124 A 
ATOM     24  C   UNL     1      -3.080  -0.979  24.845  0.00  0.00    +0.020 A 
ATOM     25  C   UNL     1      -2.595  -1.636  24.731  0.00  0.00    +0.001 A 
ATOM     26  C   UNL     1      -1.791  -1.591  24.909  0.00  0.00    +0.000 A 
ATOM     27  C   UNL     1      -1.305  -2.248  24.795  0.00  0.00    +0.000 A 
ATOM     28  C   UNL     1      -1.624  -2.951  24.502  0.00  0.00    +0.000 A 
ATOM     29  C   UNL     1      -2.428  -2.996  24.324  0.00  0.00    +0.000 A 
ATOM     30  C   UNL     1      -2.914  -2.339  24.438  0.00  0.00    +0.000 A 
ATOM     31  C   UNL     1      -3.718  -2.384  24.260  0.00  0.00    +0.001 A 
ATOM     32  C   UNL     1      -4.203  -1.727  24.374  0.00  0.00    +0.020 A 
ENDBRANCH  20  23
ENDBRANCH  19  20
ENDBRANCH  15  19
TORSDOF 6
ENDMDL
MODEL 4
REMARK VINA RESULT:     -11.0      2.929      4.922
REMARK  Name = 
REMARK  6 active torsions:
REMARK  status: ('A' for Active; 'I' for Inactive)
REMARK    1  A    between atoms: C_2  and  O_10
REMARK    2  A    between atoms: N_3  and  C_4
REMARK    3  A    between atoms: O_10  and  C_11
REMARK    4  A    between atoms: C_15  and  N_19
REMARK    5  A    between atoms: N_19  and  S_20
REMARK    6  A    between atoms: S_20  and  C_23
REMARK                            x       y       z     vdW  Elec       q    Type
REMARK                         _______ _______ _______ _____ _____    ______ ____
ROOT
ATOM     11  C   UNL     1       0.556   0.056  23.325  0.00  0.00    +0.229 C 
ATOM     12  C   UNL     1       0.636  -0.605  23.813  0.00  0.00    +0.188 C 
ATOM     13  O   UNL     1      -0.035  -0.652  24.291  0.00  0.00    -0.348 OA
ATOM     14  C   UNL     1      -0.529  -0.020  24.098  0.00  0.00    +0.166 C 
ATOM     15  C   UNL     1      -1.249   0.342  24.275  0.00  0.00    +0.157 C 
ATOM     16  C   UNL     1      -1.329   1.003  23.787  0.00  0.00    +0.164 C 
ATOM     17  O   UNL     1      -0.658   1.049  23.309  0.00  0.00    -0.348 OA
ATOM     18  C   UNL     1      -0.164   0.417  23.501  0.00  0.00    +0.186 C 
ENDROOT
BRANCH  11  10
ATOM     10  O   UNL     1       1.101   0.309  22.760  0.00  0.00    -0.432 OA
BRANCH  10   2
ATOM      1  O   UNL     1       2.071   0.930  23.605  0.00  0.00    -0.224 OA
ATOM      2  C   UNL     1       1.888   0.434  22.972  0.00  0.00    +0.425 C 
ATOM      3  N   UNL     1       2.493   0.063  22.552  0.00  0.00    -0.142 NA
BRANCH   3   4
ATOM      4  C   UNL     1       3.280   0.187  22.764  0.00  0.00    +0.077 A 
ATOM      5  C   UNL     1       3.655   0.895  22.565  0.00  0.00    +0.017 A 
ATOM      6  C   UNL     1       4.442   1.020  22.777  0.00  0.00    +0.001 A 
ATOM      7  C   UNL     1       4.855   0.436  23.189  0.00  0.00    +0.000 A 
ATOM      8  C   UNL     1       4.482  -0.272  23.388  0.00  0.00    +0.001 A 
ATOM      9  C   UNL     1       3.694  -0.396  23.175  0.00  0.00    +0.017 A 
ENDBRANCH   3   4
ENDBRANCH  10   2
ENDBRANCH  11  10
BRANCH  15  19
ATOM     19  N   UNL     1      -1.794   0.088  24.839  0.00  0.00    -0.074 NA
BRANCH  19  20
ATOM     20  S   UNL     1      -2.552   0.412  24.857  0.00  0.00    +0.077 S 
ATOM     21  O   UNL     1      -2.802  -0.140  24.297  0.00  0.00    -0.152 OA
ATOM     22  O   UNL     1      -2.302   0.965  25.418  0.00  0.00    -0.152 OA
BRANCH  20  23
ATOM     23  C   UNL     1      -3.311   0.737  24.876  0.00  0.00    +0.124 A 
ATOM     24  C   UNL     1      -3.411   1.545  25.002  0.00  0.00    +0.020 A 
ATOM     25  C   UNL     1      -4.169   1.869  25.020  0.00  0.00    +0.001 A 
ATOM     26  C   UNL     1      -4.269   2.679  25.147  0.00  0.00    +0.000 A 
ATOM     27  C   UNL     1      -5.027   3.002  25.165  0.00  0.00    +0.000 A 
ATOM     28  C   UNL     1      -5.686   2.517  25.056  0.00  0.00    +0.000 A 
ATOM     29  C   UNL     1      -5.586   1.708  24.930  0.00  0.00    +0.000 A 
ATOM     30  C   UNL     1      -4.828   1.384  24.912  0.00  0.00    +0.000 A 
ATOM     31  C   UNL     1      -4.728   0.575  24.785  0.00  0.00    +0.001 A 
ATOM     32  C   UNL     1      -3.970   0.251  24.767  0.00  0.00    +0.020 A 
ENDBRANCH  20  23
ENDBRANCH  19  20
ENDBRANCH  15  19
TORSDOF 6
ENDMDL
MODEL 5
REMARK VINA RESULT:     -10.6      2.344      3.147
REMARK  Name = 
REMARK  6 active torsions:
REMARK  status: ('A' for Active; 'I' for Inactive)
REMARK    1  A    between atoms: C_2  and  O_10
REMARK    2  A    between atoms: N_3  and  C_4
REMARK    3  A    between atoms: O_10  and  C_11
REMARK    4  A    between atoms: C_15  and  N_19
REMARK    5  A    between atoms: N_19  and  S_20
REMARK    6  A    between atoms: S_20  and  C_23
REMARK                            x       y       z     vdW  Elec       q    Type
REMARK                         _______ _______ _______ _____ _____    ______ ____
ROOT
ATOM     11  C   UNL     1      -4.824   0.504  24.780  0.00  0.00    +0.229 C 
ATOM     12  C   UNL     1      -5.041   0.643  25.564  0.00  0.00    +0.188 C 
ATOM     13  O   UNL     1      -4.912   1.441  25.727  0.00  0.00    -0.348 OA
ATOM     14  C   UNL     1      -4.615   1.795  25.044  0.00  0.00    +0.166 C 
ATOM     15  C   UNL     1      -4.351   2.508  24.723  0.00  0.00    +0.157 C 
ATOM     16  C   UNL     1      -4.134   2.370  23.938  0.00  0.00    +0.164 C 
ATOM     17  O   UNL     1      -4.264   1.571  23.776  0.00  0.00    -0.348 OA
ATOM     18  C   UNL     1      -4.561   1.216  24.458  0.00  0.00    +0.186 C 
ENDROOT
BRANCH  11  10
ATOM     10  O   UNL     1      -4.864  -0.221  24.388  0.00  0.00    -0.432 OA
BRANCH  10   2
ATOM      1  O   UNL     1      -4.160  -0.965  25.382  0.00  0.00    -0.224 OA
ATOM      2  C   UNL     1      -4.346  -0.829  24.590  0.00  0.00    +0.425 C 
ATOM      3  N   UNL     1      -4.013  -1.302  24.001  0.00  0.00    -0.142 NA
BRANCH   3   4
ATOM      4  C   UNL     1      -3.495  -1.910  24.204  0.00  0.00    +0.077 A 
ATOM      5  C   UNL     1      -3.786  -2.669  24.350  0.00  0.00    +0.017 A 
ATOM      6  C   UNL     1      -3.268  -3.277  24.552  0.00  0.00    +0.001 A 
ATOM      7  C   UNL     1      -2.458  -3.128  24.609  0.00  0.00    +0.000 A 
ATOM      8  C   UNL     1      -2.167  -2.370  24.464  0.00  0.00    +0.001 A 
ATOM      9  C   UNL     1      -2.686  -1.761  24.261  0.00  0.00    +0.017 A 
ENDBRANCH   3   4
ENDBRANCH  10   2
ENDBRANCH  11  10
BRANCH  15  19
ATOM     19  N   UNL     1      -4.312   3.232  25.115  0.00  0.00    -0.074 NA
BRANCH  19  20
ATOM     20  S   UNL     1      -3.615   3.673  25.100  0.00  0.00    +0.077 S 
ATOM     21  O   UNL     1      -3.817   3.967  24.356  0.00  0.00    -0.152 OA
ATOM     22  O   UNL     1      -3.413   3.379  25.844  0.00  0.00    -0.152 OA
BRANCH  20  23
ATOM     23  C   UNL     1      -2.917   4.114  25.085  0.00  0.00    +0.124 A 
ATOM     24  C   UNL     1      -2.202   3.750  24.896  0.00  0.00    +0.020 A 
ATOM     25  C   UNL     1      -1.506   4.191  24.881  0.00  0.00    +0.001 A 
ATOM     26  C   UNL     1      -0.790   3.827  24.692  0.00  0.00    +0.000 A 
ATOM     27  C   UNL     1      -0.094   4.268  24.677  0.00  0.00    +0.000 A 
ATOM     28  C   UNL     1      -0.113   5.075  24.851  0.00  0.00    +0.000 A 
ATOM     29  C   UNL     1      -0.828   5.439  25.040  0.00  0.00    +0.000 A 
ATOM     30  C   UNL     1      -1.525   4.998  25.055  0.00  0.00    +0.000 A 
ATOM     31  C   UNL     1      -2.240   5.362  25.244  0.00  0.00    +0.001 A 
ATOM     32  C   UNL     1      -2.936   4.921  25.259  0.00  0.00    +0.020 A 
ENDBRANCH  20  23
ENDBRANCH  19  20
ENDBRANCH  15  19
TORSDOF 6
ENDMDL
MODEL 6
REMARK VINA RESULT:     -10.6      2.898      5.913
REMARK  Name = 
REMARK  6 active torsions:
REMARK  status: ('A' for Active; 'I' for Inactive)
REMARK    1  A    between atoms: C_2  and  O_10
REMARK    2  A    between atoms: N_3  and  C_4
REMARK    3  A    between atoms: O_10  and  C_11
REMARK    4  A    between atoms: C_15  and  N_19
REMARK    5  A    between atoms: N_19  and  S_20
REMARK    6  A    between atoms: S_20  and  C_23
REMARK                            x       y       z     vdW  Elec       q    Type
REMARK                         _______ _______ _______ _____ _____    ______ ____
ROOT
ATOM     11  C   UNL     1       1.575   0.689  23.185  0.00  0.00    +0.229 C 
ATOM     12  C   UNL     1       1.474   1.411  23.571  0.00  0.00    +0.188 C 
ATOM     13  O   UNL     1       0.772   1.373  24.003  0.00  0.00    -0.348 OA
ATOM     14  C   UNL     1       0.439   0.628  23.884  0.00  0.00    +0.166 C 
ATOM     15  C   UNL     1      -0.200   0.144  24.076  0.00  0.00    +0.157 C 
ATOM     16  C   UNL     1      -0.100  -0.579  23.690  0.00  0.00    +0.164 C 
ATOM     17  O   UNL     1       0.602  -0.540  23.258  0.00  0.00    -0.348 OA
ATOM     18  C   UNL     1       0.936   0.205  23.378  0.00  0.00    +0.186 C 
ENDROOT
BRANCH  11  10
ATOM     10  O   UNL     1       2.205   0.488  22.692  0.00  0.00    -0.432 OA
BRANCH  10   2
ATOM      1  O   UNL     1       3.279   1.206  23.300  0.00  0.00    -0.224 OA
ATOM      2  C   UNL     1       2.977   0.508  22.980  0.00  0.00    +0.425 C 
ATOM      3  N   UNL     1       3.448  -0.169  22.948  0.00  0.00    -0.142 NA
BRANCH   3   4
ATOM      4  C   UNL     1       4.220  -0.148  23.236  0.00  0.00    +0.077 A 
ATOM      5  C   UNL     1       4.471  -0.709  23.788  0.00  0.00    +0.017 A 
ATOM      6  C   UNL     1       5.243  -0.688  24.075  0.00  0.00    +0.001 A 
ATOM      7  C   UNL     1       5.766  -0.107  23.812  0.00  0.00    +0.000 A 
ATOM      8  C   UNL     1       5.517   0.454  23.261  0.00  0.00    +0.001 A 
ATOM      9  C   UNL     1       4.743   0.433  22.973  0.00  0.00    +0.017 A 
ENDBRANCH   3   4
ENDBRANCH  10   2
ENDBRANCH  11  10
BRANCH  15  19
ATOM     19  N   UNL     1      -0.830   0.346  24.569  0.00  0.00    -0.074 NA
BRANCH  19  20
ATOM     20  S   UNL     1      -1.560  -0.029  24.481  0.00  0.00    +0.077 S 
ATOM     21  O   UNL     1      -1.763   0.505  23.886  0.00  0.00    -0.152 OA
ATOM     22  O   UNL     1      -1.357  -0.563  25.077  0.00  0.00    -0.152 OA
BRANCH  20  23
ATOM     23  C   UNL     1      -2.290  -0.404  24.394  0.00  0.00    +0.124 A 
ATOM     24  C   UNL     1      -2.340  -1.225  24.439  0.00  0.00    +0.020 A 
ATOM     25  C   UNL     1      -3.070  -1.599  24.351  0.00  0.00    +0.001 A 
ATOM     26  C   UNL     1      -3.121  -2.422  24.396  0.00  0.00    +0.000 A 
ATOM     27  C   UNL     1      -3.850  -2.796  24.309  0.00  0.00    +0.000 A 
ATOM     28  C   UNL     1      -4.531  -2.347  24.176  0.00  0.00    +0.000 A 
ATOM     29  C   UNL     1      -4.480  -1.525  24.131  0.00  0.00    +0.000 A 
ATOM     30  C   UNL     1      -3.750  -1.151  24.219  0.00  0.00    +0.000 A 
ATOM     31  C   UNL     1      -3.700  -0.329  24.174  0.00  0.00    +0.001 A 
ATOM     32  C   UNL     1      -2.971   0.045  24.261  0.00  0.00    +0.020 A 
ENDBRANCH  20  23
ENDBRANCH  19  20
ENDBRANCH  15  19
TORSDOF 6
ENDMDL
MODEL 7
REMARK VINA RESULT:     -10.4      1.768      5.409
REMARK  Name = 
REMARK  6 active torsions:
REMARK  status: ('A' for Active; 'I' for Inactive)
REMARK    1  A    between atoms: C_2  and  O_10
REMARK    2  A    between atoms: N_3  and  C_4
REMARK    3  A    between atoms: O_10  and  C_11
REMARK    4  A    between atoms: C_15  and  N_19
REMARK    5  A    between atoms: N_19  and  S_20
REMARK    6  A    between atoms: S_20  and  C_23
REMARK                            x       y       z     vdW  Elec       q    Type
REMARK                         _______ _______ _______ _____ _____    ______ ____
ROOT
ATOM     11  C   UNL     1      -1.684   3.000  25.251  0.00  0.00    +0.229 C 
ATOM     12  C   UNL     1      -1.374   2.790  25.986  0.00  0.00    +0.188 C 
ATOM     13  O   UNL     1      -1.008   2.055  25.908  0.00  0.00    -0.348 OA
ATOM     14  C   UNL     1      -1.092   1.811  25.125  0.00  0.00    +0.166 C 
ATOM     15  C   UNL     1      -0.918   1.205  24.592  0.00  0.00    +0.157 C 
ATOM     16  C   UNL     1      -1.228   1.415  23.856  0.00  0.00    +0.164 C 
ATOM     17  O   UNL     1      -1.594   2.150  23.935  0.00  0.00    -0.348 OA
ATOM     18  C   UNL     1      -1.510   2.395  24.718  0.00  0.00    +0.186 C 
ENDROOT
BRANCH  11  10
ATOM     10  O   UNL     1      -2.096   3.694  25.080  0.00  0.00    -0.432 OA
BRANCH  10   2
ATOM      1  O   UNL     1      -3.007   4.050  26.120  0.00  0.00    -0.224 OA
ATOM      2  C   UNL     1      -2.869   3.793  25.348  0.00  0.00    +0.425 C 
ATOM      3  N   UNL     1      -3.504   3.634  24.846  0.00  0.00    -0.142 NA
BRANCH   3   4
ATOM      4  C   UNL     1      -4.277   3.732  25.115  0.00  0.00    +0.077 A 
ATOM      5  C   UNL     1      -4.606   4.488  25.159  0.00  0.00    +0.017 A 
ATOM      6  C   UNL     1      -5.379   4.586  25.428  0.00  0.00    +0.001 A 
ATOM      7  C   UNL     1      -5.825   3.929  25.653  0.00  0.00    +0.000 A 
ATOM      8  C   UNL     1      -5.497   3.174  25.609  0.00  0.00    +0.001 A 
ATOM      9  C   UNL     1      -4.722   3.075  25.340  0.00  0.00    +0.017 A 
ENDBRANCH   3   4
ENDBRANCH  10   2
ENDBRANCH  11  10
BRANCH  15  19
ATOM     19  N   UNL     1      -0.506   0.512  24.763  0.00  0.00    -0.074 NA
BRANCH  19  20
ATOM     20  S   UNL     1      -0.889  -0.218  24.718  0.00  0.00    +0.077 S 
ATOM     21  O   UNL     1      -0.828  -0.198  23.895  0.00  0.00    -0.152 OA
ATOM     22  O   UNL     1      -0.950  -0.237  25.541  0.00  0.00    -0.152 OA
BRANCH  20  23
ATOM     23  C   UNL     1      -1.271  -0.948  24.672  0.00  0.00    +0.124 A 
ATOM     24  C   UNL     1      -2.094  -0.986  24.712  0.00  0.00    +0.020 A 
ATOM     25  C   UNL     1      -2.475  -1.715  24.666  0.00  0.00    +0.001 A 
ATOM     26  C   UNL     1      -3.298  -1.754  24.705  0.00  0.00    +0.000 A 
ATOM     27  C   UNL     1      -3.680  -2.484  24.660  0.00  0.00    +0.000 A 
ATOM     28  C   UNL     1      -3.238  -3.176  24.575  0.00  0.00    +0.000 A 
ATOM     29  C   UNL     1      -2.415  -3.138  24.535  0.00  0.00    +0.000 A 
ATOM     30  C   UNL     1      -2.033  -2.408  24.581  0.00  0.00    +0.000 A 
ATOM     31  C   UNL     1      -1.211  -2.370  24.542  0.00  0.00    +0.001 A 
ATOM     32  C   UNL     1      -0.829  -1.640  24.587  0.00  0.00    +0.020 A 
ENDBRANCH  20  23
ENDBRANCH  19  20
ENDBRANCH  15  19
TORSDOF 6
ENDMDL
