MODEL 1
REMARK VINA RESULT:     -10.9      0.000      0.000
REMARK  Name = 
REMARK  7 active torsions:
REMARK  status: ('A' for Active; 'I' for Inactive)
REMARK    1  A    between atoms: O_2  and  C_3
REMARK    2  A    between atoms: C_9  and  C_10
REMARK    3  A    between atoms: C_10  and  C_11
REMARK    4  A    between atoms: C_16  and  C_17
REMARK    5  A    between atoms: C_17  and  C_18
REMARK    6  A    between atoms: C_21  and  C_23
REMARK    7  A    between atoms: C_26  and  C_29
REMARK                            x       y       z     vdW  Elec       q    Type
REMARK                         _______ _______ _______ _____ _____    ______ ____
ROOT
ATOM     11  C   UNL     1      -4.019   0.845  24.827  0.00  0.00    +0.026 C 
ATOM     12  C   UNL     1      -3.213   0.985  24.731  0.00  0.00    +0.094 C 
ATOM     13  N   UNL     1      -2.919   1.754  24.789  0.00  0.00    -0.276 N 
ATOM     14  C   UNL     1      -3.432   2.381  24.944  0.00  0.00    +0.094 C 
ATOM     15  C   UNL     1      -4.238   2.241  25.041  0.00  0.00    +0.022 C 
ATOM     16  C   UNL     1      -4.533   1.473  24.982  0.00  0.00    +0.015 C 
ATOM     21  C   UNL     1      -2.111   1.895  24.693  0.00  0.00    +0.249 C 
ATOM     22  O   UNL     1      -1.599   1.267  24.538  0.00  0.00    -0.270 OA
ENDROOT
BRANCH  21  23
ATOM     23  C   UNL     1      -1.817   2.663  24.751  0.00  0.00    +0.054 A 
ATOM     24  C   UNL     1      -1.616   2.973  25.489  0.00  0.00    +0.005 A 
ATOM     25  C   UNL     1      -1.321   3.742  25.548  0.00  0.00    +0.010 A 
ATOM     26  C   UNL     1      -1.229   4.200  24.869  0.00  0.00    +0.068 A 
ATOM     27  C   UNL     1      -1.431   3.891  24.131  0.00  0.00    +0.010 A 
ATOM     28  C   UNL     1      -1.725   3.123  24.072  0.00  0.00    +0.005 A 
BRANCH  26  29
ATOM     29  C   UNL     1      -0.934   4.970  24.928  0.00  0.00    +0.100 C 
ATOM     30  N   UNL     1      -0.640   5.737  24.987  0.00  0.00    -0.191 NA
ENDBRANCH  26  29
ENDBRANCH  21  23
BRANCH  11  10
ATOM     10  C   UNL     1      -4.314   0.077  24.769  0.00  0.00    +0.047 C 
BRANCH  10   9
ATOM      3  C   UNL     1      -3.735  -2.779  24.165  0.00  0.00    +0.138 A 
ATOM      4  C   UNL     1      -3.452  -2.644  24.928  0.00  0.00    +0.033 A 
ATOM      5  C   UNL     1      -3.526  -1.896  25.270  0.00  0.00    -0.016 A 
ATOM      6  C   UNL     1      -3.884  -1.283  24.849  0.00  0.00    +0.009 A 
ATOM      7  C   UNL     1      -4.167  -1.418  24.085  0.00  0.00    +0.004 A 
ATOM      8  C   UNL     1      -4.093  -2.165  23.743  0.00  0.00    +0.037 A 
ATOM      9  C   UNL     1      -3.957  -0.536  25.190  0.00  0.00    +0.053 C 
ATOM     31  N   UNL     1      -3.674  -0.402  25.953  0.00  0.00    -0.274 NA
ATOM     32  C   UNL     1      -3.317  -1.015  26.374  0.00  0.00    +0.130 C 
ATOM     33  C   UNL     1      -3.243  -1.762  26.033  0.00  0.00    +0.053 C 
BRANCH   3   2
ATOM      1  C   UNL     1      -2.953  -3.747  23.466  0.00  0.00    +0.252 C 
ATOM      2  O   UNL     1      -3.662  -3.525  23.823  0.00  0.00    -0.471 OA
ENDBRANCH   3   2
ENDBRANCH  10   9
ENDBRANCH  11  10
BRANCH  16  17
ATOM     17  C   UNL     1      -5.340   1.332  25.079  0.00  0.00    +0.114 C 
BRANCH  17  18
ATOM     18  C   UNL     1      -5.848   1.955  25.259  0.00  0.00    +0.365 C 
ATOM     19  O   UNL     1      -6.244   2.354  24.655  0.00  0.00    -0.246 OA
ATOM     20  O   UNL     1      -5.962   2.180  26.046  0.00  0.00    -0.246 OA
ENDBRANCH  17  18
ENDBRANCH  16  17
TORSDOF 7
ENDMDL
MODEL 2
REMARK VINA RESULT:     -10.0      1.467      5.275
REMARK  Name = 
REMARK  7 active torsions:
REMARK  status: ('A' for Active; 'I' for Inactive)
REMARK    1  A    between atoms: O_2  and  C_3
REMARK    2  A    between atoms: C_9  and  C_10
REMARK    3  A    between atoms: C_10  and  C_11
REMARK    4  A    between atoms: C_16  and  C_17
REMARK    5  A    between atoms: C_17  and  C_18
REMARK    6  A    between atoms: C_21  and  C_23
REMARK    7  A    between atoms: C_26  and  C_29
REMARK                            x       y       z     vdW  Elec       q    Type
REMARK                         _______ _______ _______ _____ _____    ______ ____
ROOT
ATOM     11  C   UNL     1      -4.326   1.984  25.273  0.00  0.00    +0.026 C 
ATOM     12  C   UNL     1      -3.718   1.486  25.027  0.00  0.00    +0.094 C 
ATOM     13  N   UNL     1      -3.860   0.679  24.928  0.00  0.00    -0.276 N 
ATOM     14  C   UNL     1      -4.611   0.371  25.074  0.00  0.00    +0.094 C 
ATOM     15  C   UNL     1      -5.220   0.870  25.320  0.00  0.00    +0.022 C 
ATOM     16  C   UNL     1      -5.078   1.676  25.420  0.00  0.00    +0.015 C 
ATOM     21  C   UNL     1      -3.250   0.180  24.682  0.00  0.00    +0.249 C 
ATOM     22  O   UNL     1      -2.499   0.488  24.535  0.00  0.00    -0.270 OA
ENDROOT
BRANCH  21  23
ATOM     23  C   UNL     1      -3.393  -0.626  24.582  0.00  0.00    +0.054 A 
ATOM     24  C   UNL     1      -3.173  -1.159  25.172  0.00  0.00    +0.005 A 
ATOM     25  C   UNL     1      -3.315  -1.967  25.073  0.00  0.00    +0.010 A 
ATOM     26  C   UNL     1      -3.677  -2.239  24.384  0.00  0.00    +0.068 A 
ATOM     27  C   UNL     1      -3.896  -1.706  23.794  0.00  0.00    +0.010 A 
ATOM     28  C   UNL     1      -3.754  -0.900  23.893  0.00  0.00    +0.005 A 
BRANCH  26  29
ATOM     29  C   UNL     1      -3.819  -3.047  24.284  0.00  0.00    +0.100 C 
ATOM     30  N   UNL     1      -3.961  -3.853  24.185  0.00  0.00    -0.191 NA
ENDBRANCH  26  29
ENDBRANCH  21  23
BRANCH  11  10
ATOM     10  C   UNL     1      -4.185   2.791  25.373  0.00  0.00    +0.047 C 
BRANCH  10   9
ATOM      3  C   UNL     1      -1.958   4.755  25.190  0.00  0.00    +0.138 A 
ATOM      4  C   UNL     1      -2.269   4.689  24.428  0.00  0.00    +0.033 A 
ATOM      5  C   UNL     1      -2.904   4.182  24.283  0.00  0.00    -0.016 A 
ATOM      6  C   UNL     1      -3.228   3.739  24.901  0.00  0.00    +0.009 A 
ATOM      7  C   UNL     1      -2.916   3.805  25.662  0.00  0.00    +0.004 A 
ATOM      8  C   UNL     1      -2.282   4.312  25.807  0.00  0.00    +0.037 A 
ATOM      9  C   UNL     1      -3.862   3.233  24.756  0.00  0.00    +0.053 C 
ATOM     31  N   UNL     1      -4.172   3.167  23.995  0.00  0.00    -0.274 NA
ATOM     32  C   UNL     1      -3.848   3.610  23.378  0.00  0.00    +0.130 C 
ATOM     33  C   UNL     1      -3.214   4.117  23.522  0.00  0.00    +0.053 C 
BRANCH   3   2
ATOM      1  C   UNL     1      -0.599   5.131  24.964  0.00  0.00    +0.252 C 
ATOM      2  O   UNL     1      -1.324   5.261  25.334  0.00  0.00    -0.471 OA
ENDBRANCH   3   2
ENDBRANCH  10   9
ENDBRANCH  11  10
BRANCH  16  17
ATOM     17  C   UNL     1      -5.688   2.175  25.666  0.00  0.00    +0.114 C 
BRANCH  17  18
ATOM     18  C   UNL     1      -6.423   1.860  25.865  0.00  0.00    +0.365 C 
ATOM     19  O   UNL     1      -6.987   1.723  25.277  0.00  0.00    -0.246 OA
ATOM     20  O   UNL     1      -6.596   1.681  26.652  0.00  0.00    -0.246 OA
ENDBRANCH  17  18
ENDBRANCH  16  17
TORSDOF 7
ENDMDL
MODEL 3
REMARK VINA RESULT:      -9.3      2.109      6.047
REMARK  Name = 
REMARK  7 active torsions:
REMARK  status: ('A' for Active; 'I' for Inactive)
REMARK    1  A    between atoms: O_2  and  C_3
REMARK    2  A    between atoms: C_9  and  C_10
REMARK    3  A    between atoms: C_10  and  C_11
REMARK    4  A    between atoms: C_16  and  C_17
REMARK    5  A    between atoms: C_17  and  C_18
REMARK    6  A    between atoms: C_21  and  C_23
REMARK    7  A    between atoms: C_26  and  C_29
REMARK                            x       y       z     vdW  Elec       q    Type
REMARK                         _______ _______ _______ _____ _____    ______ ____
ROOT
ATOM     11  C   UNL     1      -0.653   1.016  24.171  0.00  0.00    +0.026 C 
ATOM     12  C   UNL     1      -1.424   0.896  24.435  0.00  0.00    +0.094 C 
ATOM     13  N   UNL     1      -1.774   0.152  24.361  0.00  0.00    -0.276 N 
ATOM     14  C   UNL     1      -1.352  -0.471  24.022  0.00  0.00    +0.094 C 
ATOM     15  C   UNL     1      -0.580  -0.350  23.758  0.00  0.00    +0.022 C 
ATOM     16  C   UNL     1      -0.230   0.393  23.832  0.00  0.00    +0.015 C 
ATOM     21  C   UNL     1      -2.546   0.031  24.625  0.00  0.00    +0.249 C 
ATOM     22  O   UNL     1      -2.968   0.654  24.963  0.00  0.00    -0.270 OA
ENDROOT
BRANCH  21  23
ATOM     23  C   UNL     1      -2.896  -0.712  24.551  0.00  0.00    +0.054 A 
ATOM     24  C   UNL     1      -3.422  -0.861  23.933  0.00  0.00    +0.005 A 
ATOM     25  C   UNL     1      -3.772  -1.605  23.858  0.00  0.00    +0.010 A 
ATOM     26  C   UNL     1      -3.595  -2.199  24.402  0.00  0.00    +0.068 A 
ATOM     27  C   UNL     1      -3.069  -2.051  25.020  0.00  0.00    +0.010 A 
ATOM     28  C   UNL     1      -2.720  -1.308  25.094  0.00  0.00    +0.005 A 
BRANCH  26  29
ATOM     29  C   UNL     1      -3.945  -2.943  24.327  0.00  0.00    +0.100 C 
ATOM     30  N   UNL     1      -4.295  -3.686  24.253  0.00  0.00    -0.191 NA
ENDBRANCH  26  29
ENDBRANCH  21  23
BRANCH  11  10
ATOM     10  C   UNL     1      -0.303   1.759  24.244  0.00  0.00    +0.047 C 
BRANCH  10   9
ATOM      3  C   UNL     1      -0.960   4.550  25.040  0.00  0.00    +0.138 A 
ATOM      4  C   UNL     1      -0.773   4.150  25.738  0.00  0.00    +0.033 A 
ATOM      5  C   UNL     1      -0.562   3.353  25.714  0.00  0.00    -0.016 A 
ATOM      6  C   UNL     1      -0.538   2.954  24.991  0.00  0.00    +0.009 A 
ATOM      7  C   UNL     1      -0.724   3.354  24.293  0.00  0.00    +0.004 A 
ATOM      8  C   UNL     1      -0.935   4.151  24.317  0.00  0.00    +0.037 A 
ATOM      9  C   UNL     1      -0.327   2.158  24.967  0.00  0.00    +0.053 C 
ATOM     31  N   UNL     1      -0.141   1.759  25.664  0.00  0.00    -0.274 NA
ATOM     32  C   UNL     1      -0.165   2.158  26.387  0.00  0.00    +0.130 C 
ATOM     33  C   UNL     1      -0.376   2.954  26.411  0.00  0.00    +0.053 C 
BRANCH   3   2
ATOM      1  C   UNL     1      -1.965   5.562  25.106  0.00  0.00    +0.252 C 
ATOM      2  O   UNL     1      -1.170   5.347  25.064  0.00  0.00    -0.471 OA
ENDBRANCH   3   2
ENDBRANCH  10   9
ENDBRANCH  11  10
BRANCH  16  17
ATOM     17  C   UNL     1       0.542   0.514  23.568  0.00  0.00    +0.114 C 
BRANCH  17  18
ATOM     18  C   UNL     1       0.922  -0.068  23.124  0.00  0.00    +0.365 C 
ATOM     19  O   UNL     1       0.880  -0.054  22.300  0.00  0.00    -0.246 OA
ATOM     20  O   UNL     1       1.344  -0.667  23.505  0.00  0.00    -0.246 OA
ENDBRANCH  17  18
ENDBRANCH  16  17
TORSDOF 7
ENDMDL
MODEL 4
REMARK VINA RESULT:      -8.3      1.693      3.023
REMARK  Name = 
REMARK  7 active torsions:
REMARK  status: ('A' for Active; 'I' for Inactive)
REMARK    1  A    between atoms: O_2  and  C_3
REMARK    2  A    between atoms: C_9  and  C_10
REMARK    3  A    between atoms: C_10  and  C_11
REMARK    4  A    between atoms: C_16  and  C_17
REMARK    5  A    between atoms: C_17  and  C_18
REMARK    6  A    between atoms: C_21  and  C_23
REMARK    7  A    between atoms: C_26  and  C_29
REMARK                            x       y       z     vdW  Elec       q    Type
REMARK                         _______ _______ _______ _____ _____    ______ ____
ROOT
ATOM     11  C   UNL     1      -1.188   0.182  24.475  0.00  0.00    +0.026 C 
ATOM     12  C   UNL     1      -1.754   0.721  24.737  0.00  0.00    +0.094 C 
ATOM     13  N   UNL     1      -1.582   1.528  24.749  0.00  0.00    -0.276 N 
ATOM     14  C   UNL     1      -0.842   1.795  24.499  0.00  0.00    +0.094 C 
ATOM     15  C   UNL     1      -0.276   1.256  24.238  0.00  0.00    +0.022 C 
ATOM     16  C   UNL     1      -0.448   0.450  24.225  0.00  0.00    +0.015 C 
ATOM     21  C   UNL     1      -2.149   2.067  25.011  0.00  0.00    +0.249 C 
ATOM     22  O   UNL     1      -2.888   1.799  25.261  0.00  0.00    -0.270 OA
ENDROOT
BRANCH  21  23
ATOM     23  C   UNL     1      -1.976   2.873  25.023  0.00  0.00    +0.054 A 
ATOM     24  C   UNL     1      -2.196   3.351  24.388  0.00  0.00    +0.005 A 
ATOM     25  C   UNL     1      -2.023   4.159  24.400  0.00  0.00    +0.010 A 
ATOM     26  C   UNL     1      -1.631   4.486  25.047  0.00  0.00    +0.068 A 
ATOM     27  C   UNL     1      -1.412   4.008  25.683  0.00  0.00    +0.010 A 
ATOM     28  C   UNL     1      -1.584   3.202  25.670  0.00  0.00    +0.005 A 
BRANCH  26  29
ATOM     29  C   UNL     1      -1.458   5.294  25.059  0.00  0.00    +0.100 C 
ATOM     30  N   UNL     1      -1.286   6.100  25.071  0.00  0.00    -0.191 NA
ENDBRANCH  26  29
ENDBRANCH  21  23
BRANCH  11  10
ATOM     10  C   UNL     1      -1.360  -0.624  24.462  0.00  0.00    +0.047 C 
BRANCH  10   9
ATOM      3  C   UNL     1      -3.668  -2.502  24.464  0.00  0.00    +0.138 A 
ATOM      4  C   UNL     1      -3.520  -2.319  25.255  0.00  0.00    +0.033 A 
ATOM      5  C   UNL     1      -2.907  -1.804  25.453  0.00  0.00    -0.016 A 
ATOM      6  C   UNL     1      -2.440  -1.471  24.859  0.00  0.00    +0.009 A 
ATOM      7  C   UNL     1      -2.587  -1.655  24.068  0.00  0.00    +0.004 A 
ATOM      8  C   UNL     1      -3.200  -2.170  23.870  0.00  0.00    +0.037 A 
ATOM      9  C   UNL     1      -1.827  -0.957  25.056  0.00  0.00    +0.053 C 
ATOM     31  N   UNL     1      -1.680  -0.774  25.846  0.00  0.00    -0.274 NA
ATOM     32  C   UNL     1      -2.147  -1.106  26.441  0.00  0.00    +0.130 C 
ATOM     33  C   UNL     1      -2.760  -1.621  26.243  0.00  0.00    +0.053 C 
BRANCH   3   2
ATOM      1  C   UNL     1      -4.669  -2.938  23.543  0.00  0.00    +0.252 C 
ATOM      2  O   UNL     1      -4.281  -3.017  24.267  0.00  0.00    -0.471 OA
ENDBRANCH   3   2
ENDBRANCH  10   9
ENDBRANCH  11  10
BRANCH  16  17
ATOM     17  C   UNL     1       0.119  -0.089  23.963  0.00  0.00    +0.114 C 
BRANCH  17  18
ATOM     18  C   UNL     1       0.654   0.128  23.375  0.00  0.00    +0.365 C 
ATOM     19  O   UNL     1       1.308   0.594  23.563  0.00  0.00    -0.246 OA
ATOM     20  O   UNL     1       0.534  -0.120  22.596  0.00  0.00    -0.246 OA
ENDBRANCH  17  18
ENDBRANCH  16  17
TORSDOF 7
ENDMDL
MODEL 5
REMARK VINA RESULT:      -8.2      2.632      4.228
REMARK  Name = 
REMARK  7 active torsions:
REMARK  status: ('A' for Active; 'I' for Inactive)
REMARK    1  A    between atoms: O_2  and  C_3
REMARK    2  A    between atoms: C_9  and  C_10
REMARK    3  A    between atoms: C_10  and  C_11
REMARK    4  A    between atoms: C_16  and  C_17
REMARK    5  A    between atoms: C_17  and  C_18
REMARK    6  A    between atoms: C_21  and  C_23
REMARK    7  A    between atoms: C_26  and  C_29
REMARK                            x       y       z     vdW  Elec       q    Type
REMARK                         _______ _______ _______ _____ _____    ______ ____
ROOT
ATOM     11  C   UNL     1      -1.802   0.573  24.494  0.00  0.00    +0.026 C 
ATOM     12  C   UNL     1      -1.995   1.351  24.300  0.00  0.00    +0.094 C 
ATOM     13  N   UNL     1      -2.691   1.688  24.588  0.00  0.00    -0.276 N 
ATOM     14  C   UNL     1      -3.194   1.245  25.069  0.00  0.00    +0.094 C 
ATOM     15  C   UNL     1      -3.002   0.468  25.263  0.00  0.00    +0.022 C 
ATOM     16  C   UNL     1      -2.306   0.131  24.976  0.00  0.00    +0.015 C 
ATOM     21  C   UNL     1      -2.884   2.466  24.393  0.00  0.00    +0.249 C 
ATOM     22  O   UNL     1      -2.381   2.907  23.911  0.00  0.00    -0.270 OA
ENDROOT
BRANCH  21  23
ATOM     23  C   UNL     1      -3.580   2.802  24.681  0.00  0.00    +0.054 A 
ATOM     24  C   UNL     1      -3.561   3.273  25.358  0.00  0.00    +0.005 A 
ATOM     25  C   UNL     1      -4.258   3.610  25.647  0.00  0.00    +0.010 A 
ATOM     26  C   UNL     1      -4.972   3.475  25.257  0.00  0.00    +0.068 A 
ATOM     27  C   UNL     1      -4.991   3.004  24.580  0.00  0.00    +0.010 A 
ATOM     28  C   UNL     1      -4.295   2.668  24.292  0.00  0.00    +0.005 A 
BRANCH  26  29
ATOM     29  C   UNL     1      -5.669   3.812  25.545  0.00  0.00    +0.100 C 
ATOM     30  N   UNL     1      -6.365   4.147  25.833  0.00  0.00    -0.191 NA
ENDBRANCH  26  29
ENDBRANCH  21  23
BRANCH  11  10
ATOM     10  C   UNL     1      -1.106   0.236  24.206  0.00  0.00    +0.047 C 
BRANCH  10   9
ATOM      3  C   UNL     1       1.450   0.108  22.689  0.00  0.00    +0.138 A 
ATOM      4  C   UNL     1       1.542   0.712  23.243  0.00  0.00    +0.033 A 
ATOM      5  C   UNL     1       0.927   0.896  23.761  0.00  0.00    -0.016 A 
ATOM      6  C   UNL     1       0.217   0.474  23.725  0.00  0.00    +0.009 A 
ATOM      7  C   UNL     1       0.125  -0.130  23.171  0.00  0.00    +0.004 A 
ATOM      8  C   UNL     1       0.741  -0.314  22.653  0.00  0.00    +0.037 A 
ATOM      9  C   UNL     1      -0.398   0.658  24.242  0.00  0.00    +0.053 C 
ATOM     31  N   UNL     1      -0.305   1.262  24.796  0.00  0.00    -0.274 NA
ATOM     32  C   UNL     1       0.404   1.683  24.832  0.00  0.00    +0.130 C 
ATOM     33  C   UNL     1       1.019   1.500  24.315  0.00  0.00    +0.053 C 
BRANCH   3   2
ATOM      1  C   UNL     1       2.846   0.079  22.388  0.00  0.00    +0.252 C 
ATOM      2  O   UNL     1       2.065  -0.076  22.172  0.00  0.00    -0.471 OA
ENDBRANCH   3   2
ENDBRANCH  10   9
ENDBRANCH  11  10
BRANCH  16  17
ATOM     17  C   UNL     1      -2.113  -0.647  25.170  0.00  0.00    +0.114 C 
BRANCH  17  18
ATOM     18  C   UNL     1      -2.702  -1.169  25.415  0.00  0.00    +0.365 C 
ATOM     19  O   UNL     1      -2.911  -1.211  26.212  0.00  0.00    -0.246 OA
ATOM     20  O   UNL     1      -3.084  -1.650  24.862  0.00  0.00    -0.246 OA
ENDBRANCH  17  18
ENDBRANCH  16  17
TORSDOF 7
ENDMDL
MODEL 6
REMARK VINA RESULT:      -8.1      2.932      4.899
REMARK  Name = 
REMARK  7 active torsions:
REMARK  status: ('A' for Active; 'I' for Inactive)
REMARK    1  A    between atoms: O_2  and  C_3
REMARK    2  A    between atoms: C_9  and  C_10
REMARK    3  A    between atoms: C_10  and  C_11
REMARK    4  A    between atoms: C_16  and  C_17
REMARK    5  A    between atoms: C_17  and  C_18
REMARK    6  A    between atoms: C_21  and  C_23
REMARK    7  A    between atoms: C_26  and  C_29
REMARK                            x       y       z     vdW  Elec       q    Type
REMARK                         _______ _______ _______ _____ _____    ______ ____
ROOT
ATOM     11  C   UNL     1      -0.752   1.618  24.423  0.00  0.00    +0.026 C 
ATOM     12  C   UNL     1      -1.427   1.449  23.981  0.00  0.00    +0.094 C 
ATOM     13  N   UNL     1      -2.175   1.594  24.298  0.00  0.00    -0.276 N 
ATOM     14  C   UNL     1      -2.247   1.909  25.057  0.00  0.00    +0.094 C 
ATOM     15  C   UNL     1      -1.572   2.078  25.499  0.00  0.00    +0.022 C 
ATOM     16  C   UNL     1      -0.824   1.933  25.183  0.00  0.00    +0.015 C 
ATOM     21  C   UNL     1      -2.851   1.425  23.856  0.00  0.00    +0.249 C 
ATOM     22  O   UNL     1      -2.778   1.110  23.097  0.00  0.00    -0.270 OA
ENDROOT
BRANCH  21  23
ATOM     23  C   UNL     1      -3.598   1.570  24.173  0.00  0.00    +0.054 A 
ATOM     24  C   UNL     1      -4.001   0.970  24.571  0.00  0.00    +0.005 A 
ATOM     25  C   UNL     1      -4.749   1.115  24.889  0.00  0.00    +0.010 A 
ATOM     26  C   UNL     1      -5.093   1.860  24.807  0.00  0.00    +0.068 A 
ATOM     27  C   UNL     1      -4.690   2.460  24.409  0.00  0.00    +0.010 A 
ATOM     28  C   UNL     1      -3.943   2.315  24.092  0.00  0.00    +0.005 A 
BRANCH  26  29
ATOM     29  C   UNL     1      -5.841   2.006  25.125  0.00  0.00    +0.100 C 
ATOM     30  N   UNL     1      -6.589   2.150  25.442  0.00  0.00    -0.191 NA
ENDBRANCH  26  29
ENDBRANCH  21  23
BRANCH  11  10
ATOM     10  C   UNL     1      -0.004   1.473  24.107  0.00  0.00    +0.047 C 
BRANCH  10   9
ATOM      3  C   UNL     1       2.346   0.321  22.691  0.00  0.00    +0.138 A 
ATOM      4  C   UNL     1       1.837  -0.311  22.843  0.00  0.00    +0.033 A 
ATOM      5  C   UNL     1       1.122  -0.182  23.235  0.00  0.00    -0.016 A 
ATOM      6  C   UNL     1       0.916   0.581  23.475  0.00  0.00    +0.009 A 
ATOM      7  C   UNL     1       1.424   1.213  23.323  0.00  0.00    +0.004 A 
ATOM      8  C   UNL     1       2.139   1.084  22.931  0.00  0.00    +0.037 A 
ATOM      9  C   UNL     1       0.202   0.711  23.866  0.00  0.00    +0.053 C 
ATOM     31  N   UNL     1      -0.306   0.079  24.018  0.00  0.00    -0.274 NA
ATOM     32  C   UNL     1      -0.100  -0.683  23.778  0.00  0.00    +0.130 C 
ATOM     33  C   UNL     1       0.614  -0.813  23.386  0.00  0.00    +0.053 C 
BRANCH   3   2
ATOM      1  C   UNL     1       3.741   0.587  22.542  0.00  0.00    +0.252 C 
ATOM      2  O   UNL     1       3.059   0.191  22.300  0.00  0.00    -0.471 OA
ENDBRANCH   3   2
ENDBRANCH  10   9
ENDBRANCH  11  10
BRANCH  16  17
ATOM     17  C   UNL     1      -0.149   2.102  25.625  0.00  0.00    +0.114 C 
BRANCH  17  18
ATOM     18  C   UNL     1      -0.185   2.652  26.238  0.00  0.00    +0.365 C 
ATOM     19  O   UNL     1      -0.202   2.396  27.022  0.00  0.00    -0.246 OA
ATOM     20  O   UNL     1      -0.203   3.460  26.067  0.00  0.00    -0.246 OA
ENDBRANCH  17  18
ENDBRANCH  16  17
TORSDOF 7
ENDMDL
MODEL 7
REMARK VINA RESULT:      -8.0      1.749      5.644
REMARK  Name = 
REMARK  7 active torsions:
REMARK  status: ('A' for Active; 'I' for Inactive)
REMARK    1  A    between atoms: O_2  and  C_3
REMARK    2  A    between atoms: C_9  and  C_10
REMARK    3  A    between atoms: C_10  and  C_11
REMARK    4  A    between atoms: C_16  and  C_17
REMARK    5  A    between atoms: C_17  and  C_18
REMARK    6  A    between atoms: C_21  and  C_23
REMARK    7  A    between atoms: C_26  and  C_29
REMARK                            x       y       z     vdW  Elec       q    Type
REMARK                         _______ _______ _______ _____ _____    ______ ____
ROOT
ATOM     11  C   UNL     1      -2.539   1.555  24.791  0.00  0.00    +0.026 C 
ATOM     12  C   UNL     1      -3.220   1.091  24.805  0.00  0.00    +0.094 C 
ATOM     13  N   UNL     1      -3.164   0.273  24.709  0.00  0.00    -0.276 N 
ATOM     14  C   UNL     1      -2.426  -0.080  24.600  0.00  0.00    +0.094 C 
ATOM     15  C   UNL     1      -1.745   0.384  24.586  0.00  0.00    +0.022 C 
ATOM     16  C   UNL     1      -1.801   1.202  24.682  0.00  0.00    +0.015 C 
ATOM     21  C   UNL     1      -3.846  -0.192  24.723  0.00  0.00    +0.249 C 
ATOM     22  O   UNL     1      -4.583   0.162  24.833  0.00  0.00    -0.270 OA
ENDROOT
BRANCH  21  23
ATOM     23  C   UNL     1      -3.789  -1.009  24.627  0.00  0.00    +0.054 A 
ATOM     24  C   UNL     1      -3.989  -1.354  23.905  0.00  0.00    +0.005 A 
ATOM     25  C   UNL     1      -3.933  -2.172  23.809  0.00  0.00    +0.010 A 
ATOM     26  C   UNL     1      -3.677  -2.644  24.436  0.00  0.00    +0.068 A 
ATOM     27  C   UNL     1      -3.477  -2.298  25.158  0.00  0.00    +0.010 A 
ATOM     28  C   UNL     1      -3.534  -1.482  25.253  0.00  0.00    +0.005 A 
BRANCH  26  29
ATOM     29  C   UNL     1      -3.621  -3.462  24.340  0.00  0.00    +0.100 C 
ATOM     30  N   UNL     1      -3.565  -4.279  24.243  0.00  0.00    -0.191 NA
ENDBRANCH  26  29
ENDBRANCH  21  23
BRANCH  11  10
ATOM     10  C   UNL     1      -2.594   2.372  24.887  0.00  0.00    +0.047 C 
BRANCH  10   9
ATOM      3  C   UNL     1      -4.862   4.210  25.462  0.00  0.00    +0.138 A 
ATOM      4  C   UNL     1      -4.794   4.180  24.640  0.00  0.00    +0.033 A 
ATOM      5  C   UNL     1      -4.210   3.714  24.290  0.00  0.00    -0.016 A 
ATOM      6  C   UNL     1      -3.694   3.276  24.763  0.00  0.00    +0.009 A 
ATOM      7  C   UNL     1      -3.762   3.306  25.585  0.00  0.00    +0.004 A 
ATOM      8  C   UNL     1      -4.346   3.773  25.935  0.00  0.00    +0.037 A 
ATOM      9  C   UNL     1      -3.110   2.810  24.414  0.00  0.00    +0.053 C 
ATOM     31  N   UNL     1      -3.042   2.780  23.593  0.00  0.00    -0.274 NA
ATOM     32  C   UNL     1      -3.559   3.218  23.120  0.00  0.00    +0.130 C 
ATOM     33  C   UNL     1      -4.142   3.684  23.469  0.00  0.00    +0.053 C 
BRANCH   3   2
ATOM      1  C   UNL     1      -6.231   4.426  25.807  0.00  0.00    +0.252 C 
ATOM      2  O   UNL     1      -5.446   4.677  25.811  0.00  0.00    -0.471 OA
ENDBRANCH   3   2
ENDBRANCH  10   9
ENDBRANCH  11  10
BRANCH  16  17
ATOM     17  C   UNL     1      -1.119   1.666  24.668  0.00  0.00    +0.114 C 
BRANCH  17  18
ATOM     18  C   UNL     1      -0.385   1.326  24.826  0.00  0.00    +0.365 C 
ATOM     19  O   UNL     1       0.087   1.054  24.205  0.00  0.00    -0.246 OA
ATOM     20  O   UNL     1      -0.122   1.256  25.605  0.00  0.00    -0.246 OA
ENDBRANCH  17  18
ENDBRANCH  16  17
TORSDOF 7
ENDMDL
