MODEL 1
REMARK VINA RESULT:     -10.5      0.000      0.000
REMARK  Name = 
REMARK  7 active torsions:
REMARK  status: ('A' for Active; 'I' for Inactive)
REMARK    1  A    between atoms: S_2  and  N_4
REMARK    2  A    between atoms: S_2  and  C_25
REMARK    3  A    between atoms: N_4  and  C_5
REMARK    4  A    between atoms: C_9  and  N_13
REMARK    5  A    between atoms: C_17  and  O_18
REMARK    6  A    between atoms: O_18  and  C_19
REMARK    7  A    between atoms: C_30  and  C_31
REMARK                            x       y       z     vdW  Elec       q    Type
REMARK                         _______ _______ _______ _____ _____    ______ ____
ROOT
ATOM      5  C   UNL     1      -0.622   1.998  25.025  0.00  0.00    +0.157 C 
ATOM      6  C   UNL     1      -0.636   1.732  25.806  0.00  0.00    +0.164 C 
ATOM      7  O   UNL     1      -0.623   0.908  25.794  0.00  0.00    -0.350 OA
ATOM      8  C   UNL     1      -0.600   0.664  25.007  0.00  0.00    +0.169 C 
ATOM      9  C   UNL     1      -0.579   0.004  24.512  0.00  0.00    +0.170 C 
ATOM     10  C   UNL     1      -0.564   0.270  23.732  0.00  0.00    +0.169 C 
ATOM     11  O   UNL     1      -0.577   1.094  23.744  0.00  0.00    -0.350 OA
ATOM     12  C   UNL     1      -0.600   1.338  24.532  0.00  0.00    +0.164 C 
ENDROOT
BRANCH   9  13
ATOM     13  N   UNL     1      -0.572  -0.784  24.756  0.00  0.00    -0.180 N 
ATOM     14  N   UNL     1       0.079  -1.195  25.054  0.00  0.00    -0.040 NA
ATOM     15  N   UNL     1      -0.162  -1.964  25.227  0.00  0.00    -0.020 NA
ATOM     16  N   UNL     1      -0.962  -2.030  25.036  0.00  0.00    -0.071 NA
ATOM     17  C   UNL     1      -1.215  -1.300  24.746  0.00  0.00    +0.343 A 
BRANCH  17  18
ATOM     18  O   UNL     1      -1.978  -1.119  24.489  0.00  0.00    -0.421 OA
BRANCH  18  19
ATOM     19  C   UNL     1      -2.596  -1.649  24.625  0.00  0.00    +0.149 A 
ATOM     20  C   UNL     1      -2.751  -2.250  24.082  0.00  0.00    +0.038 A 
ATOM     21  C   UNL     1      -3.368  -2.780  24.218  0.00  0.00    +0.003 A 
ATOM     22  C   UNL     1      -3.831  -2.709  24.897  0.00  0.00    +0.000 A 
ATOM     23  C   UNL     1      -3.677  -2.107  25.441  0.00  0.00    +0.003 A 
ATOM     24  C   UNL     1      -3.059  -1.577  25.304  0.00  0.00    +0.038 A 
ENDBRANCH  18  19
ENDBRANCH  17  18
ENDBRANCH   9  13
BRANCH   5   4
ATOM      4  N   UNL     1      -0.628   2.787  24.781  0.00  0.00    -0.074 NA
BRANCH   4   2
ATOM      1  O   UNL     1      -1.636   3.215  24.377  0.00  0.00    -0.152 OA
ATOM      2  S   UNL     1      -1.201   3.304  25.073  0.00  0.00    +0.078 S 
ATOM      3  O   UNL     1      -0.766   3.395  25.768  0.00  0.00    -0.152 OA
BRANCH   2  25
ATOM     25  C   UNL     1      -1.773   3.822  25.363  0.00  0.00    +0.133 A 
ATOM     26  C   UNL     1      -2.442   3.525  25.746  0.00  0.00    +0.021 A 
ATOM     27  C   UNL     1      -3.015   4.042  26.036  0.00  0.00    +0.001 A 
ATOM     28  C   UNL     1      -2.920   4.857  25.945  0.00  0.00    +0.001 A 
ATOM     29  C   UNL     1      -2.252   5.153  25.563  0.00  0.00    +0.012 A 
ATOM     30  C   UNL     1      -1.679   4.636  25.272  0.00  0.00    +0.087 A 
BRANCH  30  31
ATOM     31  C   UNL     1      -1.010   4.934  24.890  0.00  0.00    +0.102 C 
ATOM     32  N   UNL     1      -0.343   5.231  24.508  0.00  0.00    -0.191 NA
ENDBRANCH  30  31
ENDBRANCH   2  25
ENDBRANCH   4   2
ENDBRANCH   5   4
TORSDOF 7
ENDMDL
MODEL 2
REMARK VINA RESULT:     -10.2      2.349      5.979
REMARK  Name = 
REMARK  7 active torsions:
REMARK  status: ('A' for Active; 'I' for Inactive)
REMARK    1  A    between atoms: S_2  and  N_4
REMARK    2  A    between atoms: S_2  and  C_25
REMARK    3  A    between atoms: N_4  and  C_5
REMARK    4  A    between atoms: C_9  and  N_13
REMARK    5  A    between atoms: C_17  and  O_18
REMARK    6  A    between atoms: O_18  and  C_19
REMARK    7  A    between atoms: C_30  and  C_31
REMARK                            x       y       z     vdW  Elec       q    Type
REMARK                         _______ _______ _______ _____ _____    ______ ____
ROOT
ATOM      5  C   UNL     1      -3.829   0.227  24.363  0.00  0.00    +0.157 C 
ATOM      6  C   UNL     1      -3.492   0.442  23.642  0.00  0.00    +0.164 C 
ATOM      7  O   UNL     1      -3.529   1.264  23.580  0.00  0.00    -0.350 OA
ATOM      8  C   UNL     1      -3.887   1.556  24.262  0.00  0.00    +0.169 C 
ATOM      9  C   UNL     1      -4.132   2.244  24.646  0.00  0.00    +0.170 C 
ATOM     10  C   UNL     1      -4.469   2.029  25.367  0.00  0.00    +0.169 C 
ATOM     11  O   UNL     1      -4.433   1.207  25.429  0.00  0.00    -0.350 OA
ATOM     12  C   UNL     1      -4.073   0.915  24.746  0.00  0.00    +0.164 C 
ENDROOT
BRANCH   9  13
ATOM     13  N   UNL     1      -4.053   3.014  24.358  0.00  0.00    -0.180 N 
ATOM     14  N   UNL     1      -4.545   3.378  23.804  0.00  0.00    -0.040 NA
ATOM     15  N   UNL     1      -4.264   4.143  23.678  0.00  0.00    -0.020 NA
ATOM     16  N   UNL     1      -3.600   4.252  24.153  0.00  0.00    -0.071 NA
ATOM     17  C   UNL     1      -3.469   3.554  24.573  0.00  0.00    +0.343 A 
BRANCH  17  18
ATOM     18  O   UNL     1      -2.860   3.421  25.115  0.00  0.00    -0.421 OA
BRANCH  18  19
ATOM     19  C   UNL     1      -2.176   3.882  25.089  0.00  0.00    +0.149 A 
ATOM     20  C   UNL     1      -2.189   4.655  25.376  0.00  0.00    +0.038 A 
ATOM     21  C   UNL     1      -1.506   5.116  25.350  0.00  0.00    +0.003 A 
ATOM     22  C   UNL     1      -0.809   4.804  25.036  0.00  0.00    +0.000 A 
ATOM     23  C   UNL     1      -0.796   4.030  24.748  0.00  0.00    +0.003 A 
ATOM     24  C   UNL     1      -1.480   3.570  24.775  0.00  0.00    +0.038 A 
ENDBRANCH  18  19
ENDBRANCH  17  18
ENDBRANCH   9  13
BRANCH   5   4
ATOM      4  N   UNL     1      -3.908  -0.543  24.651  0.00  0.00    -0.074 NA
BRANCH   4   2
ATOM      1  O   UNL     1      -3.275  -1.021  25.507  0.00  0.00    -0.152 OA
ATOM      2  S   UNL     1      -3.251  -1.041  24.682  0.00  0.00    +0.078 S 
ATOM      3  O   UNL     1      -3.226  -1.062  23.858  0.00  0.00    -0.152 OA
BRANCH   2  25
ATOM     25  C   UNL     1      -2.594  -1.539  24.715  0.00  0.00    +0.133 A 
ATOM     26  C   UNL     1      -1.849  -1.229  24.887  0.00  0.00    +0.021 A 
ATOM     27  C   UNL     1      -1.193  -1.727  24.920  0.00  0.00    +0.001 A 
ATOM     28  C   UNL     1      -1.280  -2.535  24.780  0.00  0.00    +0.001 A 
ATOM     29  C   UNL     1      -2.025  -2.845  24.608  0.00  0.00    +0.012 A 
ATOM     30  C   UNL     1      -2.682  -2.348  24.575  0.00  0.00    +0.087 A 
BRANCH  30  31
ATOM     31  C   UNL     1      -3.427  -2.658  24.403  0.00  0.00    +0.102 C 
ATOM     32  N   UNL     1      -4.171  -2.969  24.231  0.00  0.00    -0.191 NA
ENDBRANCH  30  31
ENDBRANCH   2  25
ENDBRANCH   4   2
ENDBRANCH   5   4
TORSDOF 7
ENDMDL
MODEL 3
REMARK VINA RESULT:     -10.1      1.335      5.290
REMARK  Name = 
REMARK  7 active torsions:
REMARK  status: ('A' for Active; 'I' for Inactive)
REMARK    1  A    between atoms: S_2  and  N_4
REMARK    2  A    between atoms: S_2  and  C_25
REMARK    3  A    between atoms: N_4  and  C_5
REMARK    4  A    between atoms: C_9  and  N_13
REMARK    5  A    between atoms: C_17  and  O_18
REMARK    6  A    between atoms: O_18  and  C_19
REMARK    7  A    between atoms: C_30  and  C_31
REMARK                            x       y       z     vdW  Elec       q    Type
REMARK                         _______ _______ _______ _____ _____    ______ ____
ROOT
ATOM      5  C   UNL     1      -1.211  -0.313  25.049  0.00  0.00    +0.157 C 
ATOM      6  C   UNL     1      -1.435  -0.174  25.831  0.00  0.00    +0.164 C 
ATOM      7  O   UNL     1      -1.101   0.543  26.067  0.00  0.00    -0.350 OA
ATOM      8  C   UNL     1      -0.671   0.846  25.432  0.00  0.00    +0.169 C 
ATOM      9  C   UNL     1      -0.199   1.475  25.184  0.00  0.00    +0.170 C 
ATOM     10  C   UNL     1       0.024   1.336  24.402  0.00  0.00    +0.169 C 
ATOM     11  O   UNL     1      -0.310   0.620  24.167  0.00  0.00    -0.350 OA
ATOM     12  C   UNL     1      -0.740   0.316  24.803  0.00  0.00    +0.164 C 
ENDROOT
BRANCH   9  13
ATOM     13  N   UNL     1       0.012   2.131  25.639  0.00  0.00    -0.180 N 
ATOM     14  N   UNL     1       0.563   2.137  26.253  0.00  0.00    -0.040 NA
ATOM     15  N   UNL     1       0.601   2.905  26.553  0.00  0.00    -0.020 NA
ATOM     16  N   UNL     1       0.074   3.372  26.125  0.00  0.00    -0.071 NA
ATOM     17  C   UNL     1      -0.290   2.894  25.560  0.00  0.00    +0.343 A 
BRANCH  17  18
ATOM     18  O   UNL     1      -0.857   3.137  25.011  0.00  0.00    -0.421 OA
BRANCH  18  19
ATOM     19  C   UNL     1      -1.223   3.872  25.095  0.00  0.00    +0.149 A 
ATOM     20  C   UNL     1      -1.952   3.928  25.476  0.00  0.00    +0.038 A 
ATOM     21  C   UNL     1      -2.318   4.663  25.560  0.00  0.00    +0.003 A 
ATOM     22  C   UNL     1      -1.955   5.341  25.261  0.00  0.00    +0.000 A 
ATOM     23  C   UNL     1      -1.225   5.284  24.878  0.00  0.00    +0.003 A 
ATOM     24  C   UNL     1      -0.860   4.549  24.796  0.00  0.00    +0.038 A 
ENDBRANCH  18  19
ENDBRANCH  17  18
ENDBRANCH   9  13
BRANCH   5   4
ATOM      4  N   UNL     1      -1.423  -0.969  24.594  0.00  0.00    -0.074 NA
BRANCH   4   2
ATOM      1  O   UNL     1      -2.171  -0.885  23.703  0.00  0.00    -0.152 OA
ATOM      2  S   UNL     1      -2.219  -1.153  24.481  0.00  0.00    +0.078 S 
ATOM      3  O   UNL     1      -2.268  -1.422  25.260  0.00  0.00    -0.152 OA
BRANCH   2  25
ATOM     25  C   UNL     1      -3.015  -1.337  24.368  0.00  0.00    +0.133 A 
ATOM     26  C   UNL     1      -3.585  -0.741  24.399  0.00  0.00    +0.021 A 
ATOM     27  C   UNL     1      -4.381  -0.925  24.285  0.00  0.00    +0.001 A 
ATOM     28  C   UNL     1      -4.607  -1.705  24.140  0.00  0.00    +0.001 A 
ATOM     29  C   UNL     1      -4.038  -2.300  24.109  0.00  0.00    +0.012 A 
ATOM     30  C   UNL     1      -3.242  -2.117  24.223  0.00  0.00    +0.087 A 
BRANCH  30  31
ATOM     31  C   UNL     1      -2.672  -2.714  24.192  0.00  0.00    +0.102 C 
ATOM     32  N   UNL     1      -2.103  -3.310  24.161  0.00  0.00    -0.191 NA
ENDBRANCH  30  31
ENDBRANCH   2  25
ENDBRANCH   4   2
ENDBRANCH   5   4
TORSDOF 7
ENDMDL
MODEL 4
REMARK VINA RESULT:      -9.3      1.859      2.490
REMARK  Name = 
REMARK  7 active torsions:
REMARK  status: ('A' for Active; 'I' for Inactive)
REMARK    1  A    between atoms: S_2  and  N_4
REMARK    2  A    between atoms: S_2  and  C_25
REMARK    3  A    between atoms: N_4  and  C_5
REMARK    4  A    between atoms: C_9  and  N_13
REMARK    5  A    between atoms: C_17  and  O_18
REMARK    6  A    between atoms: O_18  and  C_19
REMARK    7  A    between atoms: C_30  and  C_31
REMARK                            x       y       z     vdW  Elec       q    Type
REMARK                         _______ _______ _______ _____ _____    ______ ____
ROOT
ATOM      5  C   UNL     1      -2.203   2.521  24.104  0.00  0.00    +0.157 C 
ATOM      6  C   UNL     1      -2.430   2.082  23.444  0.00  0.00    +0.164 C 
ATOM      7  O   UNL     1      -1.861   1.499  23.319  0.00  0.00    -0.350 OA
ATOM      8  C   UNL     1      -1.283   1.576  23.901  0.00  0.00    +0.169 C 
ATOM      9  C   UNL     1      -0.574   1.264  24.184  0.00  0.00    +0.170 C 
ATOM     10  C   UNL     1      -0.346   1.703  24.844  0.00  0.00    +0.169 C 
ATOM     11  O   UNL     1      -0.915   2.287  24.969  0.00  0.00    -0.350 OA
ATOM     12  C   UNL     1      -1.494   2.209  24.387  0.00  0.00    +0.164 C 
ENDROOT
BRANCH   9  13
ATOM     13  N   UNL     1      -0.163   0.624  23.862  0.00  0.00    -0.180 N 
ATOM     14  N   UNL     1       0.345   0.650  23.213  0.00  0.00    -0.040 NA
ATOM     15  N   UNL     1       0.633  -0.112  23.083  0.00  0.00    -0.020 NA
ATOM     16  N   UNL     1       0.303  -0.609  23.652  0.00  0.00    -0.071 NA
ATOM     17  C   UNL     1      -0.189  -0.154  24.134  0.00  0.00    +0.343 A 
BRANCH  17  18
ATOM     18  O   UNL     1      -0.630  -0.430  24.775  0.00  0.00    -0.421 OA
BRANCH  18  19
ATOM     19  C   UNL     1      -0.857  -1.223  24.809  0.00  0.00    +0.149 A 
ATOM     20  C   UNL     1      -0.375  -1.774  25.187  0.00  0.00    +0.038 A 
ATOM     21  C   UNL     1      -0.601  -2.566  25.221  0.00  0.00    +0.003 A 
ATOM     22  C   UNL     1      -1.311  -2.807  24.876  0.00  0.00    +0.000 A 
ATOM     23  C   UNL     1      -1.795  -2.256  24.498  0.00  0.00    +0.003 A 
ATOM     24  C   UNL     1      -1.567  -1.463  24.464  0.00  0.00    +0.038 A 
ENDBRANCH  18  19
ENDBRANCH  17  18
ENDBRANCH   9  13
BRANCH   5   4
ATOM      4  N   UNL     1      -2.613   3.161  24.426  0.00  0.00    -0.074 NA
BRANCH   4   2
ATOM      1  O   UNL     1      -3.648   3.495  24.003  0.00  0.00    -0.152 OA
ATOM      2  S   UNL     1      -3.397   3.071  24.665  0.00  0.00    +0.078 S 
ATOM      3  O   UNL     1      -3.147   2.647  25.327  0.00  0.00    -0.152 OA
BRANCH   2  25
ATOM     25  C   UNL     1      -4.182   2.981  24.904  0.00  0.00    +0.133 A 
ATOM     26  C   UNL     1      -4.674   2.449  24.509  0.00  0.00    +0.021 A 
ATOM     27  C   UNL     1      -5.459   2.359  24.748  0.00  0.00    +0.001 A 
ATOM     28  C   UNL     1      -5.751   2.800  25.380  0.00  0.00    +0.001 A 
ATOM     29  C   UNL     1      -5.259   3.332  25.774  0.00  0.00    +0.012 A 
ATOM     30  C   UNL     1      -4.474   3.423  25.536  0.00  0.00    +0.087 A 
BRANCH  30  31
ATOM     31  C   UNL     1      -3.982   3.955  25.930  0.00  0.00    +0.102 C 
ATOM     32  N   UNL     1      -3.491   4.487  26.324  0.00  0.00    -0.191 NA
ENDBRANCH  30  31
ENDBRANCH   2  25
ENDBRANCH   4   2
ENDBRANCH   5   4
TORSDOF 7
ENDMDL
MODEL 5
REMARK VINA RESULT:      -8.8      1.185      5.291
REMARK  Name = 
REMARK  7 active torsions:
REMARK  status: ('A' for Active; 'I' for Inactive)
REMARK    1  A    between atoms: S_2  and  N_4
REMARK    2  A    between atoms: S_2  and  C_25
REMARK    3  A    between atoms: N_4  and  C_5
REMARK    4  A    between atoms: C_9  and  N_13
REMARK    5  A    between atoms: C_17  and  O_18
REMARK    6  A    between atoms: O_18  and  C_19
REMARK    7  A    between atoms: C_30  and  C_31
REMARK                            x       y       z     vdW  Elec       q    Type
REMARK                         _______ _______ _______ _____ _____    ______ ____
ROOT
ATOM      5  C   UNL     1      -1.153   0.345  24.677  0.00  0.00    +0.157 C 
ATOM      6  C   UNL     1      -1.439   0.680  23.979  0.00  0.00    +0.164 C 
ATOM      7  O   UNL     1      -1.419   1.500  24.064  0.00  0.00    -0.350 OA
ATOM      8  C   UNL     1      -1.121   1.673  24.813  0.00  0.00    +0.169 C 
ATOM      9  C   UNL     1      -0.924   2.285  25.329  0.00  0.00    +0.170 C 
ATOM     10  C   UNL     1      -0.639   1.951  26.027  0.00  0.00    +0.169 C 
ATOM     11  O   UNL     1      -0.659   1.131  25.942  0.00  0.00    -0.350 OA
ATOM     12  C   UNL     1      -0.957   0.959  25.192  0.00  0.00    +0.164 C 
ENDROOT
BRANCH   9  13
ATOM     13  N   UNL     1      -1.000   3.092  25.174  0.00  0.00    -0.180 N 
ATOM     14  N   UNL     1      -0.466   3.558  24.751  0.00  0.00    -0.040 NA
ATOM     15  N   UNL     1      -0.759   4.328  24.731  0.00  0.00    -0.020 NA
ATOM     16  N   UNL     1      -1.475   4.339  25.140  0.00  0.00    -0.071 NA
ATOM     17  C   UNL     1      -1.624   3.576  25.414  0.00  0.00    +0.343 A 
BRANCH  17  18
ATOM     18  O   UNL     1      -2.282   3.337  25.852  0.00  0.00    -0.421 OA
BRANCH  18  19
ATOM     19  C   UNL     1      -3.010   3.709  25.739  0.00  0.00    +0.149 A 
ATOM     20  C   UNL     1      -3.501   3.474  25.120  0.00  0.00    +0.038 A 
ATOM     21  C   UNL     1      -4.228   3.845  25.006  0.00  0.00    +0.003 A 
ATOM     22  C   UNL     1      -4.465   4.452  25.512  0.00  0.00    +0.000 A 
ATOM     23  C   UNL     1      -3.973   4.688  26.132  0.00  0.00    +0.003 A 
ATOM     24  C   UNL     1      -3.246   4.316  26.245  0.00  0.00    +0.038 A 
ENDBRANCH  18  19
ENDBRANCH  17  18
ENDBRANCH   9  13
BRANCH   5   4
ATOM      4  N   UNL     1      -1.077  -0.462  24.832  0.00  0.00    -0.074 NA
BRANCH   4   2
ATOM      1  O   UNL     1      -1.893  -0.903  25.539  0.00  0.00    -0.152 OA
ATOM      2  S   UNL     1      -1.724  -0.964  24.734  0.00  0.00    +0.078 S 
ATOM      3  O   UNL     1      -1.556  -1.025  23.929  0.00  0.00    -0.152 OA
BRANCH   2  25
ATOM     25  C   UNL     1      -2.372  -1.466  24.637  0.00  0.00    +0.133 A 
ATOM     26  C   UNL     1      -3.120  -1.150  24.491  0.00  0.00    +0.021 A 
ATOM     27  C   UNL     1      -3.768  -1.651  24.394  0.00  0.00    +0.001 A 
ATOM     28  C   UNL     1      -3.667  -2.469  24.442  0.00  0.00    +0.001 A 
ATOM     29  C   UNL     1      -2.919  -2.784  24.587  0.00  0.00    +0.012 A 
ATOM     30  C   UNL     1      -2.271  -2.283  24.684  0.00  0.00    +0.087 A 
BRANCH  30  31
ATOM     31  C   UNL     1      -1.523  -2.599  24.830  0.00  0.00    +0.102 C 
ATOM     32  N   UNL     1      -0.775  -2.915  24.974  0.00  0.00    -0.191 NA
ENDBRANCH  30  31
ENDBRANCH   2  25
ENDBRANCH   4   2
ENDBRANCH   5   4
TORSDOF 7
ENDMDL
