MODEL 1
REMARK VINA RESULT:     -10.0      0.000      0.000
REMARK  Name = 
REMARK  10 active torsions:
REMARK  status: ('A' for Active; 'I' for Inactive)
REMARK    1  A    between atoms: N_2  and  C_3
REMARK    2  A    between atoms: C_3  and  C_4
REMARK    3  A    between atoms: C_3  and  C_7
REMARK    4  A    between atoms: N_9  and  C_10
REMARK    5  A    between atoms: C_12  and  C_19
REMARK    6  A    between atoms: N_21  and  C_22
REMARK    7  A    between atoms: C_22  and  C_23
REMARK    8  A    between atoms: C_22  and  C_32
REMARK    9  A    between atoms: C_23  and  C_24
REMARK   10  A    between atoms: C_27  and  O_28
REMARK                            x       y       z     vdW  Elec       q    Type
REMARK                         _______ _______ _______ _____ _____    ______ ____
ROOT
ATOM     10  C   UNL     1      -1.002  -0.253  24.790  0.00  0.00    +0.131 C 
ATOM     11  C   UNL     1      -1.336   0.362  25.227  0.00  0.00    +0.064 C 
ATOM     12  C   UNL     1      -1.027   1.125  25.169  0.00  0.00    +0.200 C 
ATOM     13  O   UNL     1      -1.637   1.257  25.709  0.00  0.00    -0.216 OA
ATOM     14  C   UNL     1      -0.384   1.272  24.674  0.00  0.00    +0.075 C 
ATOM     15  C   UNL     1      -0.049   0.658  24.237  0.00  0.00    +0.187 C 
ATOM     16  O   UNL     1       0.594   0.806  23.742  0.00  0.00    -0.220 OA
ATOM     17  C   UNL     1      -0.359  -0.105  24.295  0.00  0.00    +0.202 C 
ATOM     18  O   UNL     1      -0.024  -0.720  23.859  0.00  0.00    -0.219 OA
ENDROOT
BRANCH  10   9
ATOM      7  C   UNL     1      -2.079  -1.171  24.587  0.00  0.00    +0.257 C 
ATOM      8  O   UNL     1      -2.535  -0.564  24.268  0.00  0.00    -0.272 OA
ATOM      9  N   UNL     1      -1.311  -1.016  24.849  0.00  0.00    -0.203 NA
BRANCH   7   3
ATOM      3  C   UNL     1      -2.388  -1.933  24.645  0.00  0.00    +0.150 C 
BRANCH   3   4
ATOM      4  C   UNL     1      -3.185  -2.043  24.828  0.00  0.00    +0.025 C 
ATOM      5  C   UNL     1      -3.751  -2.031  24.229  0.00  0.00    +0.002 C 
ATOM      6  C   UNL     1      -3.415  -2.165  25.612  0.00  0.00    +0.002 C 
ENDBRANCH   3   4
BRANCH   3   2
ATOM      1  C   UNL     1      -2.168  -3.221  24.066  0.00  0.00    +0.108 C 
ATOM      2  N   UNL     1      -1.900  -2.586  24.521  0.00  0.00    -0.209 NA
ENDBRANCH   3   2
ENDBRANCH   7   3
ENDBRANCH  10   9
BRANCH  12  19
ATOM     19  C   UNL     1      -0.930   1.933  25.299  0.00  0.00    +0.269 C 
ATOM     20  O   UNL     1      -0.308   2.204  25.767  0.00  0.00    -0.271 OA
ATOM     21  N   UNL     1      -1.455   2.471  24.959  0.00  0.00    -0.195 NA
BRANCH  21  22
ATOM     22  C   UNL     1      -1.359   3.280  25.088  0.00  0.00    +0.179 C 
BRANCH  22  32
ATOM     32  C   UNL     1      -0.839   3.714  24.615  0.00  0.00    +0.281 C 
ATOM     33  N   UNL     1      -0.299   4.231  24.963  0.00  0.00    -0.086 NA
ATOM     34  O   UNL     1      -0.859   3.629  23.795  0.00  0.00    -0.270 OA
ENDBRANCH  22  32
BRANCH  22  23
ATOM     23  C   UNL     1      -1.780   3.656  25.688  0.00  0.00    +0.057 C 
BRANCH  23  24
ATOM     24  C   UNL     1      -2.597   3.753  25.620  0.00  0.00    -0.020 A 
ATOM     25  C   UNL     1      -2.942   3.840  24.876  0.00  0.00    -0.001 A 
ATOM     26  C   UNL     1      -3.758   3.937  24.808  0.00  0.00    +0.037 A 
ATOM     27  C   UNL     1      -4.230   3.948  25.485  0.00  0.00    +0.139 A 
ATOM     30  C   UNL     1      -3.886   3.861  26.229  0.00  0.00    +0.037 A 
ATOM     31  C   UNL     1      -3.068   3.764  26.297  0.00  0.00    -0.001 A 
BRANCH  27  28
ATOM     28  O   UNL     1      -5.046   4.045  25.417  0.00  0.00    -0.471 OA
ATOM     29  C   UNL     1      -5.550   3.401  25.538  0.00  0.00    +0.252 C 
ENDBRANCH  27  28
ENDBRANCH  23  24
ENDBRANCH  22  23
ENDBRANCH  21  22
ENDBRANCH  12  19
TORSDOF 10
ENDMDL
MODEL 2
REMARK VINA RESULT:      -9.4      1.322      4.846
REMARK  Name = 
REMARK  10 active torsions:
REMARK  status: ('A' for Active; 'I' for Inactive)
REMARK    1  A    between atoms: N_2  and  C_3
REMARK    2  A    between atoms: C_3  and  C_4
REMARK    3  A    between atoms: C_3  and  C_7
REMARK    4  A    between atoms: N_9  and  C_10
REMARK    5  A    between atoms: C_12  and  C_19
REMARK    6  A    between atoms: N_21  and  C_22
REMARK    7  A    between atoms: C_22  and  C_23
REMARK    8  A    between atoms: C_22  and  C_32
REMARK    9  A    between atoms: C_23  and  C_24
REMARK   10  A    between atoms: C_27  and  O_28
REMARK                            x       y       z     vdW  Elec       q    Type
REMARK                         _______ _______ _______ _____ _____    ______ ____
ROOT
ATOM     10  C   UNL     1      -1.954   2.787  25.083  0.00  0.00    +0.131 C 
ATOM     11  C   UNL     1      -1.834   2.130  24.599  0.00  0.00    +0.064 C 
ATOM     12  C   UNL     1      -1.209   1.612  24.753  0.00  0.00    +0.200 C 
ATOM     13  O   UNL     1      -1.536   1.249  24.088  0.00  0.00    -0.216 OA
ATOM     14  C   UNL     1      -0.706   1.753  25.392  0.00  0.00    +0.075 C 
ATOM     15  C   UNL     1      -0.826   2.410  25.876  0.00  0.00    +0.187 C 
ATOM     16  O   UNL     1      -0.323   2.550  26.514  0.00  0.00    -0.220 OA
ATOM     17  C   UNL     1      -1.451   2.927  25.721  0.00  0.00    +0.202 C 
ATOM     18  O   UNL     1      -1.571   3.584  26.205  0.00  0.00    -0.219 OA
ENDROOT
BRANCH  10   9
ATOM      7  C   UNL     1      -3.357   3.031  24.959  0.00  0.00    +0.257 C 
ATOM      8  O   UNL     1      -3.510   2.243  25.144  0.00  0.00    -0.272 OA
ATOM      9  N   UNL     1      -2.578   3.304  24.928  0.00  0.00    -0.203 NA
BRANCH   7   3
ATOM      3  C   UNL     1      -3.981   3.547  24.805  0.00  0.00    +0.150 C 
BRANCH   3   4
ATOM      4  C   UNL     1      -4.704   3.449  25.191  0.00  0.00    +0.025 C 
ATOM      5  C   UNL     1      -5.192   2.814  24.998  0.00  0.00    +0.002 C 
ATOM      6  C   UNL     1      -4.937   3.989  25.771  0.00  0.00    +0.002 C 
ENDBRANCH   3   4
BRANCH   3   2
ATOM      1  C   UNL     1      -4.231   4.114  23.517  0.00  0.00    +0.108 C 
ATOM      2  N   UNL     1      -3.883   4.162  24.264  0.00  0.00    -0.209 NA
ENDBRANCH   3   2
ENDBRANCH   7   3
ENDBRANCH  10   9
BRANCH  12  19
ATOM     19  C   UNL     1      -0.699   0.969  24.677  0.00  0.00    +0.269 C 
ATOM     20  O   UNL     1       0.087   1.036  24.917  0.00  0.00    -0.271 OA
ATOM     21  N   UNL     1      -0.974   0.259  24.359  0.00  0.00    -0.195 NA
BRANCH  21  22
ATOM     22  C   UNL     1      -0.464  -0.384  24.283  0.00  0.00    +0.179 C 
BRANCH  22  32
ATOM     32  C   UNL     1       0.101  -0.392  23.681  0.00  0.00    +0.281 C 
ATOM     33  N   UNL     1       0.886  -0.579  23.856  0.00  0.00    -0.086 NA
ATOM     34  O   UNL     1      -0.118  -0.214  22.906  0.00  0.00    -0.270 OA
ENDBRANCH  22  32
BRANCH  22  23
ATOM     23  C   UNL     1      -0.518  -1.018  24.806  0.00  0.00    +0.057 C 
BRANCH  23  24
ATOM     24  C   UNL     1      -1.187  -1.502  24.800  0.00  0.00    -0.020 A 
ATOM     25  C   UNL     1      -1.756  -1.428  25.393  0.00  0.00    -0.001 A 
ATOM     26  C   UNL     1      -2.423  -1.912  25.387  0.00  0.00    +0.037 A 
ATOM     27  C   UNL     1      -2.524  -2.470  24.788  0.00  0.00    +0.139 A 
ATOM     30  C   UNL     1      -1.956  -2.544  24.194  0.00  0.00    +0.037 A 
ATOM     31  C   UNL     1      -1.287  -2.060  24.200  0.00  0.00    -0.001 A 
BRANCH  27  28
ATOM     28  O   UNL     1      -3.192  -2.953  24.781  0.00  0.00    -0.471 OA
ATOM     29  C   UNL     1      -3.837  -2.760  24.303  0.00  0.00    +0.252 C 
ENDBRANCH  27  28
ENDBRANCH  23  24
ENDBRANCH  22  23
ENDBRANCH  21  22
ENDBRANCH  12  19
TORSDOF 10
ENDMDL
MODEL 3
REMARK VINA RESULT:      -9.1      1.866      3.401
REMARK  Name = 
REMARK  10 active torsions:
REMARK  status: ('A' for Active; 'I' for Inactive)
REMARK    1  A    between atoms: N_2  and  C_3
REMARK    2  A    between atoms: C_3  and  C_4
REMARK    3  A    between atoms: C_3  and  C_7
REMARK    4  A    between atoms: N_9  and  C_10
REMARK    5  A    between atoms: C_12  and  C_19
REMARK    6  A    between atoms: N_21  and  C_22
REMARK    7  A    between atoms: C_22  and  C_23
REMARK    8  A    between atoms: C_22  and  C_32
REMARK    9  A    between atoms: C_23  and  C_24
REMARK   10  A    between atoms: C_27  and  O_28
REMARK                            x       y       z     vdW  Elec       q    Type
REMARK                         _______ _______ _______ _____ _____    ______ ____
ROOT
ATOM     10  C   UNL     1      -4.274   0.260  24.271  0.00  0.00    +0.131 C 
ATOM     11  C   UNL     1      -3.646   0.735  24.026  0.00  0.00    +0.064 C 
ATOM     12  C   UNL     1      -3.660   1.548  24.174  0.00  0.00    +0.200 C 
ATOM     13  O   UNL     1      -2.935   1.485  23.785  0.00  0.00    -0.216 OA
ATOM     14  C   UNL     1      -4.303   1.883  24.568  0.00  0.00    +0.075 C 
ATOM     15  C   UNL     1      -4.931   1.408  24.813  0.00  0.00    +0.187 C 
ATOM     16  O   UNL     1      -5.574   1.744  25.206  0.00  0.00    -0.220 OA
ATOM     17  C   UNL     1      -4.917   0.596  24.664  0.00  0.00    +0.202 C 
ATOM     18  O   UNL     1      -5.545   0.121  24.910  0.00  0.00    -0.219 OA
ENDROOT
BRANCH  10   9
ATOM      7  C   UNL     1      -3.695  -1.028  24.491  0.00  0.00    +0.257 C 
ATOM      8  O   UNL     1      -3.146  -0.692  25.006  0.00  0.00    -0.272 OA
ATOM      9  N   UNL     1      -4.260  -0.552  24.123  0.00  0.00    -0.203 NA
BRANCH   7   3
ATOM      3  C   UNL     1      -3.680  -1.839  24.343  0.00  0.00    +0.150 C 
BRANCH   3   4
ATOM      4  C   UNL     1      -3.157  -2.325  24.756  0.00  0.00    +0.025 C 
ATOM      5  C   UNL     1      -2.425  -2.518  24.428  0.00  0.00    +0.002 C 
ATOM      6  C   UNL     1      -3.366  -2.618  25.500  0.00  0.00    +0.002 C 
ENDBRANCH   3   4
BRANCH   3   2
ATOM      1  C   UNL     1      -4.297  -2.982  23.748  0.00  0.00    +0.108 C 
ATOM      2  N   UNL     1      -4.188  -2.164  23.781  0.00  0.00    -0.209 NA
ENDBRANCH   3   2
ENDBRANCH   7   3
ENDBRANCH  10   9
BRANCH  12  19
ATOM     19  C   UNL     1      -3.423   2.337  24.187  0.00  0.00    +0.269 C 
ATOM     20  O   UNL     1      -3.665   2.850  23.589  0.00  0.00    -0.271 OA
ATOM     21  N   UNL     1      -2.943   2.613  24.799  0.00  0.00    -0.195 NA
BRANCH  21  22
ATOM     22  C   UNL     1      -2.706   3.403  24.813  0.00  0.00    +0.179 C 
BRANCH  22  32
ATOM     32  C   UNL     1      -3.228   3.986  25.075  0.00  0.00    +0.281 C 
ATOM     33  N   UNL     1      -3.455   4.595  24.567  0.00  0.00    -0.086 NA
ATOM     34  O   UNL     1      -3.524   3.959  25.845  0.00  0.00    -0.270 OA
ENDBRANCH  22  32
BRANCH  22  23
ATOM     23  C   UNL     1      -1.948   3.610  24.565  0.00  0.00    +0.057 C 
BRANCH  23  24
ATOM     24  C   UNL     1      -1.290   3.368  25.002  0.00  0.00    -0.020 A 
ATOM     25  C   UNL     1      -1.276   3.473  25.820  0.00  0.00    -0.001 A 
ATOM     26  C   UNL     1      -0.619   3.231  26.255  0.00  0.00    +0.037 A 
ATOM     27  C   UNL     1       0.025   2.883  25.873  0.00  0.00    +0.139 A 
ATOM     30  C   UNL     1       0.010   2.777  25.055  0.00  0.00    +0.037 A 
ATOM     31  C   UNL     1      -0.648   3.019  24.619  0.00  0.00    -0.001 A 
BRANCH  27  28
ATOM     28  O   UNL     1       0.681   2.640  26.308  0.00  0.00    -0.471 OA
ATOM     29  C   UNL     1       0.585   2.357  27.078  0.00  0.00    +0.252 C 
ENDBRANCH  27  28
ENDBRANCH  23  24
ENDBRANCH  22  23
ENDBRANCH  21  22
ENDBRANCH  12  19
TORSDOF 10
ENDMDL
MODEL 4
REMARK VINA RESULT:      -9.0      1.999      3.082
REMARK  Name = 
REMARK  10 active torsions:
REMARK  status: ('A' for Active; 'I' for Inactive)
REMARK    1  A    between atoms: N_2  and  C_3
REMARK    2  A    between atoms: C_3  and  C_4
REMARK    3  A    between atoms: C_3  and  C_7
REMARK    4  A    between atoms: N_9  and  C_10
REMARK    5  A    between atoms: C_12  and  C_19
REMARK    6  A    between atoms: N_21  and  C_22
REMARK    7  A    between atoms: C_22  and  C_23
REMARK    8  A    between atoms: C_22  and  C_32
REMARK    9  A    between atoms: C_23  and  C_24
REMARK   10  A    between atoms: C_27  and  O_28
REMARK                            x       y       z     vdW  Elec       q    Type
REMARK                         _______ _______ _______ _____ _____    ______ ____
ROOT
ATOM     10  C   UNL     1      -3.584   0.041  23.966  0.00  0.00    +0.131 C 
ATOM     11  C   UNL     1      -4.100   0.373  24.517  0.00  0.00    +0.064 C 
ATOM     12  C   UNL     1      -4.295   1.174  24.469  0.00  0.00    +0.200 C 
ATOM     13  O   UNL     1      -4.737   0.958  25.131  0.00  0.00    -0.216 OA
ATOM     14  C   UNL     1      -3.973   1.642  23.870  0.00  0.00    +0.075 C 
ATOM     15  C   UNL     1      -3.457   1.309  23.319  0.00  0.00    +0.187 C 
ATOM     16  O   UNL     1      -3.135   1.776  22.720  0.00  0.00    -0.220 OA
ATOM     17  C   UNL     1      -3.262   0.508  23.367  0.00  0.00    +0.202 C 
ATOM     18  O   UNL     1      -2.747   0.176  22.816  0.00  0.00    -0.219 OA
ENDROOT
BRANCH  10   9
ATOM      7  C   UNL     1      -2.919  -1.033  24.635  0.00  0.00    +0.257 C 
ATOM      8  O   UNL     1      -2.644  -0.507  25.206  0.00  0.00    -0.272 OA
ATOM      9  N   UNL     1      -3.390  -0.760  24.014  0.00  0.00    -0.203 NA
BRANCH   7   3
ATOM      3  C   UNL     1      -2.725  -1.833  24.683  0.00  0.00    +0.150 C 
BRANCH   3   4
ATOM      4  C   UNL     1      -3.237  -2.361  25.059  0.00  0.00    +0.025 C 
ATOM      5  C   UNL     1      -3.348  -2.319  25.874  0.00  0.00    +0.002 C 
ATOM      6  C   UNL     1      -3.638  -2.931  24.616  0.00  0.00    +0.002 C 
ENDBRANCH   3   4
BRANCH   3   2
ATOM      1  C   UNL     1      -1.368  -2.250  24.843  0.00  0.00    +0.108 C 
ATOM      2  N   UNL     1      -2.019  -2.106  24.356  0.00  0.00    -0.209 NA
ENDBRANCH   3   2
ENDBRANCH   7   3
ENDBRANCH  10   9
BRANCH  12  19
ATOM     19  C   UNL     1      -4.643   1.899  24.651  0.00  0.00    +0.269 C 
ATOM     20  O   UNL     1      -5.323   2.142  24.254  0.00  0.00    -0.271 OA
ATOM     21  N   UNL     1      -4.310   2.382  25.231  0.00  0.00    -0.195 NA
BRANCH  21  22
ATOM     22  C   UNL     1      -4.657   3.108  25.413  0.00  0.00    +0.179 C 
BRANCH  22  32
ATOM     32  C   UNL     1      -5.285   3.141  25.948  0.00  0.00    +0.281 C 
ATOM     33  N   UNL     1      -5.959   3.581  25.765  0.00  0.00    -0.086 NA
ATOM     34  O   UNL     1      -5.240   2.734  26.664  0.00  0.00    -0.270 OA
ENDBRANCH  22  32
BRANCH  22  23
ATOM     23  C   UNL     1      -4.377   3.799  25.063  0.00  0.00    +0.057 C 
BRANCH  23  24
ATOM     24  C   UNL     1      -3.605   4.052  25.207  0.00  0.00    -0.020 A 
ATOM     25  C   UNL     1      -3.274   3.962  25.957  0.00  0.00    -0.001 A 
ATOM     26  C   UNL     1      -2.503   4.214  26.101  0.00  0.00    +0.037 A 
ATOM     27  C   UNL     1      -2.060   4.557  25.495  0.00  0.00    +0.139 A 
ATOM     30  C   UNL     1      -2.391   4.648  24.744  0.00  0.00    +0.037 A 
ATOM     31  C   UNL     1      -3.164   4.395  24.600  0.00  0.00    -0.001 A 
BRANCH  27  28
ATOM     28  O   UNL     1      -1.289   4.810  25.639  0.00  0.00    -0.471 OA
ATOM     29  C   UNL     1      -0.709   4.716  25.058  0.00  0.00    +0.252 C 
ENDBRANCH  27  28
ENDBRANCH  23  24
ENDBRANCH  22  23
ENDBRANCH  21  22
ENDBRANCH  12  19
TORSDOF 10
ENDMDL
MODEL 5
REMARK VINA RESULT:      -9.0      1.752      4.652
REMARK  Name = 
REMARK  10 active torsions:
REMARK  status: ('A' for Active; 'I' for Inactive)
REMARK    1  A    between atoms: N_2  and  C_3
REMARK    2  A    between atoms: C_3  and  C_4
REMARK    3  A    between atoms: C_3  and  C_7
REMARK    4  A    between atoms: N_9  and  C_10
REMARK    5  A    between atoms: C_12  and  C_19
REMARK    6  A    between atoms: N_21  and  C_22
REMARK    7  A    between atoms: C_22  and  C_23
REMARK    8  A    between atoms: C_22  and  C_32
REMARK    9  A    between atoms: C_23  and  C_24
REMARK   10  A    between atoms: C_27  and  O_28
REMARK                            x       y       z     vdW  Elec       q    Type
REMARK                         _______ _______ _______ _____ _____    ______ ____
ROOT
ATOM     10  C   UNL     1      -3.582   2.755  24.074  0.00  0.00    +0.131 C 
ATOM     11  C   UNL     1      -2.947   2.660  24.591  0.00  0.00    +0.064 C 
ATOM     12  C   UNL     1      -2.215   2.406  24.304  0.00  0.00    +0.200 C 
ATOM     13  O   UNL     1      -2.035   2.486  25.105  0.00  0.00    -0.216 OA
ATOM     14  C   UNL     1      -2.121   2.248  23.499  0.00  0.00    +0.075 C 
ATOM     15  C   UNL     1      -2.757   2.344  22.982  0.00  0.00    +0.187 C 
ATOM     16  O   UNL     1      -2.662   2.186  22.178  0.00  0.00    -0.220 OA
ATOM     17  C   UNL     1      -3.488   2.597  23.270  0.00  0.00    +0.202 C 
ATOM     18  O   UNL     1      -4.123   2.692  22.753  0.00  0.00    -0.219 OA
ENDROOT
BRANCH  10   9
ATOM      7  C   UNL     1      -4.734   2.536  24.892  0.00  0.00    +0.257 C 
ATOM      8  O   UNL     1      -4.424   1.812  25.134  0.00  0.00    -0.272 OA
ATOM      9  N   UNL     1      -4.313   3.008  24.362  0.00  0.00    -0.203 NA
BRANCH   7   3
ATOM      3  C   UNL     1      -5.464   2.789  25.180  0.00  0.00    +0.150 C 
BRANCH   3   4
ATOM      4  C   UNL     1      -6.014   2.238  25.454  0.00  0.00    +0.025 C 
ATOM      5  C   UNL     1      -6.551   1.895  24.931  0.00  0.00    +0.002 C 
ATOM      6  C   UNL     1      -6.025   2.030  26.253  0.00  0.00    +0.002 C 
ENDBRANCH   3   4
BRANCH   3   2
ATOM      1  C   UNL     1      -5.837   3.961  25.907  0.00  0.00    +0.108 C 
ATOM      2  N   UNL     1      -5.645   3.593  25.193  0.00  0.00    -0.209 NA
ENDBRANCH   3   2
ENDBRANCH   7   3
ENDBRANCH  10   9
BRANCH  12  19
ATOM     19  C   UNL     1      -1.422   2.181  24.295  0.00  0.00    +0.269 C 
ATOM     20  O   UNL     1      -0.880   2.598  23.835  0.00  0.00    -0.271 OA
ATOM     21  N   UNL     1      -1.172   1.537  24.746  0.00  0.00    -0.195 NA
BRANCH  21  22
ATOM     22  C   UNL     1      -0.378   1.311  24.738  0.00  0.00    +0.179 C 
BRANCH  22  32
ATOM     32  C   UNL     1       0.176   1.736  25.177  0.00  0.00    +0.281 C 
ATOM     33  N   UNL     1       0.867   2.007  24.816  0.00  0.00    -0.086 NA
ATOM     34  O   UNL     1       0.040   1.890  25.976  0.00  0.00    -0.270 OA
ENDBRANCH  22  32
BRANCH  22  23
ATOM     23  C   UNL     1      -0.140   0.661  24.291  0.00  0.00    +0.057 C 
BRANCH  23  24
ATOM     24  C   UNL     1      -0.432  -0.091  24.467  0.00  0.00    -0.020 A 
ATOM     25  C   UNL     1      -0.570  -0.307  25.251  0.00  0.00    -0.001 A 
ATOM     26  C   UNL     1      -0.862  -1.058  25.427  0.00  0.00    +0.037 A 
ATOM     27  C   UNL     1      -1.017  -1.594  24.818  0.00  0.00    +0.139 A 
ATOM     30  C   UNL     1      -0.880  -1.377  24.034  0.00  0.00    +0.037 A 
ATOM     31  C   UNL     1      -0.587  -0.626  23.858  0.00  0.00    -0.001 A 
BRANCH  27  28
ATOM     28  O   UNL     1      -1.310  -2.344  24.994  0.00  0.00    -0.471 OA
ATOM     29  C   UNL     1      -2.036  -2.587  24.685  0.00  0.00    +0.252 C 
ENDBRANCH  27  28
ENDBRANCH  23  24
ENDBRANCH  22  23
ENDBRANCH  21  22
ENDBRANCH  12  19
TORSDOF 10
ENDMDL
MODEL 6
REMARK VINA RESULT:      -8.8      1.806      5.758
REMARK  Name = 
REMARK  10 active torsions:
REMARK  status: ('A' for Active; 'I' for Inactive)
REMARK    1  A    between atoms: N_2  and  C_3
REMARK    2  A    between atoms: C_3  and  C_4
REMARK    3  A    between atoms: C_3  and  C_7
REMARK    4  A    between atoms: N_9  and  C_10
REMARK    5  A    between atoms: C_12  and  C_19
REMARK    6  A    between atoms: N_21  and  C_22
REMARK    7  A    between atoms: C_22  and  C_23
REMARK    8  A    between atoms: C_22  and  C_32
REMARK    9  A    between atoms: C_23  and  C_24
REMARK   10  A    between atoms: C_27  and  O_28
REMARK                            x       y       z     vdW  Elec       q    Type
REMARK                         _______ _______ _______ _____ _____    ______ ____
ROOT
ATOM     10  C   UNL     1      -3.441   2.949  24.814  0.00  0.00    +0.131 C 
ATOM     11  C   UNL     1      -3.150   2.182  24.728  0.00  0.00    +0.064 C 
ATOM     12  C   UNL     1      -3.658   1.536  24.808  0.00  0.00    +0.200 C 
ATOM     13  O   UNL     1      -2.949   1.144  24.650  0.00  0.00    -0.216 OA
ATOM     14  C   UNL     1      -4.457   1.659  24.975  0.00  0.00    +0.075 C 
ATOM     15  C   UNL     1      -4.748   2.426  25.061  0.00  0.00    +0.187 C 
ATOM     16  O   UNL     1      -5.546   2.548  25.228  0.00  0.00    -0.220 OA
ATOM     17  C   UNL     1      -4.240   3.071  24.981  0.00  0.00    +0.202 C 
ATOM     18  O   UNL     1      -4.531   3.838  25.067  0.00  0.00    -0.219 OA
ENDROOT
BRANCH  10   9
ATOM      7  C   UNL     1      -2.283   3.673  25.237  0.00  0.00    +0.257 C 
ATOM      8  O   UNL     1      -2.142   3.107  25.818  0.00  0.00    -0.272 OA
ATOM      9  N   UNL     1      -2.933   3.595  24.734  0.00  0.00    -0.203 NA
BRANCH   7   3
ATOM      3  C   UNL     1      -1.775   4.318  25.156  0.00  0.00    +0.150 C 
BRANCH   3   4
ATOM      4  C   UNL     1      -0.981   4.197  24.965  0.00  0.00    +0.025 C 
ATOM      5  C   UNL     1      -0.693   4.434  24.230  0.00  0.00    +0.002 C 
ATOM      6  C   UNL     1      -0.476   3.839  25.512  0.00  0.00    +0.002 C 
ENDBRANCH   3   4
BRANCH   3   2
ATOM      1  C   UNL     1      -1.573   5.731  25.115  0.00  0.00    +0.108 C 
ATOM      2  N   UNL     1      -2.061   5.083  25.267  0.00  0.00    -0.209 NA
ENDBRANCH   3   2
ENDBRANCH   7   3
ENDBRANCH  10   9
BRANCH  12  19
ATOM     19  C   UNL     1      -3.919   0.755  24.834  0.00  0.00    +0.269 C 
ATOM     20  O   UNL     1      -4.624   0.568  25.219  0.00  0.00    -0.271 OA
ATOM     21  N   UNL     1      -3.476   0.159  24.474  0.00  0.00    -0.195 NA
BRANCH  21  22
ATOM     22  C   UNL     1      -3.737  -0.623  24.499  0.00  0.00    +0.179 C 
BRANCH  22  32
ATOM     32  C   UNL     1      -4.221  -0.915  23.898  0.00  0.00    +0.281 C 
ATOM     33  N   UNL     1      -4.904  -1.336  24.087  0.00  0.00    -0.086 NA
ATOM     34  O   UNL     1      -4.020  -0.786  23.108  0.00  0.00    -0.270 OA
ENDBRANCH  22  32
BRANCH  22  23
ATOM     23  C   UNL     1      -3.515  -1.112  25.125  0.00  0.00    +0.057 C 
BRANCH  23  24
ATOM     24  C   UNL     1      -2.781  -1.488  25.114  0.00  0.00    -0.020 A 
ATOM     25  C   UNL     1      -2.162  -1.199  25.576  0.00  0.00    -0.001 A 
ATOM     26  C   UNL     1      -1.429  -1.576  25.566  0.00  0.00    +0.037 A 
ATOM     27  C   UNL     1      -1.313  -2.242  25.092  0.00  0.00    +0.139 A 
ATOM     30  C   UNL     1      -1.932  -2.531  24.630  0.00  0.00    +0.037 A 
ATOM     31  C   UNL     1      -2.666  -2.154  24.640  0.00  0.00    -0.001 A 
BRANCH  27  28
ATOM     28  O   UNL     1      -0.580  -2.618  25.081  0.00  0.00    -0.471 OA
ATOM     29  C   UNL     1       0.095  -2.215  25.336  0.00  0.00    +0.252 C 
ENDBRANCH  27  28
ENDBRANCH  23  24
ENDBRANCH  22  23
ENDBRANCH  21  22
ENDBRANCH  12  19
TORSDOF 10
ENDMDL
