MODEL 1
REMARK VINA RESULT:     -11.0      0.000      0.000
REMARK  Name = 
REMARK  6 active torsions:
REMARK  status: ('A' for Active; 'I' for Inactive)
REMARK    1  A    between atoms: O_2  and  C_3
REMARK    2  A    between atoms: C_3  and  C_4
REMARK    3  A    between atoms: C_10  and  C_13
REMARK    4  A    between atoms: C_16  and  C_18
REMARK    5  A    between atoms: N_22  and  C_23
REMARK    6  A    between atoms: C_23  and  C_24
REMARK                            x       y       z     vdW  Elec       q    Type
REMARK                         _______ _______ _______ _____ _____    ______ ____
ROOT
ATOM     13  C   UNL     1      -1.114   0.032  24.555  0.00  0.00    +0.205 A 
ATOM     14  N   UNL     1      -1.253  -0.153  25.347  0.00  0.00    -0.056 NA
ATOM     15  O   UNL     1      -2.053  -0.340  25.428  0.00  0.00    -0.336 OA
ATOM     16  C   UNL     1      -2.407  -0.270  24.686  0.00  0.00    +0.251 A 
ATOM     17  N   UNL     1      -1.827  -0.040  24.147  0.00  0.00    -0.190 NA
ENDROOT
BRANCH  13  10
ATOM      4  C   UNL     1       2.240   0.354  22.839  0.00  0.00    +0.277 C 
ATOM      5  O   UNL     1       1.964  -0.418  22.751  0.00  0.00    -0.270 OA
ATOM      6  N   UNL     1       1.789   0.907  23.253  0.00  0.00    -0.158 NA
ATOM      7  C   UNL     1       1.063   0.689  23.579  0.00  0.00    +0.155 A 
ATOM      8  N   UNL     1       0.613   1.242  23.992  0.00  0.00    -0.227 NA
ATOM      9  C   UNL     1      -0.113   1.024  24.318  0.00  0.00    +0.103 A 
ATOM     10  C   UNL     1      -0.388   0.252  24.230  0.00  0.00    +0.058 A 
ATOM     11  C   UNL     1       0.062  -0.303  23.816  0.00  0.00    +0.008 A 
ATOM     12  C   UNL     1       0.788  -0.083  23.491  0.00  0.00    +0.036 A 
BRANCH   4   3
ATOM      3  C   UNL     1       2.965   0.572  22.514  0.00  0.00    +0.229 C 
BRANCH   3   2
ATOM      1  C   UNL     1       4.383   0.614  22.686  0.00  0.00    +0.175 C 
ATOM      2  O   UNL     1       3.662   0.226  22.789  0.00  0.00    -0.342 OA
ENDBRANCH   3   2
ENDBRANCH   4   3
ENDBRANCH  13  10
BRANCH  16  18
ATOM     18  C   UNL     1      -3.203  -0.406  24.513  0.00  0.00    +0.138 C 
ATOM     19  C   UNL     1      -3.546  -1.140  24.358  0.00  0.00    +0.027 C 
ATOM     20  C   UNL     1      -4.350  -1.020  24.214  0.00  0.00    +0.019 C 
ATOM     21  C   UNL     1      -4.502  -0.212  24.281  0.00  0.00    +0.073 C 
ATOM     22  N   UNL     1      -3.794   0.168  24.466  0.00  0.00    -0.263 NA
BRANCH  22  23
ATOM     23  C   UNL     1      -3.694   0.978  24.583  0.00  0.00    +0.101 C 
BRANCH  23  24
ATOM     24  C   UNL     1      -4.320   1.434  24.865  0.00  0.00    +0.012 A 
ATOM     25  C   UNL     1      -5.065   1.153  25.085  0.00  0.00    +0.073 A 
ATOM     26  N   UNL     1      -5.517   1.797  25.331  0.00  0.00    -0.324 N 
ATOM     27  C   UNL     1      -6.298   1.767  25.599  0.00  0.00    +0.130 C 
ATOM     28  C   UNL     1      -5.054   2.475  25.264  0.00  0.00    +0.060 A 
ATOM     29  C   UNL     1      -4.314   2.251  24.976  0.00  0.00    +0.015 A 
ATOM     30  C   UNL     1      -3.730   2.821  24.851  0.00  0.00    +0.001 A 
ATOM     31  C   UNL     1      -3.885   3.614  25.015  0.00  0.00    +0.000 A 
ATOM     32  C   UNL     1      -4.625   3.838  25.304  0.00  0.00    +0.001 A 
ATOM     33  C   UNL     1      -5.210   3.269  25.428  0.00  0.00    +0.017 A 
ENDBRANCH  23  24
ENDBRANCH  22  23
ENDBRANCH  16  18
TORSDOF 6
ENDMDL
MODEL 2
REMARK VINA RESULT:     -10.7      0.916      1.239
REMARK  Name = 
REMARK  6 active torsions:
REMARK  status: ('A' for Active; 'I' for Inactive)
REMARK    1  A    between atoms: O_2  and  C_3
REMARK    2  A    between atoms: C_3  and  C_4
REMARK    3  A    between atoms: C_10  and  C_13
REMARK    4  A    between atoms: C_16  and  C_18
REMARK    5  A    between atoms: N_22  and  C_23
REMARK    6  A    between atoms: C_23  and  C_24
REMARK                            x       y       z     vdW  Elec       q    Type
REMARK                         _______ _______ _______ _____ _____    ______ ____
ROOT
ATOM     13  C   UNL     1      -1.211  -0.049  24.590  0.00  0.00    +0.205 A 
ATOM     14  N   UNL     1      -1.320  -0.238  25.385  0.00  0.00    -0.056 NA
ATOM     15  O   UNL     1      -2.122  -0.150  25.560  0.00  0.00    -0.336 OA
ATOM     16  C   UNL     1      -2.507   0.093  24.872  0.00  0.00    +0.251 A 
ATOM     17  N   UNL     1      -1.944   0.155  24.272  0.00  0.00    -0.190 NA
ENDROOT
BRANCH  13  10
ATOM      4  C   UNL     1       2.158   0.555  22.984  0.00  0.00    +0.277 C 
ATOM      5  O   UNL     1       1.937   1.226  23.409  0.00  0.00    -0.270 OA
ATOM      6  N   UNL     1       1.661  -0.103  22.965  0.00  0.00    -0.158 NA
ATOM      7  C   UNL     1       0.943  -0.090  23.371  0.00  0.00    +0.155 A 
ATOM      8  N   UNL     1       0.447  -0.748  23.353  0.00  0.00    -0.227 NA
ATOM      9  C   UNL     1      -0.272  -0.735  23.759  0.00  0.00    +0.103 A 
ATOM     10  C   UNL     1      -0.493  -0.063  24.184  0.00  0.00    +0.058 A 
ATOM     11  C   UNL     1       0.004   0.595  24.202  0.00  0.00    +0.008 A 
ATOM     12  C   UNL     1       0.722   0.581  23.796  0.00  0.00    +0.036 A 
BRANCH   4   3
ATOM      3  C   UNL     1       2.876   0.542  22.578  0.00  0.00    +0.229 C 
BRANCH   3   2
ATOM      1  C   UNL     1       4.283   0.795  22.591  0.00  0.00    +0.175 C 
ATOM      2  O   UNL     1       3.525   0.959  22.872  0.00  0.00    -0.342 OA
ENDBRANCH   3   2
ENDBRANCH   4   3
ENDBRANCH  13  10
BRANCH  16  18
ATOM     18  C   UNL     1      -3.314   0.247  24.796  0.00  0.00    +0.138 C 
ATOM     19  C   UNL     1      -3.916  -0.318  24.776  0.00  0.00    +0.027 C 
ATOM     20  C   UNL     1      -4.635   0.079  24.695  0.00  0.00    +0.019 C 
ATOM     21  C   UNL     1      -4.478   0.889  24.665  0.00  0.00    +0.073 C 
ATOM     22  N   UNL     1      -3.662   0.993  24.728  0.00  0.00    -0.263 NA
BRANCH  22  23
ATOM     23  C   UNL     1      -3.263   1.715  24.724  0.00  0.00    +0.101 C 
BRANCH  23  24
ATOM     24  C   UNL     1      -3.629   2.389  25.026  0.00  0.00    +0.012 A 
ATOM     25  C   UNL     1      -4.442   2.508  25.101  0.00  0.00    +0.073 A 
ATOM     26  N   UNL     1      -4.561   3.255  25.428  0.00  0.00    -0.324 N 
ATOM     27  C   UNL     1      -5.292   3.599  25.598  0.00  0.00    +0.130 C 
ATOM     28  C   UNL     1      -3.823   3.599  25.555  0.00  0.00    +0.060 A 
ATOM     29  C   UNL     1      -3.246   3.063  25.307  0.00  0.00    +0.015 A 
ATOM     30  C   UNL     1      -2.447   3.260  25.369  0.00  0.00    +0.001 A 
ATOM     31  C   UNL     1      -2.225   3.991  25.678  0.00  0.00    +0.000 A 
ATOM     32  C   UNL     1      -2.801   4.526  25.927  0.00  0.00    +0.001 A 
ATOM     33  C   UNL     1      -3.600   4.331  25.865  0.00  0.00    +0.017 A 
ENDBRANCH  23  24
ENDBRANCH  22  23
ENDBRANCH  16  18
TORSDOF 6
ENDMDL
MODEL 3
REMARK VINA RESULT:      -9.9      1.363      3.033
REMARK  Name = 
REMARK  6 active torsions:
REMARK  status: ('A' for Active; 'I' for Inactive)
REMARK    1  A    between atoms: O_2  and  C_3
REMARK    2  A    between atoms: C_3  and  C_4
REMARK    3  A    between atoms: C_10  and  C_13
REMARK    4  A    between atoms: C_16  and  C_18
REMARK    5  A    between atoms: N_22  and  C_23
REMARK    6  A    between atoms: C_23  and  C_24
REMARK                            x       y       z     vdW  Elec       q    Type
REMARK                         _______ _______ _______ _____ _____    ______ ____
ROOT
ATOM     13  C   UNL     1      -1.949   1.868  23.846  0.00  0.00    +0.205 A 
ATOM     14  N   UNL     1      -2.405   2.270  23.288  0.00  0.00    -0.056 NA
ATOM     15  O   UNL     1      -3.196   2.216  23.519  0.00  0.00    -0.336 OA
ATOM     16  C   UNL     1      -3.227   1.781  24.219  0.00  0.00    +0.251 A 
ATOM     17  N   UNL     1      -2.457   1.565  24.421  0.00  0.00    -0.190 NA
ENDROOT
BRANCH  13  10
ATOM      4  C   UNL     1       1.673   0.874  23.413  0.00  0.00    +0.277 C 
ATOM      5  O   UNL     1       1.192   0.304  23.060  0.00  0.00    -0.270 OA
ATOM      6  N   UNL     1       1.333   1.528  23.781  0.00  0.00    -0.158 NA
ATOM      7  C   UNL     1       0.512   1.614  23.798  0.00  0.00    +0.155 A 
ATOM      8  N   UNL     1       0.173   2.268  24.166  0.00  0.00    -0.227 NA
ATOM      9  C   UNL     1      -0.648   2.353  24.183  0.00  0.00    +0.103 A 
ATOM     10  C   UNL     1      -1.128   1.783  23.830  0.00  0.00    +0.058 A 
ATOM     11  C   UNL     1      -0.789   1.128  23.461  0.00  0.00    +0.008 A 
ATOM     12  C   UNL     1       0.032   1.043  23.445  0.00  0.00    +0.036 A 
BRANCH   4   3
ATOM      3  C   UNL     1       2.493   0.788  23.396  0.00  0.00    +0.229 C 
BRANCH   3   2
ATOM      1  C   UNL     1       3.703   0.632  22.652  0.00  0.00    +0.175 C 
ATOM      2  O   UNL     1       2.879   0.637  22.682  0.00  0.00    -0.342 OA
ENDBRANCH   3   2
ENDBRANCH   4   3
ENDBRANCH  13  10
BRANCH  16  18
ATOM     18  C   UNL     1      -3.910   1.593  24.644  0.00  0.00    +0.138 C 
ATOM     19  C   UNL     1      -4.357   2.117  25.098  0.00  0.00    +0.027 C 
ATOM     20  C   UNL     1      -4.988   1.697  25.424  0.00  0.00    +0.019 C 
ATOM     21  C   UNL     1      -4.931   0.914  25.170  0.00  0.00    +0.073 C 
ATOM     22  N   UNL     1      -4.265   0.850  24.688  0.00  0.00    -0.263 NA
BRANCH  22  23
ATOM     23  C   UNL     1      -3.999   0.163  24.317  0.00  0.00    +0.101 C 
BRANCH  23  24
ATOM     24  C   UNL     1      -3.846  -0.514  24.762  0.00  0.00    +0.012 A 
ATOM     25  C   UNL     1      -3.633  -0.532  25.559  0.00  0.00    +0.073 A 
ATOM     26  N   UNL     1      -3.534  -1.321  25.778  0.00  0.00    -0.324 N 
ATOM     27  C   UNL     1      -3.321  -1.592  26.528  0.00  0.00    +0.130 C 
ATOM     28  C   UNL     1      -3.685  -1.790  25.118  0.00  0.00    +0.060 A 
ATOM     29  C   UNL     1      -3.878  -1.291  24.489  0.00  0.00    +0.015 A 
ATOM     30  C   UNL     1      -4.058  -1.610  23.750  0.00  0.00    +0.001 A 
ATOM     31  C   UNL     1      -4.045  -2.427  23.639  0.00  0.00    +0.000 A 
ATOM     32  C   UNL     1      -3.852  -2.926  24.267  0.00  0.00    +0.001 A 
ATOM     33  C   UNL     1      -3.672  -2.608  25.006  0.00  0.00    +0.017 A 
ENDBRANCH  23  24
ENDBRANCH  22  23
ENDBRANCH  16  18
TORSDOF 6
ENDMDL
MODEL 4
REMARK VINA RESULT:      -9.8      1.442      2.565
REMARK  Name = 
REMARK  6 active torsions:
REMARK  status: ('A' for Active; 'I' for Inactive)
REMARK    1  A    between atoms: O_2  and  C_3
REMARK    2  A    between atoms: C_3  and  C_4
REMARK    3  A    between atoms: C_10  and  C_13
REMARK    4  A    between atoms: C_16  and  C_18
REMARK    5  A    between atoms: N_22  and  C_23
REMARK    6  A    between atoms: C_23  and  C_24
REMARK                            x       y       z     vdW  Elec       q    Type
REMARK                         _______ _______ _______ _____ _____    ______ ____
ROOT
ATOM     13  C   UNL     1      -0.540   1.881  24.817  0.00  0.00    +0.205 A 
ATOM     14  N   UNL     1      -0.834   1.634  25.547  0.00  0.00    -0.056 NA
ATOM     15  O   UNL     1      -1.368   2.204  25.813  0.00  0.00    -0.336 OA
ATOM     16  C   UNL     1      -1.403   2.803  25.247  0.00  0.00    +0.251 A 
ATOM     17  N   UNL     1      -0.892   2.604  24.631  0.00  0.00    -0.190 NA
ENDROOT
BRANCH  13  10
ATOM      4  C   UNL     1       2.423   0.560  22.875  0.00  0.00    +0.277 C 
ATOM      5  O   UNL     1       2.636   1.263  23.248  0.00  0.00    -0.270 OA
ATOM      6  N   UNL     1       1.659   0.261  22.965  0.00  0.00    -0.158 NA
ATOM      7  C   UNL     1       1.109   0.666  23.428  0.00  0.00    +0.155 A 
ATOM      8  N   UNL     1       0.346   0.367  23.517  0.00  0.00    -0.227 NA
ATOM      9  C   UNL     1      -0.204   0.772  23.980  0.00  0.00    +0.103 A 
ATOM     10  C   UNL     1       0.009   1.476  24.354  0.00  0.00    +0.058 A 
ATOM     11  C   UNL     1       0.773   1.775  24.264  0.00  0.00    +0.008 A 
ATOM     12  C   UNL     1       1.323   1.370  23.801  0.00  0.00    +0.036 A 
BRANCH   4   3
ATOM      3  C   UNL     1       2.973   0.155  22.412  0.00  0.00    +0.229 C 
BRANCH   3   2
ATOM      1  C   UNL     1       4.402   0.151  22.400  0.00  0.00    +0.175 C 
ATOM      2  O   UNL     1       3.687   0.516  22.209  0.00  0.00    -0.342 OA
ENDBRANCH   3   2
ENDBRANCH   4   3
ENDBRANCH  13  10
BRANCH  16  18
ATOM     18  C   UNL     1      -1.869   3.484  25.289  0.00  0.00    +0.138 C 
ATOM     19  C   UNL     1      -1.607   4.239  25.496  0.00  0.00    +0.027 C 
ATOM     20  C   UNL     1      -2.253   4.750  25.466  0.00  0.00    +0.019 C 
ATOM     21  C   UNL     1      -2.915   4.311  25.241  0.00  0.00    +0.073 C 
ATOM     22  N   UNL     1      -2.677   3.529  25.131  0.00  0.00    -0.263 NA
BRANCH  22  23
ATOM     23  C   UNL     1      -3.163   2.902  24.904  0.00  0.00    +0.101 C 
BRANCH  23  24
ATOM     24  C   UNL     1      -3.972   2.929  25.060  0.00  0.00    +0.012 A 
ATOM     25  C   UNL     1      -4.398   3.596  25.295  0.00  0.00    +0.073 A 
ATOM     26  N   UNL     1      -5.187   3.374  25.389  0.00  0.00    -0.324 N 
ATOM     27  C   UNL     1      -5.806   3.869  25.619  0.00  0.00    +0.130 C 
ATOM     28  C   UNL     1      -5.248   2.571  25.213  0.00  0.00    +0.060 A 
ATOM     29  C   UNL     1      -4.497   2.296  25.010  0.00  0.00    +0.015 A 
ATOM     30  C   UNL     1      -4.390   1.504  24.806  0.00  0.00    +0.001 A 
ATOM     31  C   UNL     1      -5.032   0.987  24.804  0.00  0.00    +0.000 A 
ATOM     32  C   UNL     1      -5.783   1.262  25.007  0.00  0.00    +0.001 A 
ATOM     33  C   UNL     1      -5.892   2.053  25.212  0.00  0.00    +0.017 A 
ENDBRANCH  23  24
ENDBRANCH  22  23
ENDBRANCH  16  18
TORSDOF 6
ENDMDL
MODEL 5
REMARK VINA RESULT:      -9.3      2.488      4.148
REMARK  Name = 
REMARK  6 active torsions:
REMARK  status: ('A' for Active; 'I' for Inactive)
REMARK    1  A    between atoms: O_2  and  C_3
REMARK    2  A    between atoms: C_3  and  C_4
REMARK    3  A    between atoms: C_10  and  C_13
REMARK    4  A    between atoms: C_16  and  C_18
REMARK    5  A    between atoms: N_22  and  C_23
REMARK    6  A    between atoms: C_23  and  C_24
REMARK                            x       y       z     vdW  Elec       q    Type
REMARK                         _______ _______ _______ _____ _____    ______ ____
ROOT
ATOM     13  C   UNL     1      -0.861   1.566  25.489  0.00  0.00    +0.205 A 
ATOM     14  N   UNL     1      -0.381   1.802  26.117  0.00  0.00    -0.056 NA
ATOM     15  O   UNL     1      -0.369   2.627  26.132  0.00  0.00    -0.336 OA
ATOM     16  C   UNL     1      -0.842   2.900  25.514  0.00  0.00    +0.251 A 
ATOM     17  N   UNL     1      -1.146   2.244  25.116  0.00  0.00    -0.190 NA
ENDROOT
BRANCH  13  10
ATOM      4  C   UNL     1      -2.261  -1.877  24.795  0.00  0.00    +0.277 C 
ATOM      5  O   UNL     1      -2.832  -1.426  25.183  0.00  0.00    -0.270 OA
ATOM      6  N   UNL     1      -1.524  -1.549  24.624  0.00  0.00    -0.158 NA
ATOM      7  C   UNL     1      -1.358  -0.770  24.840  0.00  0.00    +0.155 A 
ATOM      8  N   UNL     1      -0.621  -0.443  24.669  0.00  0.00    -0.227 NA
ATOM      9  C   UNL     1      -0.455   0.336  24.885  0.00  0.00    +0.103 A 
ATOM     10  C   UNL     1      -1.026   0.787  25.272  0.00  0.00    +0.058 A 
ATOM     11  C   UNL     1      -1.764   0.459  25.444  0.00  0.00    +0.008 A 
ATOM     12  C   UNL     1      -1.929  -0.319  25.228  0.00  0.00    +0.036 A 
BRANCH   4   3
ATOM      3  C   UNL     1      -2.427  -2.656  24.579  0.00  0.00    +0.229 C 
BRANCH   3   2
ATOM      1  C   UNL     1      -3.495  -3.499  24.144  0.00  0.00    +0.175 C 
ATOM      2  O   UNL     1      -3.186  -2.962  24.688  0.00  0.00    -0.342 OA
ENDBRANCH   3   2
ENDBRANCH   4   3
ENDBRANCH  13  10
BRANCH  16  18
ATOM     18  C   UNL     1      -0.987   3.690  25.325  0.00  0.00    +0.138 C 
ATOM     19  C   UNL     1      -0.434   4.227  25.028  0.00  0.00    +0.027 C 
ATOM     20  C   UNL     1      -0.814   4.951  24.920  0.00  0.00    +0.019 C 
ATOM     21  C   UNL     1      -1.602   4.862  25.150  0.00  0.00    +0.073 C 
ATOM     22  N   UNL     1      -1.708   4.083  25.400  0.00  0.00    -0.263 NA
BRANCH  22  23
ATOM     23  C   UNL     1      -2.412   3.755  25.677  0.00  0.00    +0.101 C 
BRANCH  23  24
ATOM     24  C   UNL     1      -3.093   3.787  25.212  0.00  0.00    +0.012 A 
ATOM     25  C   UNL     1      -3.131   4.029  24.424  0.00  0.00    +0.073 A 
ATOM     26  N   UNL     1      -3.916   3.974  24.178  0.00  0.00    -0.324 N 
ATOM     27  C   UNL     1      -4.204   4.162  23.428  0.00  0.00    +0.130 C 
ATOM     28  C   UNL     1      -4.363   3.699  24.814  0.00  0.00    +0.060 A 
ATOM     29  C   UNL     1      -3.854   3.583  25.453  0.00  0.00    +0.015 A 
ATOM     30  C   UNL     1      -4.151   3.307  26.171  0.00  0.00    +0.001 A 
ATOM     31  C   UNL     1      -4.956   3.146  26.251  0.00  0.00    +0.000 A 
ATOM     32  C   UNL     1      -5.465   3.262  25.612  0.00  0.00    +0.001 A 
ATOM     33  C   UNL     1      -5.169   3.538  24.894  0.00  0.00    +0.017 A 
ENDBRANCH  23  24
ENDBRANCH  22  23
ENDBRANCH  16  18
TORSDOF 6
ENDMDL
MODEL 6
REMARK VINA RESULT:      -9.1      2.114      5.588
REMARK  Name = 
REMARK  6 active torsions:
REMARK  status: ('A' for Active; 'I' for Inactive)
REMARK    1  A    between atoms: O_2  and  C_3
REMARK    2  A    between atoms: C_3  and  C_4
REMARK    3  A    between atoms: C_10  and  C_13
REMARK    4  A    between atoms: C_16  and  C_18
REMARK    5  A    between atoms: N_22  and  C_23
REMARK    6  A    between atoms: C_23  and  C_24
REMARK                            x       y       z     vdW  Elec       q    Type
REMARK                         _______ _______ _______ _____ _____    ______ ____
ROOT
ATOM     13  C   UNL     1      -1.190   2.063  25.192  0.00  0.00    +0.205 A 
ATOM     14  N   UNL     1      -0.501   2.037  25.645  0.00  0.00    -0.056 NA
ATOM     15  O   UNL     1      -0.031   1.421  25.359  0.00  0.00    -0.336 OA
ATOM     16  C   UNL     1      -0.432   1.067  24.730  0.00  0.00    +0.251 A 
ATOM     17  N   UNL     1      -1.148   1.463  24.627  0.00  0.00    -0.190 NA
ENDROOT
BRANCH  13  10
ATOM      4  C   UNL     1      -4.443   3.983  25.340  0.00  0.00    +0.277 C 
ATOM      5  O   UNL     1      -4.582   3.242  25.005  0.00  0.00    -0.270 OA
ATOM      6  N   UNL     1      -3.682   4.191  25.578  0.00  0.00    -0.158 NA
ATOM      7  C   UNL     1      -3.059   3.659  25.482  0.00  0.00    +0.155 A 
ATOM      8  N   UNL     1      -2.298   3.868  25.721  0.00  0.00    -0.227 NA
ATOM      9  C   UNL     1      -1.674   3.336  25.624  0.00  0.00    +0.103 A 
ATOM     10  C   UNL     1      -1.813   2.595  25.289  0.00  0.00    +0.058 A 
ATOM     11  C   UNL     1      -2.575   2.386  25.050  0.00  0.00    +0.008 A 
ATOM     12  C   UNL     1      -3.197   2.918  25.147  0.00  0.00    +0.036 A 
BRANCH   4   3
ATOM      3  C   UNL     1      -5.067   4.515  25.436  0.00  0.00    +0.229 C 
BRANCH   3   2
ATOM      1  C   UNL     1      -6.455   4.762  25.669  0.00  0.00    +0.175 C 
ATOM      2  O   UNL     1      -5.818   4.239  25.640  0.00  0.00    -0.342 OA
ENDBRANCH   3   2
ENDBRANCH   4   3
ENDBRANCH  13  10
BRANCH  16  18
ATOM     18  C   UNL     1      -0.163   0.428  24.283  0.00  0.00    +0.138 C 
ATOM     19  C   UNL     1       0.365   0.468  23.648  0.00  0.00    +0.027 C 
ATOM     20  C   UNL     1       0.479  -0.298  23.364  0.00  0.00    +0.019 C 
ATOM     21  C   UNL     1       0.023  -0.811  23.822  0.00  0.00    +0.073 C 
ATOM     22  N   UNL     1      -0.373  -0.363  24.390  0.00  0.00    -0.263 NA
BRANCH  22  23
ATOM     23  C   UNL     1      -0.890  -0.653  24.963  0.00  0.00    +0.101 C 
BRANCH  23  24
ATOM     24  C   UNL     1      -1.370  -1.302  24.795  0.00  0.00    +0.012 A 
ATOM     25  C   UNL     1      -1.174  -1.937  24.305  0.00  0.00    +0.073 A 
ATOM     26  N   UNL     1      -1.813  -2.457  24.294  0.00  0.00    -0.324 N 
ATOM     27  C   UNL     1      -1.854  -3.167  23.874  0.00  0.00    +0.130 C 
ATOM     28  C   UNL     1      -2.405  -2.144  24.776  0.00  0.00    +0.060 A 
ATOM     29  C   UNL     1      -2.131  -1.430  25.085  0.00  0.00    +0.015 A 
ATOM     30  C   UNL     1      -2.610  -0.990  25.592  0.00  0.00    +0.001 A 
ATOM     31  C   UNL     1      -3.363  -1.263  25.789  0.00  0.00    +0.000 A 
ATOM     32  C   UNL     1      -3.637  -1.977  25.480  0.00  0.00    +0.001 A 
ATOM     33  C   UNL     1      -3.158  -2.418  24.973  0.00  0.00    +0.017 A 
ENDBRANCH  23  24
ENDBRANCH  22  23
ENDBRANCH  16  18
TORSDOF 6
ENDMDL
