MODEL 1
REMARK VINA RESULT:     -13.0      0.000      0.000
REMARK  Name = 
REMARK  7 active torsions:
REMARK  status: ('A' for Active; 'I' for Inactive)
REMARK    1  A    between atoms: N_7  and  C_10
REMARK    2  A    between atoms: C_12  and  C_16
REMARK    3  A    between atoms: C_19  and  C_21
REMARK    4  A    between atoms: N_25  and  C_26
REMARK    5  A    between atoms: C_26  and  C_27
REMARK    6  A    between atoms: C_31  and  O_32
REMARK    7  A    between atoms: O_32  and  C_33
REMARK                            x       y       z     vdW  Elec       q    Type
REMARK                         _______ _______ _______ _____ _____    ______ ____
ROOT
ATOM     16  C   UNL     1      -0.287   1.870  24.927  0.00  0.00    +0.203 A 
ATOM     17  N   UNL     1       0.119   2.097  25.609  0.00  0.00    -0.056 NA
ATOM     18  O   UNL     1      -0.097   2.873  25.789  0.00  0.00    -0.336 OA
ATOM     19  C   UNL     1      -0.635   3.126  25.217  0.00  0.00    +0.251 A 
ATOM     20  N   UNL     1      -0.753   2.506  24.685  0.00  0.00    -0.190 NA
ENDROOT
BRANCH  16  12
ATOM     10  C   UNL     1      -0.784  -0.153  24.280  0.00  0.00    +0.132 A 
ATOM     11  C   UNL     1      -0.836   0.580  24.653  0.00  0.00    +0.037 A 
ATOM     12  C   UNL     1      -0.235   1.137  24.553  0.00  0.00    +0.043 A 
ATOM     13  C   UNL     1       0.417   0.960  24.080  0.00  0.00    +0.024 A 
ATOM     14  C   UNL     1       0.469   0.227  23.707  0.00  0.00    +0.100 A 
ATOM     15  N   UNL     1      -0.131  -0.330  23.806  0.00  0.00    -0.229 NA
BRANCH  10   7
ATOM      1  C   UNL     1      -3.959  -2.198  24.469  0.00  0.00    +0.095 C 
ATOM      2  C   UNL     1      -3.183  -2.385  24.678  0.00  0.00    +0.226 C 
ATOM      3  O   UNL     1      -3.007  -3.129  24.985  0.00  0.00    -0.275 OA
ATOM      4  N   UNL     1      -2.583  -1.826  24.578  0.00  0.00    -0.276 N 
ATOM      5  C   UNL     1      -1.807  -2.013  24.786  0.00  0.00    +0.115 C 
ATOM      6  C   UNL     1      -1.207  -1.456  24.687  0.00  0.00    +0.114 C 
ATOM      7  N   UNL     1      -1.384  -0.711  24.379  0.00  0.00    -0.290 N 
ATOM      8  C   UNL     1      -2.160  -0.524  24.171  0.00  0.00    +0.114 C 
ATOM      9  C   UNL     1      -2.759  -1.082  24.270  0.00  0.00    +0.115 C 
ENDBRANCH  10   7
ENDBRANCH  16  12
BRANCH  19  21
ATOM     21  C   UNL     1      -0.994   3.868  25.184  0.00  0.00    +0.138 C 
ATOM     22  C   UNL     1      -0.662   4.553  24.865  0.00  0.00    +0.027 C 
ATOM     23  C   UNL     1      -1.210   5.165  24.947  0.00  0.00    +0.019 C 
ATOM     24  C   UNL     1      -1.881   4.857  25.316  0.00  0.00    +0.073 C 
ATOM     25  N   UNL     1      -1.747   4.056  25.462  0.00  0.00    -0.263 NA
BRANCH  25  26
ATOM     26  C   UNL     1      -2.275   3.535  25.823  0.00  0.00    +0.100 C 
BRANCH  26  27
ATOM     27  C   UNL     1      -3.087   3.625  25.710  0.00  0.00    -0.003 A 
ATOM     28  C   UNL     1      -3.526   4.092  26.230  0.00  0.00    -0.003 A 
ATOM     29  C   UNL     1      -4.338   4.182  26.116  0.00  0.00    +0.003 A 
ATOM     30  C   UNL     1      -4.711   3.806  25.485  0.00  0.00    +0.037 A 
ATOM     31  C   UNL     1      -4.272   3.338  24.965  0.00  0.00    +0.147 A 
ATOM     37  C   UNL     1      -3.460   3.248  25.078  0.00  0.00    +0.034 A 
BRANCH  31  32
ATOM     32  O   UNL     1      -4.645   2.961  24.333  0.00  0.00    -0.404 OA
BRANCH  32  33
ATOM     33  C   UNL     1      -4.928   2.192  24.421  0.00  0.00    +0.575 C 
ATOM     34  F   UNL     1      -5.211   1.421  24.510  0.00  0.00    -0.133 F 
ATOM     35  F   UNL     1      -4.225   1.898  24.104  0.00  0.00    -0.133 F 
ATOM     36  F   UNL     1      -5.630   2.486  24.739  0.00  0.00    -0.133 F 
ENDBRANCH  32  33
ENDBRANCH  31  32
ENDBRANCH  26  27
ENDBRANCH  25  26
ENDBRANCH  19  21
TORSDOF 7
ENDMDL
MODEL 2
REMARK VINA RESULT:     -12.8      1.399      4.621
REMARK  Name = 
REMARK  7 active torsions:
REMARK  status: ('A' for Active; 'I' for Inactive)
REMARK    1  A    between atoms: N_7  and  C_10
REMARK    2  A    between atoms: C_12  and  C_16
REMARK    3  A    between atoms: C_19  and  C_21
REMARK    4  A    between atoms: N_25  and  C_26
REMARK    5  A    between atoms: C_26  and  C_27
REMARK    6  A    between atoms: C_31  and  O_32
REMARK    7  A    between atoms: O_32  and  C_33
REMARK                            x       y       z     vdW  Elec       q    Type
REMARK                         _______ _______ _______ _____ _____    ______ ____
ROOT
ATOM     16  C   UNL     1      -0.680   2.444  24.957  0.00  0.00    +0.203 A 
ATOM     17  N   UNL     1       0.040   2.354  25.350  0.00  0.00    -0.056 NA
ATOM     18  O   UNL     1       0.396   1.661  25.077  0.00  0.00    -0.336 OA
ATOM     19  C   UNL     1      -0.104   1.323  24.515  0.00  0.00    +0.251 A 
ATOM     20  N   UNL     1      -0.769   1.806  24.441  0.00  0.00    -0.190 NA
ENDROOT
BRANCH  16  12
ATOM     10  C   UNL     1      -2.558   3.518  25.240  0.00  0.00    +0.132 A 
ATOM     11  C   UNL     1      -2.022   2.900  25.135  0.00  0.00    +0.037 A 
ATOM     12  C   UNL     1      -1.216   3.062  25.061  0.00  0.00    +0.043 A 
ATOM     13  C   UNL     1      -0.947   3.840  25.092  0.00  0.00    +0.024 A 
ATOM     14  C   UNL     1      -1.483   4.458  25.197  0.00  0.00    +0.100 A 
ATOM     15  N   UNL     1      -2.288   4.298  25.271  0.00  0.00    -0.229 NA
BRANCH  10   7
ATOM      1  C   UNL     1      -6.118   2.251  25.124  0.00  0.00    +0.095 C 
ATOM      2  C   UNL     1      -5.782   2.880  25.538  0.00  0.00    +0.226 C 
ATOM      3  O   UNL     1      -6.252   3.349  26.027  0.00  0.00    -0.275 OA
ATOM      4  N   UNL     1      -4.976   3.039  25.463  0.00  0.00    -0.276 N 
ATOM      5  C   UNL     1      -4.640   3.668  25.878  0.00  0.00    +0.115 C 
ATOM      6  C   UNL     1      -3.834   3.828  25.804  0.00  0.00    +0.114 C 
ATOM      7  N   UNL     1      -3.364   3.358  25.314  0.00  0.00    -0.290 N 
ATOM      8  C   UNL     1      -3.700   2.729  24.899  0.00  0.00    +0.114 C 
ATOM      9  C   UNL     1      -4.506   2.570  24.975  0.00  0.00    +0.115 C 
ENDBRANCH  10   7
ENDBRANCH  16  12
BRANCH  19  21
ATOM     21  C   UNL     1       0.035   0.624  24.100  0.00  0.00    +0.138 C 
ATOM     22  C   UNL     1       0.496   0.548  23.419  0.00  0.00    +0.027 C 
ATOM     23  C   UNL     1       0.484  -0.245  23.191  0.00  0.00    +0.019 C 
ATOM     24  C   UNL     1       0.016  -0.659  23.730  0.00  0.00    +0.073 C 
ATOM     25  N   UNL     1      -0.261  -0.122  24.292  0.00  0.00    -0.263 NA
BRANCH  25  26
ATOM     26  C   UNL     1      -0.749  -0.300  24.933  0.00  0.00    +0.100 C 
BRANCH  26  27
ATOM     27  C   UNL     1      -1.305  -0.905  24.872  0.00  0.00    -0.003 A 
ATOM     28  C   UNL     1      -1.059  -1.693  24.866  0.00  0.00    -0.003 A 
ATOM     29  C   UNL     1      -1.615  -2.298  24.806  0.00  0.00    +0.003 A 
ATOM     30  C   UNL     1      -2.418  -2.117  24.751  0.00  0.00    +0.037 A 
ATOM     31  C   UNL     1      -2.665  -1.330  24.757  0.00  0.00    +0.147 A 
ATOM     37  C   UNL     1      -2.108  -0.724  24.818  0.00  0.00    +0.034 A 
BRANCH  31  32
ATOM     32  O   UNL     1      -3.468  -1.148  24.703  0.00  0.00    -0.404 OA
BRANCH  32  33
ATOM     33  C   UNL     1      -3.892  -1.356  24.027  0.00  0.00    +0.575 C 
ATOM     34  F   UNL     1      -4.317  -1.565  23.350  0.00  0.00    -0.133 F 
ATOM     35  F   UNL     1      -4.106  -2.070  24.382  0.00  0.00    -0.133 F 
ATOM     36  F   UNL     1      -3.678  -0.643  23.672  0.00  0.00    -0.133 F 
ENDBRANCH  32  33
ENDBRANCH  31  32
ENDBRANCH  26  27
ENDBRANCH  25  26
ENDBRANCH  19  21
TORSDOF 7
ENDMDL
MODEL 3
REMARK VINA RESULT:     -12.6      1.839      3.694
REMARK  Name = 
REMARK  7 active torsions:
REMARK  status: ('A' for Active; 'I' for Inactive)
REMARK    1  A    between atoms: N_7  and  C_10
REMARK    2  A    between atoms: C_12  and  C_16
REMARK    3  A    between atoms: C_19  and  C_21
REMARK    4  A    between atoms: N_25  and  C_26
REMARK    5  A    between atoms: C_26  and  C_27
REMARK    6  A    between atoms: C_31  and  O_32
REMARK    7  A    between atoms: O_32  and  C_33
REMARK                            x       y       z     vdW  Elec       q    Type
REMARK                         _______ _______ _______ _____ _____    ______ ____
ROOT
ATOM     16  C   UNL     1      -4.111   3.038  25.466  0.00  0.00    +0.203 A 
ATOM     17  N   UNL     1      -4.256   3.592  26.061  0.00  0.00    -0.056 NA
ATOM     18  O   UNL     1      -3.610   4.105  26.093  0.00  0.00    -0.336 OA
ATOM     19  C   UNL     1      -3.067   3.869  25.519  0.00  0.00    +0.251 A 
ATOM     20  N   UNL     1      -3.377   3.209  25.132  0.00  0.00    -0.190 NA
ENDROOT
BRANCH  16  12
ATOM     10  C   UNL     1      -4.815   1.041  24.938  0.00  0.00    +0.132 A 
ATOM     11  C   UNL     1      -4.313   1.657  25.158  0.00  0.00    +0.037 A 
ATOM     12  C   UNL     1      -4.612   2.421  25.246  0.00  0.00    +0.043 A 
ATOM     13  C   UNL     1      -5.413   2.568  25.113  0.00  0.00    +0.024 A 
ATOM     14  C   UNL     1      -5.914   1.952  24.892  0.00  0.00    +0.100 A 
ATOM     15  N   UNL     1      -5.616   1.188  24.805  0.00  0.00    -0.229 NA
BRANCH  10   7
ATOM      1  C   UNL     1      -3.281  -2.403  25.229  0.00  0.00    +0.095 C 
ATOM      2  C   UNL     1      -3.622  -2.016  24.585  0.00  0.00    +0.226 C 
ATOM      3  O   UNL     1      -3.664  -2.393  23.853  0.00  0.00    -0.275 OA
ATOM      4  N   UNL     1      -3.920  -1.252  24.674  0.00  0.00    -0.276 N 
ATOM      5  C   UNL     1      -4.260  -0.865  24.029  0.00  0.00    +0.115 C 
ATOM      6  C   UNL     1      -4.558  -0.101  24.117  0.00  0.00    +0.114 C 
ATOM      7  N   UNL     1      -4.516   0.277  24.850  0.00  0.00    -0.290 N 
ATOM      8  C   UNL     1      -4.176  -0.110  25.494  0.00  0.00    +0.114 C 
ATOM      9  C   UNL     1      -3.878  -0.875  25.405  0.00  0.00    +0.115 C 
ENDBRANCH  10   7
ENDBRANCH  16  12
BRANCH  19  21
ATOM     21  C   UNL     1      -2.342   4.228  25.360  0.00  0.00    +0.138 C 
ATOM     22  C   UNL     1      -2.234   4.980  25.038  0.00  0.00    +0.027 C 
ATOM     23  C   UNL     1      -1.422   5.116  24.974  0.00  0.00    +0.019 C 
ATOM     24  C   UNL     1      -1.029   4.448  25.256  0.00  0.00    +0.073 C 
ATOM     25  N   UNL     1      -1.597   3.899  25.495  0.00  0.00    -0.263 NA
BRANCH  25  26
ATOM     26  C   UNL     1      -1.447   3.153  25.812  0.00  0.00    +0.100 C 
BRANCH  26  27
ATOM     27  C   UNL     1      -0.803   2.713  25.545  0.00  0.00    -0.003 A 
ATOM     28  C   UNL     1      -0.089   2.735  25.958  0.00  0.00    -0.003 A 
ATOM     29  C   UNL     1       0.556   2.295  25.691  0.00  0.00    +0.003 A 
ATOM     30  C   UNL     1       0.487   1.833  25.011  0.00  0.00    +0.037 A 
ATOM     31  C   UNL     1      -0.227   1.810  24.598  0.00  0.00    +0.147 A 
ATOM     37  C   UNL     1      -0.872   2.251  24.865  0.00  0.00    +0.034 A 
BRANCH  31  32
ATOM     32  O   UNL     1      -0.297   1.348  23.918  0.00  0.00    -0.404 OA
BRANCH  32  33
ATOM     33  C   UNL     1      -0.618   0.590  23.967  0.00  0.00    +0.575 C 
ATOM     34  F   UNL     1      -0.940  -0.168  24.015  0.00  0.00    -0.133 F 
ATOM     35  F   UNL     1      -1.360   0.893  23.771  0.00  0.00    -0.133 F 
ATOM     36  F   UNL     1       0.124   0.287  24.162  0.00  0.00    -0.133 F 
ENDBRANCH  32  33
ENDBRANCH  31  32
ENDBRANCH  26  27
ENDBRANCH  25  26
ENDBRANCH  19  21
TORSDOF 7
ENDMDL
MODEL 4
REMARK VINA RESULT:     -12.1      2.051      5.887
REMARK  Name = 
REMARK  7 active torsions:
REMARK  status: ('A' for Active; 'I' for Inactive)
REMARK    1  A    between atoms: N_7  and  C_10
REMARK    2  A    between atoms: C_12  and  C_16
REMARK    3  A    between atoms: C_19  and  C_21
REMARK    4  A    between atoms: N_25  and  C_26
REMARK    5  A    between atoms: C_26  and  C_27
REMARK    6  A    between atoms: C_31  and  O_32
REMARK    7  A    between atoms: O_32  and  C_33
REMARK                            x       y       z     vdW  Elec       q    Type
REMARK                         _______ _______ _______ _____ _____    ______ ____
ROOT
ATOM     16  C   UNL     1      -4.460   0.776  25.061  0.00  0.00    +0.203 A 
ATOM     17  N   UNL     1      -4.766   0.356  25.702  0.00  0.00    -0.056 NA
ATOM     18  O   UNL     1      -4.581  -0.442  25.596  0.00  0.00    -0.336 OA
ATOM     19  C   UNL     1      -4.160  -0.514  24.890  0.00  0.00    +0.251 A 
ATOM     20  N   UNL     1      -4.085   0.238  24.559  0.00  0.00    -0.190 NA
ENDROOT
BRANCH  16  12
ATOM     10  C   UNL     1      -3.899   2.875  24.858  0.00  0.00    +0.132 A 
ATOM     11  C   UNL     1      -3.841   2.061  24.977  0.00  0.00    +0.037 A 
ATOM     12  C   UNL     1      -4.518   1.590  24.942  0.00  0.00    +0.043 A 
ATOM     13  C   UNL     1      -5.252   1.933  24.790  0.00  0.00    +0.024 A 
ATOM     14  C   UNL     1      -5.310   2.747  24.671  0.00  0.00    +0.100 A 
ATOM     15  N   UNL     1      -4.634   3.219  24.705  0.00  0.00    -0.229 NA
BRANCH  10   7
ATOM      1  C   UNL     1      -0.480   4.481  24.699  0.00  0.00    +0.095 C 
ATOM      2  C   UNL     1      -1.196   4.764  24.996  0.00  0.00    +0.226 C 
ATOM      3  O   UNL     1      -1.236   5.518  25.327  0.00  0.00    -0.275 OA
ATOM      4  N   UNL     1      -1.872   4.291  24.961  0.00  0.00    -0.276 N 
ATOM      5  C   UNL     1      -2.588   4.573  25.258  0.00  0.00    +0.115 C 
ATOM      6  C   UNL     1      -3.264   4.102  25.224  0.00  0.00    +0.114 C 
ATOM      7  N   UNL     1      -3.223   3.347  24.892  0.00  0.00    -0.290 N 
ATOM      8  C   UNL     1      -2.507   3.064  24.595  0.00  0.00    +0.114 C 
ATOM      9  C   UNL     1      -1.831   3.537  24.630  0.00  0.00    +0.115 C 
ENDBRANCH  10   7
ENDBRANCH  16  12
BRANCH  19  21
ATOM     21  C   UNL     1      -3.866  -1.215  24.571  0.00  0.00    +0.138 C 
ATOM     22  C   UNL     1      -4.246  -1.692  24.014  0.00  0.00    +0.027 C 
ATOM     23  C   UNL     1      -3.755  -2.335  23.851  0.00  0.00    +0.019 C 
ATOM     24  C   UNL     1      -3.072  -2.256  24.307  0.00  0.00    +0.073 C 
ATOM     25  N   UNL     1      -3.140  -1.564  24.752  0.00  0.00    -0.263 NA
BRANCH  25  26
ATOM     26  C   UNL     1      -2.581  -1.272  25.283  0.00  0.00    +0.100 C 
BRANCH  26  27
ATOM     27  C   UNL     1      -1.777  -1.337  25.113  0.00  0.00    -0.003 A 
ATOM     28  C   UNL     1      -1.391  -2.060  25.209  0.00  0.00    -0.003 A 
ATOM     29  C   UNL     1      -0.587  -2.124  25.039  0.00  0.00    +0.003 A 
ATOM     30  C   UNL     1      -0.168  -1.466  24.773  0.00  0.00    +0.037 A 
ATOM     31  C   UNL     1      -0.552  -0.743  24.677  0.00  0.00    +0.147 A 
ATOM     37  C   UNL     1      -1.358  -0.678  24.847  0.00  0.00    +0.034 A 
BRANCH  31  32
ATOM     32  O   UNL     1      -0.133  -0.083  24.410  0.00  0.00    -0.404 OA
BRANCH  32  33
ATOM     33  C   UNL     1       0.004   0.019  23.604  0.00  0.00    +0.575 C 
ATOM     34  F   UNL     1       0.140   0.122  22.796  0.00  0.00    -0.133 F 
ATOM     35  F   UNL     1      -0.676   0.484  23.548  0.00  0.00    -0.133 F 
ATOM     36  F   UNL     1       0.683  -0.445  23.659  0.00  0.00    -0.133 F 
ENDBRANCH  32  33
ENDBRANCH  31  32
ENDBRANCH  26  27
ENDBRANCH  25  26
ENDBRANCH  19  21
TORSDOF 7
ENDMDL
MODEL 5
REMARK VINA RESULT:     -11.4      1.923      3.869
REMARK  Name = 
REMARK  7 active torsions:
REMARK  status: ('A' for Active; 'I' for Inactive)
REMARK    1  A    between atoms: N_7  and  C_10
REMARK    2  A    between atoms: C_12  and  C_16
REMARK    3  A    between atoms: C_19  and  C_21
REMARK    4  A    between atoms: N_25  and  C_26
REMARK    5  A    between atoms: C_26  and  C_27
REMARK    6  A    between atoms: C_31  and  O_32
REMARK    7  A    between atoms: O_32  and  C_33
REMARK                            x       y       z     vdW  Elec       q    Type
REMARK                         _______ _______ _______ _____ _____    ______ ____
ROOT
ATOM     16  C   UNL     1      -3.586  -0.319  24.758  0.00  0.00    +0.203 A 
ATOM     17  N   UNL     1      -4.240  -0.560  24.314  0.00  0.00    -0.056 NA
ATOM     18  O   UNL     1      -4.833   0.006  24.408  0.00  0.00    -0.336 OA
ATOM     19  C   UNL     1      -4.547   0.595  24.909  0.00  0.00    +0.251 A 
ATOM     20  N   UNL     1      -3.777   0.394  25.126  0.00  0.00    -0.190 NA
ENDROOT
BRANCH  16  12
ATOM     10  C   UNL     1      -1.465  -0.796  24.571  0.00  0.00    +0.132 A 
ATOM     11  C   UNL     1      -2.182  -0.393  24.507  0.00  0.00    +0.037 A 
ATOM     12  C   UNL     1      -2.870  -0.722  24.823  0.00  0.00    +0.043 A 
ATOM     13  C   UNL     1      -2.841  -1.453  25.202  0.00  0.00    +0.024 A 
ATOM     14  C   UNL     1      -2.124  -1.857  25.267  0.00  0.00    +0.100 A 
ATOM     15  N   UNL     1      -1.436  -1.529  24.951  0.00  0.00    -0.229 NA
BRANCH  10   7
ATOM      1  C   UNL     1       1.748   0.083  22.783  0.00  0.00    +0.095 C 
ATOM      2  C   UNL     1       1.287   0.518  23.311  0.00  0.00    +0.226 C 
ATOM      3  O   UNL     1       1.514   1.282  23.523  0.00  0.00    -0.275 OA
ATOM      4  N   UNL     1       0.599   0.189  23.625  0.00  0.00    -0.276 N 
ATOM      5  C   UNL     1       0.138   0.624  24.154  0.00  0.00    +0.115 C 
ATOM      6  C   UNL     1      -0.550   0.296  24.469  0.00  0.00    +0.114 C 
ATOM      7  N   UNL     1      -0.777  -0.468  24.256  0.00  0.00    -0.290 N 
ATOM      8  C   UNL     1      -0.316  -0.904  23.728  0.00  0.00    +0.114 C 
ATOM      9  C   UNL     1       0.372  -0.574  23.413  0.00  0.00    +0.115 C 
ENDBRANCH  10   7
ENDBRANCH  16  12
BRANCH  19  21
ATOM     21  C   UNL     1      -4.959   1.268  25.152  0.00  0.00    +0.138 C 
ATOM     22  C   UNL     1      -5.624   1.279  25.640  0.00  0.00    +0.027 C 
ATOM     23  C   UNL     1      -5.854   2.066  25.739  0.00  0.00    +0.019 C 
ATOM     24  C   UNL     1      -5.331   2.540  25.313  0.00  0.00    +0.073 C 
ATOM     25  N   UNL     1      -4.777   2.047  24.950  0.00  0.00    -0.263 NA
BRANCH  25  26
ATOM     26  C   UNL     1      -4.153   2.290  24.470  0.00  0.00    +0.100 C 
BRANCH  26  27
ATOM     27  C   UNL     1      -3.843   3.050  24.549  0.00  0.00    -0.003 A 
ATOM     28  C   UNL     1      -4.138   3.667  24.087  0.00  0.00    -0.003 A 
ATOM     29  C   UNL     1      -3.829   4.427  24.166  0.00  0.00    +0.003 A 
ATOM     30  C   UNL     1      -3.224   4.572  24.708  0.00  0.00    +0.037 A 
ATOM     31  C   UNL     1      -2.928   3.956  25.171  0.00  0.00    +0.147 A 
ATOM     37  C   UNL     1      -3.238   3.195  25.091  0.00  0.00    +0.034 A 
BRANCH  31  32
ATOM     32  O   UNL     1      -2.323   4.100  25.713  0.00  0.00    -0.404 OA
BRANCH  32  33
ATOM     33  C   UNL     1      -1.578   4.333  25.447  0.00  0.00    +0.575 C 
ATOM     34  F   UNL     1      -0.833   4.565  25.179  0.00  0.00    -0.133 F 
ATOM     35  F   UNL     1      -1.364   3.541  25.356  0.00  0.00    -0.133 F 
ATOM     36  F   UNL     1      -1.792   5.124  25.537  0.00  0.00    -0.133 F 
ENDBRANCH  32  33
ENDBRANCH  31  32
ENDBRANCH  26  27
ENDBRANCH  25  26
ENDBRANCH  19  21
TORSDOF 7
ENDMDL
MODEL 6
REMARK VINA RESULT:     -11.0      1.936      4.347
REMARK  Name = 
REMARK  7 active torsions:
REMARK  status: ('A' for Active; 'I' for Inactive)
REMARK    1  A    between atoms: N_7  and  C_10
REMARK    2  A    between atoms: C_12  and  C_16
REMARK    3  A    between atoms: C_19  and  C_21
REMARK    4  A    between atoms: N_25  and  C_26
REMARK    5  A    between atoms: C_26  and  C_27
REMARK    6  A    between atoms: C_31  and  O_32
REMARK    7  A    between atoms: O_32  and  C_33
REMARK                            x       y       z     vdW  Elec       q    Type
REMARK                         _______ _______ _______ _____ _____    ______ ____
ROOT
ATOM     16  C   UNL     1      -2.995   3.282  24.875  0.00  0.00    +0.203 A 
ATOM     17  N   UNL     1      -3.550   3.832  24.608  0.00  0.00    -0.056 NA
ATOM     18  O   UNL     1      -4.301   3.505  24.708  0.00  0.00    -0.336 OA
ATOM     19  C   UNL     1      -4.210   2.754  25.037  0.00  0.00    +0.251 A 
ATOM     20  N   UNL     1      -3.403   2.616  25.141  0.00  0.00    -0.190 NA
ENDROOT
BRANCH  16  12
ATOM     10  C   UNL     1      -0.869   2.885  24.581  0.00  0.00    +0.132 A 
ATOM     11  C   UNL     1      -1.688   2.786  24.579  0.00  0.00    +0.037 A 
ATOM     12  C   UNL     1      -2.176   3.381  24.877  0.00  0.00    +0.043 A 
ATOM     13  C   UNL     1      -1.846   4.075  25.175  0.00  0.00    +0.024 A 
ATOM     14  C   UNL     1      -1.027   4.175  25.176  0.00  0.00    +0.100 A 
ATOM     15  N   UNL     1      -0.538   3.580  24.880  0.00  0.00    -0.229 NA
BRANCH  10   7
ATOM      1  C   UNL     1       0.763  -0.205  23.138  0.00  0.00    +0.095 C 
ATOM      2  C   UNL     1       1.089   0.509  23.394  0.00  0.00    +0.226 C 
ATOM      3  O   UNL     1       1.903   0.627  23.353  0.00  0.00    -0.275 OA
ATOM      4  N   UNL     1       0.598   1.103  23.690  0.00  0.00    -0.276 N 
ATOM      5  C   UNL     1       0.924   1.816  23.946  0.00  0.00    +0.115 C 
ATOM      6  C   UNL     1       0.436   2.410  24.243  0.00  0.00    +0.114 C 
ATOM      7  N   UNL     1      -0.380   2.291  24.284  0.00  0.00    -0.290 N 
ATOM      8  C   UNL     1      -0.706   1.578  24.028  0.00  0.00    +0.114 C 
ATOM      9  C   UNL     1      -0.216   0.984  23.731  0.00  0.00    +0.115 C 
ENDBRANCH  10   7
ENDBRANCH  16  12
BRANCH  19  21
ATOM     21  C   UNL     1      -4.819   2.232  25.230  0.00  0.00    +0.138 C 
ATOM     22  C   UNL     1      -5.472   2.403  25.705  0.00  0.00    +0.027 C 
ATOM     23  C   UNL     1      -5.939   1.724  25.750  0.00  0.00    +0.019 C 
ATOM     24  C   UNL     1      -5.575   1.134  25.303  0.00  0.00    +0.073 C 
ATOM     25  N   UNL     1      -4.883   1.448  24.982  0.00  0.00    -0.263 NA
BRANCH  25  26
ATOM     26  C   UNL     1      -4.348   1.048  24.497  0.00  0.00    +0.100 C 
BRANCH  26  27
ATOM     27  C   UNL     1      -4.246   0.234  24.580  0.00  0.00    -0.003 A 
ATOM     28  C   UNL     1      -4.625  -0.284  24.060  0.00  0.00    -0.003 A 
ATOM     29  C   UNL     1      -4.523  -1.098  24.142  0.00  0.00    +0.003 A 
ATOM     30  C   UNL     1      -4.043  -1.396  24.744  0.00  0.00    +0.037 A 
ATOM     31  C   UNL     1      -3.664  -0.879  25.263  0.00  0.00    +0.147 A 
ATOM     37  C   UNL     1      -3.766  -0.064  25.181  0.00  0.00    +0.034 A 
BRANCH  31  32
ATOM     32  O   UNL     1      -3.184  -1.176  25.865  0.00  0.00    -0.404 OA
BRANCH  32  33
ATOM     33  C   UNL     1      -2.372  -1.257  25.741  0.00  0.00    +0.575 C 
ATOM     34  F   UNL     1      -1.561  -1.340  25.617  0.00  0.00    -0.133 F 
ATOM     35  F   UNL     1      -2.501  -1.993  25.390  0.00  0.00    -0.133 F 
ATOM     36  F   UNL     1      -2.244  -0.522  26.091  0.00  0.00    -0.133 F 
ENDBRANCH  32  33
ENDBRANCH  31  32
ENDBRANCH  26  27
ENDBRANCH  25  26
ENDBRANCH  19  21
TORSDOF 7
ENDMDL
