MODEL 1
REMARK VINA RESULT:     -13.8      0.000      0.000
REMARK  Name = 
REMARK  8 active torsions:
REMARK  status: ('A' for Active; 'I' for Inactive)
REMARK    1  A    between atoms: C_2  and  C_5
REMARK    2  A    between atoms: C_8  and  C_11
REMARK    3  A    between atoms: N_13  and  C_14
REMARK    4  A    between atoms: C_14  and  C_15
REMARK    5  A    between atoms: C_22  and  C_23
REMARK    6  A    between atoms: C_23  and  N_24
REMARK    7  A    between atoms: C_27  and  C_28
REMARK    8  A    between atoms: C_28  and  C_29
REMARK                            x       y       z     vdW  Elec       q    Type
REMARK                         _______ _______ _______ _____ _____    ______ ____
ROOT
ATOM     15  C   UNL     1      -0.333   1.004  24.797  0.00  0.00    +0.079 C 
ATOM     16  C   UNL     1      -0.029   1.690  24.592  0.00  0.00    +0.018 C 
ATOM     17  C   UNL     1      -0.409   2.404  24.631  0.00  0.00    +0.005 C 
ATOM     18  C   UNL     1       0.113   3.076  24.348  0.00  0.00    +0.017 C 
ATOM     19  C   UNL     1      -0.034   2.455  24.488  0.00  0.00    +0.072 C 
ATOM     20  N   UNL     1      -0.713   1.735  24.834  0.00  0.00    -0.272 NA
ATOM     21  C   UNL     1      -1.551   1.974  25.106  0.00  0.00    +0.073 C 
ATOM     22  C   UNL     1      -1.216   2.627  24.894  0.00  0.00    +0.032 C 
ENDROOT
BRANCH  15  14
ATOM     14  C   UNL     1      -0.300   0.186  24.898  0.00  0.00    +0.131 C 
BRANCH  14  13
ATOM     11  C   UNL     1      -0.986  -1.063  25.001  0.00  0.00    +0.265 C 
ATOM     12  O   UNL     1      -0.330  -1.393  25.376  0.00  0.00    -0.268 OA
ATOM     13  N   UNL     1      -0.971  -0.274  24.762  0.00  0.00    -0.200 NA
BRANCH  11   8
ATOM      5  C   UNL     1      -3.000  -2.442  24.592  0.00  0.00    +0.071 A 
ATOM      6  C   UNL     1      -2.281  -2.649  24.243  0.00  0.00    +0.004 A 
ATOM      7  C   UNL     1      -1.610  -2.189  24.379  0.00  0.00    +0.005 A 
ATOM      8  C   UNL     1      -1.657  -1.523  24.865  0.00  0.00    +0.055 A 
ATOM      9  C   UNL     1      -2.376  -1.318  25.213  0.00  0.00    +0.005 A 
ATOM     10  C   UNL     1      -3.047  -1.777  25.077  0.00  0.00    +0.004 A 
BRANCH   5   2
ATOM      1  F   UNL     1      -4.342  -3.362  24.318  0.00  0.00    -0.166 F 
ATOM      2  C   UNL     1      -3.671  -2.903  24.455  0.00  0.00    +0.419 C 
ATOM      3  F   UNL     1      -3.780  -2.525  23.729  0.00  0.00    -0.166 F 
ATOM      4  F   UNL     1      -3.562  -3.279  25.181  0.00  0.00    -0.166 F 
ENDBRANCH   5   2
ENDBRANCH  11   8
ENDBRANCH  14  13
ENDBRANCH  15  14
BRANCH  22  23
ATOM     23  C   UNL     1      -1.545   3.384  24.909  0.00  0.00    +0.073 C 
BRANCH  23  24
ATOM     24  N   UNL     1      -2.359   3.478  24.994  0.00  0.00    -0.273 NA
ATOM     25  C   UNL     1      -2.851   3.430  24.333  0.00  0.00    +0.072 C 
ATOM     26  C   UNL     1      -3.667   3.524  24.418  0.00  0.00    +0.018 C 
ATOM     27  C   UNL     1      -3.990   3.665  25.163  0.00  0.00    +0.007 C 
ATOM     35  C   UNL     1      -3.499   3.713  25.824  0.00  0.00    +0.018 C 
ATOM     36  C   UNL     1      -2.684   3.619  25.739  0.00  0.00    +0.072 C 
BRANCH  27  28
ATOM     28  C   UNL     1      -4.805   3.759  25.248  0.00  0.00    +0.026 C 
BRANCH  28  29
ATOM     29  C   UNL     1      -5.286   3.099  25.369  0.00  0.00    -0.022 A 
ATOM     30  C   UNL     1      -5.558   2.920  26.127  0.00  0.00    -0.004 A 
ATOM     31  C   UNL     1      -6.038   2.261  26.247  0.00  0.00    -0.000 A 
ATOM     32  C   UNL     1      -6.247   1.780  25.611  0.00  0.00    -0.000 A 
ATOM     33  C   UNL     1      -5.975   1.958  24.853  0.00  0.00    -0.000 A 
ATOM     34  C   UNL     1      -5.494   2.618  24.732  0.00  0.00    -0.004 A 
ENDBRANCH  28  29
ENDBRANCH  27  28
ENDBRANCH  23  24
ENDBRANCH  22  23
TORSDOF 8
ENDMDL
MODEL 2
REMARK VINA RESULT:     -13.7      3.933      5.399
REMARK  Name = 
REMARK  8 active torsions:
REMARK  status: ('A' for Active; 'I' for Inactive)
REMARK    1  A    between atoms: C_2  and  C_5
REMARK    2  A    between atoms: C_8  and  C_11
REMARK    3  A    between atoms: N_13  and  C_14
REMARK    4  A    between atoms: C_14  and  C_15
REMARK    5  A    between atoms: C_22  and  C_23
REMARK    6  A    between atoms: C_23  and  N_24
REMARK    7  A    between atoms: C_27  and  C_28
REMARK    8  A    between atoms: C_28  and  C_29
REMARK                            x       y       z     vdW  Elec       q    Type
REMARK                         _______ _______ _______ _____ _____    ______ ____
ROOT
ATOM     15  C   UNL     1       0.670   1.097  23.606  0.00  0.00    +0.079 C 
ATOM     16  C   UNL     1       0.504   1.680  24.094  0.00  0.00    +0.018 C 
ATOM     17  C   UNL     1      -0.215   1.814  24.441  0.00  0.00    +0.005 C 
ATOM     18  C   UNL     1      -0.201   2.537  24.971  0.00  0.00    +0.017 C 
ATOM     19  C   UNL     1       0.049   2.096  24.559  0.00  0.00    +0.072 C 
ATOM     20  N   UNL     1      -0.060   1.240  23.964  0.00  0.00    -0.272 NA
ATOM     21  C   UNL     1      -0.859   0.802  23.917  0.00  0.00    +0.073 C 
ATOM     22  C   UNL     1      -0.980   1.387  24.392  0.00  0.00    +0.032 C 
ENDROOT
BRANCH  15  14
ATOM     14  C   UNL     1       1.178   0.671  23.115  0.00  0.00    +0.131 C 
BRANCH  14  13
ATOM     11  C   UNL     1       2.502   0.270  22.758  0.00  0.00    +0.265 C 
ATOM     12  O   UNL     1       2.216  -0.048  22.054  0.00  0.00    -0.268 OA
ATOM     13  N   UNL     1       1.983   0.630  23.289  0.00  0.00    -0.200 NA
BRANCH  11   8
ATOM      5  C   UNL     1       4.917   0.148  23.281  0.00  0.00    +0.071 A 
ATOM      6  C   UNL     1       4.425  -0.491  23.456  0.00  0.00    +0.004 A 
ATOM      7  C   UNL     1       3.620  -0.450  23.281  0.00  0.00    +0.005 A 
ATOM      8  C   UNL     1       3.307   0.229  22.932  0.00  0.00    +0.055 A 
ATOM      9  C   UNL     1       3.800   0.867  22.758  0.00  0.00    +0.005 A 
ATOM     10  C   UNL     1       4.605   0.826  22.932  0.00  0.00    +0.004 A 
BRANCH   5   2
ATOM      1  F   UNL     1       6.528   0.065  23.631  0.00  0.00    -0.166 F 
ATOM      2  C   UNL     1       5.723   0.106  23.456  0.00  0.00    +0.419 C 
ATOM      3  F   UNL     1       5.575   0.421  24.205  0.00  0.00    -0.166 F 
ATOM      4  F   UNL     1       5.870  -0.209  22.708  0.00  0.00    -0.166 F 
ENDBRANCH   5   2
ENDBRANCH  11   8
ENDBRANCH  14  13
ENDBRANCH  15  14
BRANCH  22  23
ATOM     23  C   UNL     1      -1.685   1.579  24.777  0.00  0.00    +0.073 C 
BRANCH  23  24
ATOM     24  N   UNL     1      -2.285   1.018  24.842  0.00  0.00    -0.273 NA
ATOM     25  C   UNL     1      -2.903   1.009  24.294  0.00  0.00    +0.072 C 
ATOM     26  C   UNL     1      -3.503   0.448  24.359  0.00  0.00    +0.018 C 
ATOM     27  C   UNL     1      -3.487  -0.106  24.970  0.00  0.00    +0.007 C 
ATOM     35  C   UNL     1      -2.869  -0.098  25.518  0.00  0.00    +0.018 C 
ATOM     36  C   UNL     1      -2.269   0.463  25.453  0.00  0.00    +0.072 C 
BRANCH  27  28
ATOM     28  C   UNL     1      -4.087  -0.668  25.035  0.00  0.00    +0.026 C 
BRANCH  28  29
ATOM     29  C   UNL     1      -3.977  -1.426  24.728  0.00  0.00    -0.022 A 
ATOM     30  C   UNL     1      -4.259  -1.611  23.975  0.00  0.00    -0.004 A 
ATOM     31  C   UNL     1      -4.149  -2.369  23.669  0.00  0.00    -0.000 A 
ATOM     32  C   UNL     1      -3.758  -2.942  24.114  0.00  0.00    -0.000 A 
ATOM     33  C   UNL     1      -3.476  -2.757  24.867  0.00  0.00    -0.000 A 
ATOM     34  C   UNL     1      -3.586  -1.999  25.174  0.00  0.00    -0.004 A 
ENDBRANCH  28  29
ENDBRANCH  27  28
ENDBRANCH  23  24
ENDBRANCH  22  23
TORSDOF 8
ENDMDL
MODEL 3
REMARK VINA RESULT:     -13.7      3.901      5.015
REMARK  Name = 
REMARK  8 active torsions:
REMARK  status: ('A' for Active; 'I' for Inactive)
REMARK    1  A    between atoms: C_2  and  C_5
REMARK    2  A    between atoms: C_8  and  C_11
REMARK    3  A    between atoms: N_13  and  C_14
REMARK    4  A    between atoms: C_14  and  C_15
REMARK    5  A    between atoms: C_22  and  C_23
REMARK    6  A    between atoms: C_23  and  N_24
REMARK    7  A    between atoms: C_27  and  C_28
REMARK    8  A    between atoms: C_28  and  C_29
REMARK                            x       y       z     vdW  Elec       q    Type
REMARK                         _______ _______ _______ _____ _____    ______ ____
ROOT
ATOM     15  C   UNL     1       0.440  -0.244  23.491  0.00  0.00    +0.079 C 
ATOM     16  C   UNL     1       0.141  -0.724  24.026  0.00  0.00    +0.018 C 
ATOM     17  C   UNL     1      -0.548  -0.605  24.434  0.00  0.00    +0.005 C 
ATOM     18  C   UNL     1      -0.717  -1.274  25.006  0.00  0.00    +0.017 C 
ATOM     19  C   UNL     1      -0.378  -0.953  24.549  0.00  0.00    +0.072 C 
ATOM     20  N   UNL     1      -0.262  -0.130  23.911  0.00  0.00    -0.272 NA
ATOM     21  C   UNL     1      -0.880   0.541  23.895  0.00  0.00    +0.073 C 
ATOM     22  C   UNL     1      -1.139   0.044  24.414  0.00  0.00    +0.032 C 
ENDROOT
BRANCH  15  14
ATOM     14  C   UNL     1       1.010  -0.023  22.937  0.00  0.00    +0.131 C 
BRANCH  14  13
ATOM     11  C   UNL     1       2.392   0.051  22.585  0.00  0.00    +0.265 C 
ATOM     12  O   UNL     1       2.191   0.011  21.786  0.00  0.00    -0.268 OA
ATOM     13  N   UNL     1       1.801   0.034  23.161  0.00  0.00    -0.200 NA
BRANCH  11   8
ATOM      5  C   UNL     1       4.768   0.222  23.255  0.00  0.00    +0.071 A 
ATOM      6  C   UNL     1       4.352  -0.478  23.387  0.00  0.00    +0.004 A 
ATOM      7  C   UNL     1       3.560  -0.535  23.163  0.00  0.00    +0.005 A 
ATOM      8  C   UNL     1       3.184   0.108  22.808  0.00  0.00    +0.055 A 
ATOM      9  C   UNL     1       3.600   0.808  22.677  0.00  0.00    +0.005 A 
ATOM     10  C   UNL     1       4.392   0.865  22.901  0.00  0.00    +0.004 A 
BRANCH   5   2
ATOM      1  F   UNL     1       6.352   0.335  23.704  0.00  0.00    -0.166 F 
ATOM      2  C   UNL     1       5.560   0.278  23.479  0.00  0.00    +0.419 C 
ATOM      3  F   UNL     1       5.332   0.615  24.198  0.00  0.00    -0.166 F 
ATOM      4  F   UNL     1       5.788  -0.058  22.761  0.00  0.00    -0.166 F 
ENDBRANCH   5   2
ENDBRANCH  11   8
ENDBRANCH  14  13
ENDBRANCH  15  14
BRANCH  22  23
ATOM     23  C   UNL     1      -1.829   0.105  24.862  0.00  0.00    +0.073 C 
BRANCH  23  24
ATOM     24  N   UNL     1      -2.394   0.674  24.673  0.00  0.00    -0.273 NA
ATOM     25  C   UNL     1      -2.309   1.448  24.949  0.00  0.00    +0.072 C 
ATOM     26  C   UNL     1      -2.874   2.018  24.759  0.00  0.00    +0.018 C 
ATOM     27  C   UNL     1      -3.525   1.815  24.295  0.00  0.00    +0.007 C 
ATOM     35  C   UNL     1      -3.612   1.042  24.019  0.00  0.00    +0.018 C 
ATOM     36  C   UNL     1      -3.046   0.472  24.209  0.00  0.00    +0.072 C 
BRANCH  27  28
ATOM     28  C   UNL     1      -4.091   2.385  24.106  0.00  0.00    +0.026 C 
BRANCH  28  29
ATOM     29  C   UNL     1      -4.684   2.573  24.648  0.00  0.00    -0.022 A 
ATOM     30  C   UNL     1      -5.336   2.076  24.735  0.00  0.00    -0.004 A 
ATOM     31  C   UNL     1      -5.929   2.265  25.277  0.00  0.00    -0.000 A 
ATOM     32  C   UNL     1      -5.869   2.950  25.732  0.00  0.00    -0.000 A 
ATOM     33  C   UNL     1      -5.217   3.448  25.646  0.00  0.00    -0.000 A 
ATOM     34  C   UNL     1      -4.624   3.259  25.103  0.00  0.00    -0.004 A 
ENDBRANCH  28  29
ENDBRANCH  27  28
ENDBRANCH  23  24
ENDBRANCH  22  23
TORSDOF 8
ENDMDL
MODEL 4
REMARK VINA RESULT:     -13.0      1.668      3.869
REMARK  Name = 
REMARK  8 active torsions:
REMARK  status: ('A' for Active; 'I' for Inactive)
REMARK    1  A    between atoms: C_2  and  C_5
REMARK    2  A    between atoms: C_8  and  C_11
REMARK    3  A    between atoms: N_13  and  C_14
REMARK    4  A    between atoms: C_14  and  C_15
REMARK    5  A    between atoms: C_22  and  C_23
REMARK    6  A    between atoms: C_23  and  N_24
REMARK    7  A    between atoms: C_27  and  C_28
REMARK    8  A    between atoms: C_28  and  C_29
REMARK                            x       y       z     vdW  Elec       q    Type
REMARK                         _______ _______ _______ _____ _____    ______ ____
ROOT
ATOM     15  C   UNL     1      -5.311   0.875  24.888  0.00  0.00    +0.079 C 
ATOM     16  C   UNL     1      -5.731   1.388  25.295  0.00  0.00    +0.018 C 
ATOM     17  C   UNL     1      -5.532   2.162  25.428  0.00  0.00    +0.005 C 
ATOM     18  C   UNL     1      -6.150   2.586  25.920  0.00  0.00    +0.017 C 
ATOM     19  C   UNL     1      -5.886   2.078  25.605  0.00  0.00    +0.072 C 
ATOM     20  N   UNL     1      -5.114   1.665  25.028  0.00  0.00    -0.272 NA
ATOM     21  C   UNL     1      -4.397   2.169  24.776  0.00  0.00    +0.073 C 
ATOM     22  C   UNL     1      -4.839   2.641  25.182  0.00  0.00    +0.032 C 
ENDROOT
BRANCH  15  14
ATOM     14  C   UNL     1      -5.170   0.128  24.568  0.00  0.00    +0.131 C 
BRANCH  14  13
ATOM     11  C   UNL     1      -4.293  -0.977  24.347  0.00  0.00    +0.265 C 
ATOM     12  O   UNL     1      -4.853  -1.323  23.851  0.00  0.00    -0.268 OA
ATOM     13  N   UNL     1      -4.451  -0.251  24.706  0.00  0.00    -0.200 NA
BRANCH  11   8
ATOM      5  C   UNL     1      -2.136  -2.117  24.761  0.00  0.00    +0.071 A 
ATOM      6  C   UNL     1      -2.145  -1.342  24.477  0.00  0.00    +0.004 A 
ATOM      7  C   UNL     1      -2.864  -0.962  24.339  0.00  0.00    +0.005 A 
ATOM      8  C   UNL     1      -3.574  -1.357  24.485  0.00  0.00    +0.055 A 
ATOM      9  C   UNL     1      -3.564  -2.131  24.769  0.00  0.00    +0.005 A 
ATOM     10  C   UNL     1      -2.845  -2.511  24.907  0.00  0.00    +0.004 A 
BRANCH   5   2
ATOM      1  F   UNL     1      -0.697  -2.876  25.036  0.00  0.00    -0.166 F 
ATOM      2  C   UNL     1      -1.416  -2.496  24.899  0.00  0.00    +0.419 C 
ATOM      3  F   UNL     1      -1.576  -3.021  24.281  0.00  0.00    -0.166 F 
ATOM      4  F   UNL     1      -1.257  -1.972  25.515  0.00  0.00    -0.166 F 
ENDBRANCH   5   2
ENDBRANCH  11   8
ENDBRANCH  14  13
ENDBRANCH  15  14
BRANCH  22  23
ATOM     23  C   UNL     1      -4.695   3.435  25.354  0.00  0.00    +0.073 C 
BRANCH  23  24
ATOM     24  N   UNL     1      -3.923   3.723  25.355  0.00  0.00    -0.273 NA
ATOM     25  C   UNL     1      -3.560   3.931  24.643  0.00  0.00    +0.072 C 
ATOM     26  C   UNL     1      -2.787   4.220  24.643  0.00  0.00    +0.018 C 
ATOM     27  C   UNL     1      -2.377   4.300  25.354  0.00  0.00    +0.007 C 
ATOM     35  C   UNL     1      -2.739   4.092  26.066  0.00  0.00    +0.018 C 
ATOM     36  C   UNL     1      -3.512   3.804  26.066  0.00  0.00    +0.072 C 
BRANCH  27  28
ATOM     28  C   UNL     1      -1.604   4.588  25.355  0.00  0.00    +0.026 C 
BRANCH  28  29
ATOM     29  C   UNL     1      -0.976   4.086  25.168  0.00  0.00    -0.022 A 
ATOM     30  C   UNL     1      -0.716   3.528  25.718  0.00  0.00    -0.004 A 
ATOM     31  C   UNL     1      -0.089   3.026  25.531  0.00  0.00    -0.000 A 
ATOM     32  C   UNL     1       0.278   3.081  24.795  0.00  0.00    -0.000 A 
ATOM     33  C   UNL     1       0.019   3.639  24.245  0.00  0.00    -0.000 A 
ATOM     34  C   UNL     1      -0.608   4.141  24.431  0.00  0.00    -0.004 A 
ENDBRANCH  28  29
ENDBRANCH  27  28
ENDBRANCH  23  24
ENDBRANCH  22  23
TORSDOF 8
ENDMDL
MODEL 5
REMARK VINA RESULT:     -12.9      2.299      4.971
REMARK  Name = 
REMARK  8 active torsions:
REMARK  status: ('A' for Active; 'I' for Inactive)
REMARK    1  A    between atoms: C_2  and  C_5
REMARK    2  A    between atoms: C_8  and  C_11
REMARK    3  A    between atoms: N_13  and  C_14
REMARK    4  A    between atoms: C_14  and  C_15
REMARK    5  A    between atoms: C_22  and  C_23
REMARK    6  A    between atoms: C_23  and  N_24
REMARK    7  A    between atoms: C_27  and  C_28
REMARK    8  A    between atoms: C_28  and  C_29
REMARK                            x       y       z     vdW  Elec       q    Type
REMARK                         _______ _______ _______ _____ _____    ______ ____
ROOT
ATOM     15  C   UNL     1      -0.488   2.730  24.600  0.00  0.00    +0.079 C 
ATOM     16  C   UNL     1       0.142   2.387  24.298  0.00  0.00    +0.018 C 
ATOM     17  C   UNL     1       0.292   1.592  24.299  0.00  0.00    +0.005 C 
ATOM     18  C   UNL     1       1.072   1.399  23.901  0.00  0.00    +0.017 C 
ATOM     19  C   UNL     1       0.595   1.789  24.117  0.00  0.00    +0.072 C 
ATOM     20  N   UNL     1      -0.328   1.920  24.597  0.00  0.00    -0.272 NA
ATOM     21  C   UNL     1      -0.794   1.205  24.919  0.00  0.00    +0.073 C 
ATOM     22  C   UNL     1      -0.161   0.908  24.611  0.00  0.00    +0.032 C 
ENDROOT
BRANCH  15  14
ATOM     14  C   UNL     1      -0.953   3.387  24.781  0.00  0.00    +0.131 C 
BRANCH  14  13
ATOM     11  C   UNL     1      -2.225   3.951  25.106  0.00  0.00    +0.265 C 
ATOM     12  O   UNL     1      -1.873   4.691  25.199  0.00  0.00    -0.268 OA
ATOM     13  N   UNL     1      -1.765   3.299  24.897  0.00  0.00    -0.200 NA
BRANCH  11   8
ATOM      5  C   UNL     1      -4.660   3.687  25.455  0.00  0.00    +0.071 A 
ATOM      6  C   UNL     1      -4.352   3.694  24.690  0.00  0.00    +0.004 A 
ATOM      7  C   UNL     1      -3.540   3.782  24.573  0.00  0.00    +0.005 A 
ATOM      8  C   UNL     1      -3.036   3.863  25.223  0.00  0.00    +0.055 A 
ATOM      9  C   UNL     1      -3.345   3.856  25.987  0.00  0.00    +0.005 A 
ATOM     10  C   UNL     1      -4.157   3.767  26.103  0.00  0.00    +0.004 A 
BRANCH   5   2
ATOM      1  F   UNL     1      -6.284   3.509  25.686  0.00  0.00    -0.166 F 
ATOM      2  C   UNL     1      -5.472   3.598  25.571  0.00  0.00    +0.419 C 
ATOM      3  F   UNL     1      -5.358   2.801  25.754  0.00  0.00    -0.166 F 
ATOM      4  F   UNL     1      -5.586   4.394  25.387  0.00  0.00    -0.166 F 
ENDBRANCH   5   2
ENDBRANCH  11   8
ENDBRANCH  14  13
ENDBRANCH  15  14
BRANCH  22  23
ATOM     23  C   UNL     1       0.052   0.111  24.579  0.00  0.00    +0.073 C 
BRANCH  23  24
ATOM     24  N   UNL     1      -0.520  -0.473  24.683  0.00  0.00    -0.273 NA
ATOM     25  C   UNL     1      -0.739  -0.953  24.049  0.00  0.00    +0.072 C 
ATOM     26  C   UNL     1      -1.312  -1.538  24.153  0.00  0.00    +0.018 C 
ATOM     27  C   UNL     1      -1.666  -1.642  24.891  0.00  0.00    +0.007 C 
ATOM     35  C   UNL     1      -1.447  -1.162  25.525  0.00  0.00    +0.018 C 
ATOM     36  C   UNL     1      -0.874  -0.577  25.421  0.00  0.00    +0.072 C 
BRANCH  27  28
ATOM     28  C   UNL     1      -2.239  -2.226  24.995  0.00  0.00    +0.026 C 
BRANCH  28  29
ATOM     29  C   UNL     1      -2.991  -2.129  24.671  0.00  0.00    -0.022 A 
ATOM     30  C   UNL     1      -3.461  -1.492  24.902  0.00  0.00    -0.004 A 
ATOM     31  C   UNL     1      -4.213  -1.395  24.578  0.00  0.00    -0.000 A 
ATOM     32  C   UNL     1      -4.495  -1.934  24.021  0.00  0.00    -0.000 A 
ATOM     33  C   UNL     1      -4.026  -2.571  23.789  0.00  0.00    -0.000 A 
ATOM     34  C   UNL     1      -3.273  -2.669  24.114  0.00  0.00    -0.004 A 
ENDBRANCH  28  29
ENDBRANCH  27  28
ENDBRANCH  23  24
ENDBRANCH  22  23
TORSDOF 8
ENDMDL
MODEL 6
REMARK VINA RESULT:     -12.9      3.013      6.144
REMARK  Name = 
REMARK  8 active torsions:
REMARK  status: ('A' for Active; 'I' for Inactive)
REMARK    1  A    between atoms: C_2  and  C_5
REMARK    2  A    between atoms: C_8  and  C_11
REMARK    3  A    between atoms: N_13  and  C_14
REMARK    4  A    between atoms: C_14  and  C_15
REMARK    5  A    between atoms: C_22  and  C_23
REMARK    6  A    between atoms: C_23  and  N_24
REMARK    7  A    between atoms: C_27  and  C_28
REMARK    8  A    between atoms: C_28  and  C_29
REMARK                            x       y       z     vdW  Elec       q    Type
REMARK                         _______ _______ _______ _____ _____    ______ ____
ROOT
ATOM     15  C   UNL     1      -4.782   2.751  25.625  0.00  0.00    +0.079 C 
ATOM     16  C   UNL     1      -5.432   2.434  25.339  0.00  0.00    +0.018 C 
ATOM     17  C   UNL     1      -5.510   1.672  25.076  0.00  0.00    +0.005 C 
ATOM     18  C   UNL     1      -6.341   1.502  24.786  0.00  0.00    +0.017 C 
ATOM     19  C   UNL     1      -5.862   1.868  25.038  0.00  0.00    +0.072 C 
ATOM     20  N   UNL     1      -4.869   1.975  25.355  0.00  0.00    -0.272 NA
ATOM     21  C   UNL     1      -4.282   1.278  25.302  0.00  0.00    +0.073 C 
ATOM     22  C   UNL     1      -4.941   1.006  25.028  0.00  0.00    +0.032 C 
ENDROOT
BRANCH  15  14
ATOM     14  C   UNL     1      -4.346   3.373  25.946  0.00  0.00    +0.131 C 
BRANCH  14  13
ATOM     11  C   UNL     1      -3.100   4.070  25.998  0.00  0.00    +0.265 C 
ATOM     12  O   UNL     1      -3.240   4.262  26.787  0.00  0.00    -0.268 OA
ATOM     13  N   UNL     1      -3.653   3.625  25.577  0.00  0.00    -0.200 NA
BRANCH  11   8
ATOM      5  C   UNL     1      -1.020   4.825  24.890  0.00  0.00    +0.071 A 
ATOM      6  C   UNL     1      -1.664   5.338  24.951  0.00  0.00    +0.004 A 
ATOM      7  C   UNL     1      -2.357   5.086  25.320  0.00  0.00    +0.005 A 
ATOM      8  C   UNL     1      -2.406   4.322  25.629  0.00  0.00    +0.055 A 
ATOM      9  C   UNL     1      -1.762   3.810  25.568  0.00  0.00    +0.005 A 
ATOM     10  C   UNL     1      -1.069   4.062  25.199  0.00  0.00    +0.004 A 
BRANCH   5   2
ATOM      1  F   UNL     1       0.366   5.332  24.152  0.00  0.00    -0.166 F 
ATOM      2  C   UNL     1      -0.327   5.078  24.521  0.00  0.00    +0.419 C 
ATOM      3  F   UNL     1      -0.378   5.799  24.921  0.00  0.00    -0.166 F 
ATOM      4  F   UNL     1      -0.276   4.359  24.121  0.00  0.00    -0.166 F 
ENDBRANCH   5   2
ENDBRANCH  11   8
ENDBRANCH  14  13
ENDBRANCH  15  14
BRANCH  22  23
ATOM     23  C   UNL     1      -5.086   0.244  24.746  0.00  0.00    +0.073 C 
BRANCH  23  24
ATOM     24  N   UNL     1      -4.474  -0.306  24.710  0.00  0.00    -0.273 NA
ATOM     25  C   UNL     1      -4.125  -0.488  23.984  0.00  0.00    +0.072 C 
ATOM     26  C   UNL     1      -3.512  -1.039  23.948  0.00  0.00    +0.018 C 
ATOM     27  C   UNL     1      -3.247  -1.408  24.637  0.00  0.00    +0.007 C 
ATOM     35  C   UNL     1      -3.595  -1.226  25.363  0.00  0.00    +0.018 C 
ATOM     36  C   UNL     1      -4.209  -0.675  25.399  0.00  0.00    +0.072 C 
BRANCH  27  28
ATOM     28  C   UNL     1      -2.634  -1.958  24.601  0.00  0.00    +0.026 C 
BRANCH  28  29
ATOM     29  C   UNL     1      -1.852  -1.713  24.702  0.00  0.00    -0.022 A 
ATOM     30  C   UNL     1      -1.415  -1.452  24.053  0.00  0.00    -0.004 A 
ATOM     31  C   UNL     1      -0.635  -1.206  24.154  0.00  0.00    -0.000 A 
ATOM     32  C   UNL     1      -0.291  -1.221  24.903  0.00  0.00    -0.000 A 
ATOM     33  C   UNL     1      -0.727  -1.482  25.553  0.00  0.00    -0.000 A 
ATOM     34  C   UNL     1      -1.509  -1.728  25.452  0.00  0.00    -0.004 A 
ENDBRANCH  28  29
ENDBRANCH  27  28
ENDBRANCH  23  24
ENDBRANCH  22  23
TORSDOF 8
ENDMDL
