MODEL 1
REMARK VINA RESULT:     -11.8      0.000      0.000
REMARK  Name = 
REMARK  7 active torsions:
REMARK  status: ('A' for Active; 'I' for Inactive)
REMARK    1  A    between atoms: C_2  and  C_4
REMARK    2  A    between atoms: C_4  and  C_5
REMARK    3  A    between atoms: C_5  and  C_6
REMARK    4  A    between atoms: C_13  and  C_14
REMARK    5  A    between atoms: C_16  and  C_19
REMARK    6  A    between atoms: C_22  and  O_23
REMARK    7  A    between atoms: O_23  and  C_24
REMARK                            x       y       z     vdW  Elec       q    Type
REMARK                         _______ _______ _______ _____ _____    ______ ____
ROOT
ATOM      6  C   UNL     1      -3.759   2.932  24.897  0.00  0.00    +0.227 C 
ATOM      7  O   UNL     1      -3.939   2.178  24.616  0.00  0.00    -0.275 OA
ATOM      8  N   UNL     1      -2.987   3.218  24.847  0.00  0.00    -0.267 N 
ATOM      9  C   UNL     1      -2.807   3.972  25.128  0.00  0.00    +0.141 C 
ATOM     10  C   UNL     1      -2.035   4.258  25.079  0.00  0.00    +0.094 A 
ATOM     11  C   UNL     1      -1.442   3.789  24.749  0.00  0.00    +0.078 A 
ATOM     12  C   UNL     1      -1.621   3.033  24.468  0.00  0.00    +0.077 C 
ATOM     13  C   UNL     1      -2.394   2.748  24.517  0.00  0.00    +0.161 C 
ATOM     30  N   UNL     1      -0.736   4.214  24.774  0.00  0.00    -0.227 NA
ATOM     31  C   UNL     1      -0.892   4.946  25.119  0.00  0.00    +0.198 A 
ATOM     32  N   UNL     1      -1.695   4.973  25.308  0.00  0.00    -0.225 NA
ENDROOT
BRANCH  13  14
ATOM     14  C   UNL     1      -2.573   1.994  24.236  0.00  0.00    +0.255 A 
ATOM     15  N   UNL     1      -2.474   1.286  24.647  0.00  0.00    -0.189 NA
ATOM     16  C   UNL     1      -2.722   0.669  24.159  0.00  0.00    +0.203 A 
ATOM     17  N   UNL     1      -2.976   0.996  23.446  0.00  0.00    -0.056 NA
ATOM     18  O   UNL     1      -2.883   1.815  23.493  0.00  0.00    -0.335 OA
BRANCH  16  19
ATOM     19  C   UNL     1      -2.718  -0.133  24.351  0.00  0.00    +0.039 A 
ATOM     20  C   UNL     1      -3.418  -0.568  24.322  0.00  0.00    +0.006 A 
ATOM     21  C   UNL     1      -3.413  -1.371  24.514  0.00  0.00    +0.037 A 
ATOM     22  C   UNL     1      -2.709  -1.737  24.736  0.00  0.00    +0.147 A 
ATOM     28  C   UNL     1      -2.009  -1.302  24.766  0.00  0.00    +0.037 A 
ATOM     29  C   UNL     1      -2.013  -0.500  24.574  0.00  0.00    +0.006 A 
BRANCH  22  23
ATOM     23  O   UNL     1      -2.704  -2.540  24.929  0.00  0.00    -0.404 OA
BRANCH  23  24
ATOM     24  C   UNL     1      -3.338  -3.020  24.711  0.00  0.00    +0.575 C 
ATOM     25  F   UNL     1      -3.972  -3.500  24.493  0.00  0.00    -0.133 F 
ATOM     26  F   UNL     1      -3.678  -2.907  25.454  0.00  0.00    -0.133 F 
ATOM     27  F   UNL     1      -2.998  -3.133  23.968  0.00  0.00    -0.133 F 
ENDBRANCH  23  24
ENDBRANCH  22  23
ENDBRANCH  16  19
ENDBRANCH  13  14
BRANCH   6   5
ATOM      5  C   UNL     1      -4.351   3.402  25.227  0.00  0.00    +0.097 C 
BRANCH   5   4
ATOM      4  C   UNL     1      -5.128   3.123  25.260  0.00  0.00    +0.124 C 
BRANCH   4   2
ATOM      1  O   UNL     1      -5.960   4.210  25.668  0.00  0.00    -0.246 OA
ATOM      2  C   UNL     1      -5.662   3.452  25.796  0.00  0.00    +0.365 C 
ATOM      3  O   UNL     1      -5.897   3.022  26.459  0.00  0.00    -0.246 OA
ENDBRANCH   4   2
ENDBRANCH   5   4
ENDBRANCH   6   5
TORSDOF 7
ENDMDL
MODEL 2
REMARK VINA RESULT:     -11.2      1.486      2.699
REMARK  Name = 
REMARK  7 active torsions:
REMARK  status: ('A' for Active; 'I' for Inactive)
REMARK    1  A    between atoms: C_2  and  C_4
REMARK    2  A    between atoms: C_4  and  C_5
REMARK    3  A    between atoms: C_5  and  C_6
REMARK    4  A    between atoms: C_13  and  C_14
REMARK    5  A    between atoms: C_16  and  C_19
REMARK    6  A    between atoms: C_22  and  O_23
REMARK    7  A    between atoms: O_23  and  C_24
REMARK                            x       y       z     vdW  Elec       q    Type
REMARK                         _______ _______ _______ _____ _____    ______ ____
ROOT
ATOM      6  C   UNL     1      -2.929   2.874  24.937  0.00  0.00    +0.227 C 
ATOM      7  O   UNL     1      -2.696   2.151  24.614  0.00  0.00    -0.275 OA
ATOM      8  N   UNL     1      -3.727   3.025  25.078  0.00  0.00    -0.267 N 
ATOM      9  C   UNL     1      -3.960   3.747  25.401  0.00  0.00    +0.141 C 
ATOM     10  C   UNL     1      -4.758   3.899  25.543  0.00  0.00    +0.094 A 
ATOM     11  C   UNL     1      -5.325   3.327  25.362  0.00  0.00    +0.078 A 
ATOM     12  C   UNL     1      -5.092   2.603  25.039  0.00  0.00    +0.077 C 
ATOM     13  C   UNL     1      -4.294   2.453  24.898  0.00  0.00    +0.161 C 
ATOM     30  N   UNL     1      -6.065   3.629  25.561  0.00  0.00    -0.227 NA
ATOM     31  C   UNL     1      -5.957   4.388  25.865  0.00  0.00    +0.198 A 
ATOM     32  N   UNL     1      -5.150   4.554  25.853  0.00  0.00    -0.225 NA
ENDROOT
BRANCH  13  14
ATOM     14  C   UNL     1      -4.062   1.730  24.575  0.00  0.00    +0.255 A 
ATOM     15  N   UNL     1      -4.099   0.996  24.950  0.00  0.00    -0.189 NA
ATOM     16  C   UNL     1      -3.812   0.426  24.427  0.00  0.00    +0.203 A 
ATOM     17  N   UNL     1      -3.598   0.808  23.728  0.00  0.00    -0.056 NA
ATOM     18  O   UNL     1      -3.752   1.614  23.819  0.00  0.00    -0.335 OA
BRANCH  16  19
ATOM     19  C   UNL     1      -3.751  -0.383  24.577  0.00  0.00    +0.039 A 
ATOM     20  C   UNL     1      -4.075  -0.926  24.048  0.00  0.00    +0.006 A 
ATOM     21  C   UNL     1      -4.013  -1.735  24.199  0.00  0.00    +0.037 A 
ATOM     22  C   UNL     1      -3.628  -2.000  24.878  0.00  0.00    +0.147 A 
ATOM     28  C   UNL     1      -3.304  -1.456  25.407  0.00  0.00    +0.037 A 
ATOM     29  C   UNL     1      -3.365  -0.647  25.257  0.00  0.00    +0.006 A 
BRANCH  22  23
ATOM     23  O   UNL     1      -3.566  -2.809  25.029  0.00  0.00    -0.404 OA
BRANCH  23  24
ATOM     24  C   UNL     1      -3.212  -3.306  24.474  0.00  0.00    +0.575 C 
ATOM     25  F   UNL     1      -2.857  -3.802  23.919  0.00  0.00    -0.133 F 
ATOM     26  F   UNL     1      -3.955  -3.509  24.182  0.00  0.00    -0.133 F 
ATOM     27  F   UNL     1      -2.468  -3.102  24.767  0.00  0.00    -0.133 F 
ENDBRANCH  23  24
ENDBRANCH  22  23
ENDBRANCH  16  19
ENDBRANCH  13  14
BRANCH   6   5
ATOM      5  C   UNL     1      -2.363   3.446  25.117  0.00  0.00    +0.097 C 
BRANCH   5   4
ATOM      4  C   UNL     1      -1.573   3.324  24.912  0.00  0.00    +0.124 C 
BRANCH   4   2
ATOM      1  O   UNL     1      -0.450   3.531  25.770  0.00  0.00    -0.246 OA
ATOM      2  C   UNL     1      -0.986   3.819  25.215  0.00  0.00    +0.365 C 
ATOM      3  O   UNL     1      -0.938   4.603  24.962  0.00  0.00    -0.246 OA
ENDBRANCH   4   2
ENDBRANCH   5   4
ENDBRANCH   6   5
TORSDOF 7
ENDMDL
MODEL 3
REMARK VINA RESULT:     -10.3      2.361      3.707
REMARK  Name = 
REMARK  7 active torsions:
REMARK  status: ('A' for Active; 'I' for Inactive)
REMARK    1  A    between atoms: C_2  and  C_4
REMARK    2  A    between atoms: C_4  and  C_5
REMARK    3  A    between atoms: C_5  and  C_6
REMARK    4  A    between atoms: C_13  and  C_14
REMARK    5  A    between atoms: C_16  and  C_19
REMARK    6  A    between atoms: C_22  and  O_23
REMARK    7  A    between atoms: O_23  and  C_24
REMARK                            x       y       z     vdW  Elec       q    Type
REMARK                         _______ _______ _______ _____ _____    ______ ____
ROOT
ATOM      6  C   UNL     1       0.077   1.182  24.339  0.00  0.00    +0.227 C 
ATOM      7  O   UNL     1      -0.175   0.426  24.555  0.00  0.00    -0.275 OA
ATOM      8  N   UNL     1      -0.324   1.846  24.618  0.00  0.00    -0.267 N 
ATOM      9  C   UNL     1      -0.073   2.600  24.402  0.00  0.00    +0.141 C 
ATOM     10  C   UNL     1      -0.474   3.265  24.681  0.00  0.00    +0.094 A 
ATOM     11  C   UNL     1      -1.127   3.175  25.177  0.00  0.00    +0.078 A 
ATOM     12  C   UNL     1      -1.379   2.419  25.393  0.00  0.00    +0.077 C 
ATOM     13  C   UNL     1      -0.977   1.755  25.114  0.00  0.00    +0.161 C 
ATOM     30  N   UNL     1      -1.411   3.925  25.365  0.00  0.00    -0.227 NA
ATOM     31  C   UNL     1      -0.933   4.481  24.985  0.00  0.00    +0.198 A 
ATOM     32  N   UNL     1      -0.354   4.072  24.563  0.00  0.00    -0.225 NA
ENDROOT
BRANCH  13  14
ATOM     14  C   UNL     1      -1.229   1.000  25.330  0.00  0.00    +0.255 A 
ATOM     15  N   UNL     1      -1.853   0.580  24.991  0.00  0.00    -0.189 NA
ATOM     16  C   UNL     1      -1.911  -0.148  25.376  0.00  0.00    +0.203 A 
ATOM     17  N   UNL     1      -1.323  -0.177  25.953  0.00  0.00    -0.056 NA
ATOM     18  O   UNL     1      -0.901   0.532  25.926  0.00  0.00    -0.335 OA
BRANCH  16  19
ATOM     19  C   UNL     1      -2.461  -0.740  25.211  0.00  0.00    +0.039 A 
ATOM     20  C   UNL     1      -2.203  -1.501  25.022  0.00  0.00    +0.006 A 
ATOM     21  C   UNL     1      -2.754  -2.093  24.858  0.00  0.00    +0.037 A 
ATOM     22  C   UNL     1      -3.561  -1.925  24.883  0.00  0.00    +0.147 A 
ATOM     28  C   UNL     1      -3.818  -1.165  25.072  0.00  0.00    +0.037 A 
ATOM     29  C   UNL     1      -3.268  -0.572  25.236  0.00  0.00    +0.006 A 
BRANCH  22  23
ATOM     23  O   UNL     1      -4.111  -2.518  24.718  0.00  0.00    -0.404 OA
BRANCH  23  24
ATOM     24  C   UNL     1      -4.293  -2.706  23.936  0.00  0.00    +0.575 C 
ATOM     25  F   UNL     1      -4.474  -2.893  23.154  0.00  0.00    -0.133 F 
ATOM     26  F   UNL     1      -4.835  -2.085  23.913  0.00  0.00    -0.133 F 
ATOM     27  F   UNL     1      -3.751  -3.326  23.959  0.00  0.00    -0.133 F 
ENDBRANCH  23  24
ENDBRANCH  22  23
ENDBRANCH  16  19
ENDBRANCH  13  14
BRANCH   6   5
ATOM      5  C   UNL     1       0.730   1.272  23.843  0.00  0.00    +0.097 C 
BRANCH   5   4
ATOM      4  C   UNL     1       1.094   0.609  23.514  0.00  0.00    +0.124 C 
BRANCH   4   2
ATOM      1  O   UNL     1       2.374   1.225  23.367  0.00  0.00    -0.246 OA
ATOM      2  C   UNL     1       1.806   0.689  23.105  0.00  0.00    +0.365 C 
ATOM      3  O   UNL     1       1.949   0.231  22.433  0.00  0.00    -0.246 OA
ENDBRANCH   4   2
ENDBRANCH   5   4
ENDBRANCH   6   5
TORSDOF 7
ENDMDL
MODEL 4
REMARK VINA RESULT:     -10.3      2.863      5.106
REMARK  Name = 
REMARK  7 active torsions:
REMARK  status: ('A' for Active; 'I' for Inactive)
REMARK    1  A    between atoms: C_2  and  C_4
REMARK    2  A    between atoms: C_4  and  C_5
REMARK    3  A    between atoms: C_5  and  C_6
REMARK    4  A    between atoms: C_13  and  C_14
REMARK    5  A    between atoms: C_16  and  C_19
REMARK    6  A    between atoms: C_22  and  O_23
REMARK    7  A    between atoms: O_23  and  C_24
REMARK                            x       y       z     vdW  Elec       q    Type
REMARK                         _______ _______ _______ _____ _____    ______ ____
ROOT
ATOM      6  C   UNL     1      -2.750  -0.607  24.432  0.00  0.00    +0.227 C 
ATOM      7  O   UNL     1      -3.440  -0.155  24.408  0.00  0.00    -0.275 OA
ATOM      8  N   UNL     1      -2.023  -0.262  24.253  0.00  0.00    -0.267 N 
ATOM      9  C   UNL     1      -1.335  -0.715  24.277  0.00  0.00    +0.141 C 
ATOM     10  C   UNL     1      -0.607  -0.369  24.098  0.00  0.00    +0.094 A 
ATOM     11  C   UNL     1      -0.568   0.429  23.894  0.00  0.00    +0.078 A 
ATOM     12  C   UNL     1      -1.258   0.883  23.870  0.00  0.00    +0.077 C 
ATOM     13  C   UNL     1      -1.985   0.537  24.050  0.00  0.00    +0.161 C 
ATOM     30  N   UNL     1       0.220   0.617  23.746  0.00  0.00    -0.227 NA
ATOM     31  C   UNL     1       0.670  -0.065  23.858  0.00  0.00    +0.198 A 
ATOM     32  N   UNL     1       0.159  -0.674  24.075  0.00  0.00    -0.225 NA
ENDROOT
BRANCH  13  14
ATOM     14  C   UNL     1      -2.674   0.990  24.025  0.00  0.00    +0.255 A 
ATOM     15  N   UNL     1      -2.956   1.478  24.627  0.00  0.00    -0.189 NA
ATOM     16  C   UNL     1      -3.658   1.825  24.368  0.00  0.00    +0.203 A 
ATOM     17  N   UNL     1      -3.810   1.551  23.605  0.00  0.00    -0.056 NA
ATOM     18  O   UNL     1      -3.202   1.035  23.393  0.00  0.00    -0.335 OA
BRANCH  16  19
ATOM     19  C   UNL     1      -4.125   2.352  24.797  0.00  0.00    +0.039 A 
ATOM     20  C   UNL     1      -4.912   2.167  24.960  0.00  0.00    +0.006 A 
ATOM     21  C   UNL     1      -5.379   2.696  25.390  0.00  0.00    +0.037 A 
ATOM     22  C   UNL     1      -5.059   3.408  25.655  0.00  0.00    +0.147 A 
ATOM     28  C   UNL     1      -4.272   3.592  25.492  0.00  0.00    +0.037 A 
ATOM     29  C   UNL     1      -3.804   3.065  25.063  0.00  0.00    +0.006 A 
BRANCH  22  23
ATOM     23  O   UNL     1      -5.526   3.936  26.084  0.00  0.00    -0.404 OA
BRANCH  23  24
ATOM     24  C   UNL     1      -5.980   4.499  25.689  0.00  0.00    +0.575 C 
ATOM     25  F   UNL     1      -6.435   5.062  25.294  0.00  0.00    -0.133 F 
ATOM     26  F   UNL     1      -5.332   5.008  25.669  0.00  0.00    -0.133 F 
ATOM     27  F   UNL     1      -6.628   3.990  25.709  0.00  0.00    -0.133 F 
ENDBRANCH  23  24
ENDBRANCH  22  23
ENDBRANCH  16  19
ENDBRANCH  13  14
BRANCH   6   5
ATOM      5  C   UNL     1      -2.788  -1.406  24.635  0.00  0.00    +0.097 C 
BRANCH   5   4
ATOM      4  C   UNL     1      -3.522  -1.770  24.743  0.00  0.00    +0.124 C 
BRANCH   4   2
ATOM      1  O   UNL     1      -3.783  -3.078  24.234  0.00  0.00    -0.246 OA
ATOM      2  C   UNL     1      -3.564  -2.586  24.858  0.00  0.00    +0.365 C 
ATOM      3  O   UNL     1      -3.388  -2.908  25.597  0.00  0.00    -0.246 OA
ENDBRANCH   4   2
ENDBRANCH   5   4
ENDBRANCH   6   5
TORSDOF 7
ENDMDL
MODEL 5
REMARK VINA RESULT:     -10.2      3.190      5.166
REMARK  Name = 
REMARK  7 active torsions:
REMARK  status: ('A' for Active; 'I' for Inactive)
REMARK    1  A    between atoms: C_2  and  C_4
REMARK    2  A    between atoms: C_4  and  C_5
REMARK    3  A    between atoms: C_5  and  C_6
REMARK    4  A    between atoms: C_13  and  C_14
REMARK    5  A    between atoms: C_16  and  C_19
REMARK    6  A    between atoms: C_22  and  O_23
REMARK    7  A    between atoms: O_23  and  C_24
REMARK                            x       y       z     vdW  Elec       q    Type
REMARK                         _______ _______ _______ _____ _____    ______ ____
ROOT
ATOM      6  C   UNL     1      -4.254   0.866  24.624  0.00  0.00    +0.227 C 
ATOM      7  O   UNL     1      -3.909   1.573  24.374  0.00  0.00    -0.275 OA
ATOM      8  N   UNL     1      -3.811   0.171  24.631  0.00  0.00    -0.267 N 
ATOM      9  C   UNL     1      -4.155  -0.535  24.880  0.00  0.00    +0.141 C 
ATOM     10  C   UNL     1      -3.712  -1.231  24.888  0.00  0.00    +0.094 A 
ATOM     11  C   UNL     1      -2.924  -1.220  24.646  0.00  0.00    +0.078 A 
ATOM     12  C   UNL     1      -2.578  -0.513  24.396  0.00  0.00    +0.077 C 
ATOM     13  C   UNL     1      -3.022   0.182  24.389  0.00  0.00    +0.161 C 
ATOM     30  N   UNL     1      -2.626  -1.986  24.712  0.00  0.00    -0.227 NA
ATOM     31  C   UNL     1      -3.230  -2.471  24.995  0.00  0.00    +0.198 A 
ATOM     32  N   UNL     1      -3.901  -2.004  25.103  0.00  0.00    -0.225 NA
ENDROOT
BRANCH  13  14
ATOM     14  C   UNL     1      -2.677   0.888  24.140  0.00  0.00    +0.255 A 
ATOM     15  N   UNL     1      -2.333   1.459  24.625  0.00  0.00    -0.189 NA
ATOM     16  C   UNL     1      -2.058   2.072  24.146  0.00  0.00    +0.203 A 
ATOM     17  N   UNL     1      -2.232   1.879  23.363  0.00  0.00    -0.056 NA
ATOM     18  O   UNL     1      -2.614   1.148  23.358  0.00  0.00    -0.335 OA
BRANCH  16  19
ATOM     19  C   UNL     1      -1.676   2.756  24.404  0.00  0.00    +0.039 A 
ATOM     20  C   UNL     1      -0.898   2.906  24.176  0.00  0.00    +0.006 A 
ATOM     21  C   UNL     1      -0.517   3.591  24.435  0.00  0.00    +0.037 A 
ATOM     22  C   UNL     1      -0.914   4.124  24.922  0.00  0.00    +0.147 A 
ATOM     28  C   UNL     1      -1.692   3.975  25.150  0.00  0.00    +0.037 A 
ATOM     29  C   UNL     1      -2.074   3.290  24.892  0.00  0.00    +0.006 A 
BRANCH  22  23
ATOM     23  O   UNL     1      -0.533   4.809  25.181  0.00  0.00    -0.404 OA
BRANCH  23  24
ATOM     24  C   UNL     1      -0.796   5.548  24.927  0.00  0.00    +0.575 C 
ATOM     25  F   UNL     1      -1.060   6.287  24.673  0.00  0.00    -0.133 F 
ATOM     26  F   UNL     1      -0.249   5.531  24.310  0.00  0.00    -0.133 F 
ATOM     27  F   UNL     1      -1.344   5.565  25.544  0.00  0.00    -0.133 F 
ENDBRANCH  23  24
ENDBRANCH  22  23
ENDBRANCH  16  19
ENDBRANCH  13  14
BRANCH   6   5
ATOM      5  C   UNL     1      -5.042   0.855  24.866  0.00  0.00    +0.097 C 
BRANCH   5   4
ATOM      4  C   UNL     1      -5.463   1.562  24.936  0.00  0.00    +0.124 C 
BRANCH   4   2
ATOM      1  O   UNL     1      -6.880   1.540  24.762  0.00  0.00    -0.246 OA
ATOM      2  C   UNL     1      -6.222   1.561  25.258  0.00  0.00    +0.365 C 
ATOM      3  O   UNL     1      -6.323   1.580  26.077  0.00  0.00    -0.246 OA
ENDBRANCH   4   2
ENDBRANCH   5   4
ENDBRANCH   6   5
TORSDOF 7
ENDMDL
MODEL 6
REMARK VINA RESULT:     -10.1      3.200      4.816
REMARK  Name = 
REMARK  7 active torsions:
REMARK  status: ('A' for Active; 'I' for Inactive)
REMARK    1  A    between atoms: C_2  and  C_4
REMARK    2  A    between atoms: C_4  and  C_5
REMARK    3  A    between atoms: C_5  and  C_6
REMARK    4  A    between atoms: C_13  and  C_14
REMARK    5  A    between atoms: C_16  and  C_19
REMARK    6  A    between atoms: C_22  and  O_23
REMARK    7  A    between atoms: O_23  and  C_24
REMARK                            x       y       z     vdW  Elec       q    Type
REMARK                         _______ _______ _______ _____ _____    ______ ____
ROOT
ATOM      6  C   UNL     1      -2.842  -0.540  24.610  0.00  0.00    +0.227 C 
ATOM      7  O   UNL     1      -2.037  -0.721  24.617  0.00  0.00    -0.275 OA
ATOM      8  N   UNL     1      -3.089   0.246  24.641  0.00  0.00    -0.267 N 
ATOM      9  C   UNL     1      -3.893   0.427  24.634  0.00  0.00    +0.141 C 
ATOM     10  C   UNL     1      -4.140   1.213  24.665  0.00  0.00    +0.094 A 
ATOM     11  C   UNL     1      -3.582   1.819  24.704  0.00  0.00    +0.078 A 
ATOM     12  C   UNL     1      -2.776   1.639  24.711  0.00  0.00    +0.077 C 
ATOM     13  C   UNL     1      -2.530   0.852  24.679  0.00  0.00    +0.161 C 
ATOM     30  N   UNL     1      -3.986   2.537  24.729  0.00  0.00    -0.227 NA
ATOM     31  C   UNL     1      -4.795   2.376  24.706  0.00  0.00    +0.198 A 
ATOM     32  N   UNL     1      -4.889   1.557  24.667  0.00  0.00    -0.225 NA
ENDROOT
BRANCH  13  14
ATOM     14  C   UNL     1      -1.725   0.672  24.686  0.00  0.00    +0.255 A 
ATOM     15  N   UNL     1      -1.212   0.718  24.043  0.00  0.00    -0.189 NA
ATOM     16  C   UNL     1      -0.461   0.489  24.297  0.00  0.00    +0.203 A 
ATOM     17  N   UNL     1      -0.511   0.301  25.099  0.00  0.00    -0.056 NA
ATOM     18  O   UNL     1      -1.292   0.414  25.340  0.00  0.00    -0.335 OA
BRANCH  16  19
ATOM     19  C   UNL     1       0.219   0.453  23.832  0.00  0.00    +0.039 A 
ATOM     20  C   UNL     1       0.363  -0.208  23.361  0.00  0.00    +0.006 A 
ATOM     21  C   UNL     1       1.044  -0.242  22.895  0.00  0.00    +0.037 A 
ATOM     22  C   UNL     1       1.579   0.385  22.901  0.00  0.00    +0.147 A 
ATOM     28  C   UNL     1       1.435   1.046  23.372  0.00  0.00    +0.037 A 
ATOM     29  C   UNL     1       0.755   1.081  23.838  0.00  0.00    +0.006 A 
BRANCH  22  23
ATOM     23  O   UNL     1       2.260   0.350  22.436  0.00  0.00    -0.404 OA
BRANCH  23  24
ATOM     24  C   UNL     1       3.002   0.303  22.793  0.00  0.00    +0.575 C 
ATOM     25  F   UNL     1       3.743   0.255  23.151  0.00  0.00    -0.133 F 
ATOM     26  F   UNL     1       3.079   1.122  22.742  0.00  0.00    -0.133 F 
ATOM     27  F   UNL     1       2.925  -0.517  22.844  0.00  0.00    -0.133 F 
ENDBRANCH  23  24
ENDBRANCH  22  23
ENDBRANCH  16  19
ENDBRANCH  13  14
BRANCH   6   5
ATOM      5  C   UNL     1      -3.401  -1.146  24.571  0.00  0.00    +0.097 C 
BRANCH   5   4
ATOM      4  C   UNL     1      -3.163  -1.916  24.390  0.00  0.00    +0.124 C 
BRANCH   4   2
ATOM      1  O   UNL     1      -3.706  -3.004  25.140  0.00  0.00    -0.246 OA
ATOM      2  C   UNL     1      -3.698  -2.540  24.459  0.00  0.00    +0.365 C 
ATOM      3  O   UNL     1      -4.226  -2.699  23.845  0.00  0.00    -0.246 OA
ENDBRANCH   4   2
ENDBRANCH   5   4
ENDBRANCH   6   5
TORSDOF 7
ENDMDL
MODEL 7
REMARK VINA RESULT:     -10.0      3.633      6.245
REMARK  Name = 
REMARK  7 active torsions:
REMARK  status: ('A' for Active; 'I' for Inactive)
REMARK    1  A    between atoms: C_2  and  C_4
REMARK    2  A    between atoms: C_4  and  C_5
REMARK    3  A    between atoms: C_5  and  C_6
REMARK    4  A    between atoms: C_13  and  C_14
REMARK    5  A    between atoms: C_16  and  C_19
REMARK    6  A    between atoms: C_22  and  O_23
REMARK    7  A    between atoms: O_23  and  C_24
REMARK                            x       y       z     vdW  Elec       q    Type
REMARK                         _______ _______ _______ _____ _____    ______ ____
ROOT
ATOM      6  C   UNL     1      -0.123  -0.023  24.111  0.00  0.00    +0.227 C 
ATOM      7  O   UNL     1       0.044   0.720  24.428  0.00  0.00    -0.275 OA
ATOM      8  N   UNL     1      -0.760  -0.461  24.398  0.00  0.00    -0.267 N 
ATOM      9  C   UNL     1      -0.927  -1.204  24.081  0.00  0.00    +0.141 C 
ATOM     10  C   UNL     1      -1.564  -1.642  24.368  0.00  0.00    +0.094 A 
ATOM     11  C   UNL     1      -2.034  -1.337  24.974  0.00  0.00    +0.078 A 
ATOM     12  C   UNL     1      -1.867  -0.594  25.292  0.00  0.00    +0.077 C 
ATOM     13  C   UNL     1      -1.230  -0.156  25.004  0.00  0.00    +0.161 C 
ATOM     30  N   UNL     1      -2.621  -1.891  25.145  0.00  0.00    -0.227 NA
ATOM     31  C   UNL     1      -2.513  -2.538  24.645  0.00  0.00    +0.198 A 
ATOM     32  N   UNL     1      -1.860  -2.384  24.166  0.00  0.00    -0.225 NA
ENDROOT
BRANCH  13  14
ATOM     14  C   UNL     1      -1.063   0.586  25.322  0.00  0.00    +0.255 A 
ATOM     15  N   UNL     1      -1.449   1.292  25.137  0.00  0.00    -0.189 NA
ATOM     16  C   UNL     1      -1.105   1.896  25.582  0.00  0.00    +0.203 A 
ATOM     17  N   UNL     1      -0.507   1.564  26.042  0.00  0.00    -0.056 NA
ATOM     18  O   UNL     1      -0.481   0.754  25.882  0.00  0.00    -0.335 OA
BRANCH  16  19
ATOM     19  C   UNL     1      -1.322   2.691  25.568  0.00  0.00    +0.039 A 
ATOM     20  C   UNL     1      -0.759   3.270  25.398  0.00  0.00    +0.006 A 
ATOM     21  C   UNL     1      -0.977   4.066  25.385  0.00  0.00    +0.037 A 
ATOM     22  C   UNL     1      -1.758   4.282  25.541  0.00  0.00    +0.147 A 
ATOM     28  C   UNL     1      -2.320   3.704  25.711  0.00  0.00    +0.037 A 
ATOM     29  C   UNL     1      -2.103   2.908  25.724  0.00  0.00    +0.006 A 
BRANCH  22  23
ATOM     23  O   UNL     1      -1.976   5.078  25.527  0.00  0.00    -0.404 OA
BRANCH  23  24
ATOM     24  C   UNL     1      -1.709   5.568  24.920  0.00  0.00    +0.575 C 
ATOM     25  F   UNL     1      -1.443   6.058  24.312  0.00  0.00    -0.133 F 
ATOM     26  F   UNL     1      -2.354   5.345  24.457  0.00  0.00    -0.133 F 
ATOM     27  F   UNL     1      -1.064   5.791  25.382  0.00  0.00    -0.133 F 
ENDBRANCH  23  24
ENDBRANCH  22  23
ENDBRANCH  16  19
ENDBRANCH  13  14
BRANCH   6   5
ATOM      5  C   UNL     1       0.347  -0.328  23.505  0.00  0.00    +0.097 C 
BRANCH   5   4
ATOM      4  C   UNL     1       0.901   0.155  23.130  0.00  0.00    +0.124 C 
BRANCH   4   2
ATOM      1  O   UNL     1       2.219  -0.285  22.796  0.00  0.00    -0.246 OA
ATOM      2  C   UNL     1       1.430  -0.170  22.585  0.00  0.00    +0.365 C 
ATOM      3  O   UNL     1       1.168  -0.378  21.831  0.00  0.00    -0.246 OA
ENDBRANCH   4   2
ENDBRANCH   5   4
ENDBRANCH   6   5
TORSDOF 7
ENDMDL
MODEL 8
REMARK VINA RESULT:      -9.9      3.054      5.521
REMARK  Name = 
REMARK  7 active torsions:
REMARK  status: ('A' for Active; 'I' for Inactive)
REMARK    1  A    between atoms: C_2  and  C_4
REMARK    2  A    between atoms: C_4  and  C_5
REMARK    3  A    between atoms: C_5  and  C_6
REMARK    4  A    between atoms: C_13  and  C_14
REMARK    5  A    between atoms: C_16  and  C_19
REMARK    6  A    between atoms: C_22  and  O_23
REMARK    7  A    between atoms: O_23  and  C_24
REMARK                            x       y       z     vdW  Elec       q    Type
REMARK                         _______ _______ _______ _____ _____    ______ ____
ROOT
ATOM      6  C   UNL     1      -1.516   0.496  24.243  0.00  0.00    +0.227 C 
ATOM      7  O   UNL     1      -1.960   1.184  24.139  0.00  0.00    -0.275 OA
ATOM      8  N   UNL     1      -1.896  -0.225  24.364  0.00  0.00    -0.267 N 
ATOM      9  C   UNL     1      -1.452  -0.912  24.468  0.00  0.00    +0.141 C 
ATOM     10  C   UNL     1      -1.831  -1.635  24.589  0.00  0.00    +0.094 A 
ATOM     11  C   UNL     1      -2.655  -1.670  24.607  0.00  0.00    +0.078 A 
ATOM     12  C   UNL     1      -3.100  -0.982  24.504  0.00  0.00    +0.077 C 
ATOM     13  C   UNL     1      -2.720  -0.260  24.382  0.00  0.00    +0.161 C 
ATOM     30  N   UNL     1      -2.875  -2.454  24.736  0.00  0.00    -0.227 NA
ATOM     31  C   UNL     1      -2.187  -2.904  24.798  0.00  0.00    +0.198 A 
ATOM     32  N   UNL     1      -1.542  -2.398  24.707  0.00  0.00    -0.225 NA
ENDROOT
BRANCH  13  14
ATOM     14  C   UNL     1      -3.164   0.427  24.279  0.00  0.00    +0.255 A 
ATOM     15  N   UNL     1      -3.527   0.866  24.876  0.00  0.00    -0.189 NA
ATOM     16  C   UNL     1      -3.911   1.506  24.525  0.00  0.00    +0.203 A 
ATOM     17  N   UNL     1      -3.787   1.463  23.712  0.00  0.00    -0.056 NA
ATOM     18  O   UNL     1      -3.325   0.796  23.558  0.00  0.00    -0.335 OA
BRANCH  16  19
ATOM     19  C   UNL     1      -4.344   2.087  24.921  0.00  0.00    +0.039 A 
ATOM     20  C   UNL     1      -5.118   1.933  25.160  0.00  0.00    +0.006 A 
ATOM     21  C   UNL     1      -5.551   2.514  25.556  0.00  0.00    +0.037 A 
ATOM     22  C   UNL     1      -5.209   3.249  25.710  0.00  0.00    +0.147 A 
ATOM     28  C   UNL     1      -4.435   3.403  25.470  0.00  0.00    +0.037 A 
ATOM     29  C   UNL     1      -4.002   2.822  25.075  0.00  0.00    +0.006 A 
BRANCH  22  23
ATOM     23  O   UNL     1      -5.641   3.830  26.106  0.00  0.00    -0.404 OA
BRANCH  23  24
ATOM     24  C   UNL     1      -5.984   4.448  25.681  0.00  0.00    +0.575 C 
ATOM     25  F   UNL     1      -6.327   5.067  25.256  0.00  0.00    -0.133 F 
ATOM     26  F   UNL     1      -5.274   4.866  25.715  0.00  0.00    -0.133 F 
ATOM     27  F   UNL     1      -6.695   4.031  25.647  0.00  0.00    -0.133 F 
ENDBRANCH  23  24
ENDBRANCH  22  23
ENDBRANCH  16  19
ENDBRANCH  13  14
BRANCH   6   5
ATOM      5  C   UNL     1      -0.692   0.531  24.225  0.00  0.00    +0.097 C 
BRANCH   5   4
ATOM      4  C   UNL     1      -0.313   1.236  24.024  0.00  0.00    +0.124 C 
BRANCH   4   2
ATOM      1  O   UNL     1       0.981   0.867  23.544  0.00  0.00    -0.246 OA
ATOM      2  C   UNL     1       0.509   1.291  24.070  0.00  0.00    +0.365 C 
ATOM      3  O   UNL     1       0.858   1.770  24.645  0.00  0.00    -0.246 OA
ENDBRANCH   4   2
ENDBRANCH   5   4
ENDBRANCH   6   5
TORSDOF 7
ENDMDL
MODEL 9
REMARK VINA RESULT:      -9.8      2.933      3.985
REMARK  Name = 
REMARK  7 active torsions:
REMARK  status: ('A' for Active; 'I' for Inactive)
REMARK    1  A    between atoms: C_2  and  C_4
REMARK    2  A    between atoms: C_4  and  C_5
REMARK    3  A    between atoms: C_5  and  C_6
REMARK    4  A    between atoms: C_13  and  C_14
REMARK    5  A    between atoms: C_16  and  C_19
REMARK    6  A    between atoms: C_22  and  O_23
REMARK    7  A    between atoms: O_23  and  C_24
REMARK                            x       y       z     vdW  Elec       q    Type
REMARK                         _______ _______ _______ _____ _____    ______ ____
ROOT
ATOM      6  C   UNL     1      -2.069   3.067  25.121  0.00  0.00    +0.227 C 
ATOM      7  O   UNL     1      -1.346   2.671  25.155  0.00  0.00    -0.275 OA
ATOM      8  N   UNL     1      -2.769   2.641  25.022  0.00  0.00    -0.267 N 
ATOM      9  C   UNL     1      -3.491   3.037  24.988  0.00  0.00    +0.141 C 
ATOM     10  C   UNL     1      -4.191   2.611  24.889  0.00  0.00    +0.094 A 
ATOM     11  C   UNL     1      -4.168   1.789  24.825  0.00  0.00    +0.078 A 
ATOM     12  C   UNL     1      -3.444   1.393  24.858  0.00  0.00    +0.077 C 
ATOM     13  C   UNL     1      -2.745   1.819  24.957  0.00  0.00    +0.161 C 
ATOM     30  N   UNL     1      -4.941   1.519  24.732  0.00  0.00    -0.227 NA
ATOM     31  C   UNL     1      -5.443   2.173  24.739  0.00  0.00    +0.198 A 
ATOM     32  N   UNL     1      -4.979   2.848  24.836  0.00  0.00    -0.225 NA
ENDROOT
BRANCH  13  14
ATOM     14  C   UNL     1      -2.023   1.423  24.991  0.00  0.00    +0.255 A 
ATOM     15  N   UNL     1      -1.589   1.148  24.346  0.00  0.00    -0.189 NA
ATOM     16  C   UNL     1      -0.905   0.786  24.633  0.00  0.00    +0.203 A 
ATOM     17  N   UNL     1      -0.916   0.838  25.456  0.00  0.00    -0.056 NA
ATOM     18  O   UNL     1      -1.607   1.231  25.678  0.00  0.00    -0.335 OA
BRANCH  16  19
ATOM     19  C   UNL     1      -0.314   0.435  24.177  0.00  0.00    +0.039 A 
ATOM     20  C   UNL     1       0.300   0.894  23.873  0.00  0.00    +0.006 A 
ATOM     21  C   UNL     1       0.891   0.542  23.416  0.00  0.00    +0.037 A 
ATOM     22  C   UNL     1       0.867  -0.268  23.264  0.00  0.00    +0.147 A 
ATOM     28  C   UNL     1       0.253  -0.727  23.568  0.00  0.00    +0.037 A 
ATOM     29  C   UNL     1      -0.338  -0.376  24.024  0.00  0.00    +0.006 A 
BRANCH  22  23
ATOM     23  O   UNL     1       1.458  -0.620  22.807  0.00  0.00    -0.404 OA
BRANCH  23  24
ATOM     24  C   UNL     1       1.802  -0.201  22.186  0.00  0.00    +0.575 C 
ATOM     25  F   UNL     1       2.146   0.217  21.564  0.00  0.00    -0.133 F 
ATOM     26  F   UNL     1       1.162  -0.393  21.702  0.00  0.00    -0.133 F 
ATOM     27  F   UNL     1       2.442  -0.009  22.669  0.00  0.00    -0.133 F 
ENDBRANCH  23  24
ENDBRANCH  22  23
ENDBRANCH  16  19
ENDBRANCH  13  14
BRANCH   6   5
ATOM      5  C   UNL     1      -2.093   3.889  25.186  0.00  0.00    +0.097 C 
BRANCH   5   4
ATOM      4  C   UNL     1      -1.405   4.309  25.365  0.00  0.00    +0.124 C 
BRANCH   4   2
ATOM      1  O   UNL     1      -1.911   5.644  25.394  0.00  0.00    -0.246 OA
ATOM      2  C   UNL     1      -1.338   5.103  25.151  0.00  0.00    +0.365 C 
ATOM      3  O   UNL     1      -0.699   5.355  24.695  0.00  0.00    -0.246 OA
ENDBRANCH   4   2
ENDBRANCH   5   4
ENDBRANCH   6   5
TORSDOF 7
ENDMDL
