MODEL 1
REMARK VINA RESULT:     -12.8      0.000      0.000
REMARK  Name = 
REMARK  6 active torsions:
REMARK  status: ('A' for Active; 'I' for Inactive)
REMARK    1  A    between atoms: C_2  and  C_26
REMARK    2  A    between atoms: C_9  and  N_10
REMARK    3  A    between atoms: C_11  and  C_13
REMARK    4  A    between atoms: C_13  and  C_14
REMARK    5  A    between atoms: C_26  and  C_28
REMARK    6  A    between atoms: N_30  and  C_31
REMARK                            x       y       z     vdW  Elec       q    Type
REMARK                         _______ _______ _______ _____ _____    ______ ____
ROOT
ATOM      1  C   UNL     1      -4.015   3.336  24.750  0.00  0.00    +0.052 C 
ATOM      2  C   UNL     1      -4.585   3.360  25.347  0.00  0.00    -0.001 C 
ATOM      3  C   UNL     1      -4.994   2.674  25.554  0.00  0.00    -0.000 C 
ATOM      4  C   UNL     1      -4.833   1.965  25.165  0.00  0.00    -0.001 C 
ATOM      5  C   UNL     1      -5.402   1.989  25.760  0.00  0.00    -0.000 C 
ATOM      6  C   UNL     1      -5.242   1.279  25.372  0.00  0.00    +0.002 C 
ATOM      7  C   UNL     1      -5.081   0.570  24.983  0.00  0.00    +0.022 C 
ATOM      8  C   UNL     1      -4.511   0.546  24.386  0.00  0.00    +0.095 C 
ATOM     19  C   UNL     1      -4.102   1.232  24.179  0.00  0.00    +0.019 C 
ATOM     20  C   UNL     1      -3.533   1.208  23.583  0.00  0.00    +0.002 C 
ATOM     21  C   UNL     1      -4.263   1.942  24.568  0.00  0.00    +0.045 C 
ATOM     22  C   UNL     1      -3.854   2.627  24.361  0.00  0.00    +0.145 C 
ATOM     23  O   UNL     1      -3.285   2.604  23.765  0.00  0.00    -0.224 OA
ENDROOT
BRANCH   8   9
ATOM      9  N   UNL     1      -4.351  -0.164  23.997  0.00  0.00    -0.207 NA
ATOM     10  C   UNL     1      -4.224  -0.853  24.432  0.00  0.00    +0.246 C 
ATOM     11  O   UNL     1      -4.258  -0.833  25.257  0.00  0.00    -0.273 OA
BRANCH  10  12
ATOM     12  C   UNL     1      -4.064  -1.563  24.043  0.00  0.00    +0.113 C 
BRANCH  12  13
ATOM     13  C   UNL     1      -3.457  -2.052  24.310  0.00  0.00    -0.013 A 
ATOM     14  C   UNL     1      -2.670  -1.860  24.147  0.00  0.00    -0.004 A 
ATOM     15  C   UNL     1      -2.062  -2.350  24.415  0.00  0.00    -0.000 A 
ATOM     16  C   UNL     1      -2.240  -3.031  24.845  0.00  0.00    -0.000 A 
ATOM     17  C   UNL     1      -3.026  -3.222  25.008  0.00  0.00    -0.000 A 
ATOM     18  C   UNL     1      -3.634  -2.733  24.741  0.00  0.00    -0.004 A 
ENDBRANCH  12  13
ENDBRANCH  10  12
ENDBRANCH   8   9
BRANCH   1  24
ATOM     24  C   UNL     1      -3.606   4.023  24.543  0.00  0.00    +0.077 C 
ATOM     25  C   UNL     1      -3.888   4.502  23.933  0.00  0.00    +0.009 C 
BRANCH  24  26
ATOM     26  C   UNL     1      -2.916   4.231  24.945  0.00  0.00    +0.241 C 
ATOM     27  O   UNL     1      -2.924   4.301  25.768  0.00  0.00    -0.273 OA
ATOM     28  N   UNL     1      -2.220   4.368  24.527  0.00  0.00    -0.207 NA
BRANCH  28  29
ATOM     29  C   UNL     1      -1.531   4.575  24.929  0.00  0.00    +0.095 C 
ATOM     30  C   UNL     1      -0.933   4.388  25.466  0.00  0.00    +0.023 C 
ATOM     31  C   UNL     1      -0.934   5.123  25.090  0.00  0.00    +0.023 C 
ENDBRANCH  28  29
ENDBRANCH  24  26
ENDBRANCH   1  24
TORSDOF 6
ENDMDL
MODEL 2
REMARK VINA RESULT:     -12.2      2.421      6.245
REMARK  Name = 
REMARK  6 active torsions:
REMARK  status: ('A' for Active; 'I' for Inactive)
REMARK    1  A    between atoms: C_2  and  C_26
REMARK    2  A    between atoms: C_9  and  N_10
REMARK    3  A    between atoms: C_11  and  C_13
REMARK    4  A    between atoms: C_13  and  C_14
REMARK    5  A    between atoms: C_26  and  C_28
REMARK    6  A    between atoms: N_30  and  C_31
REMARK                            x       y       z     vdW  Elec       q    Type
REMARK                         _______ _______ _______ _____ _____    ______ ____
ROOT
ATOM      1  C   UNL     1      -0.946  -1.202  24.648  0.00  0.00    +0.052 C 
ATOM      2  C   UNL     1      -0.551  -1.231  23.924  0.00  0.00    -0.001 C 
ATOM      3  C   UNL     1      -0.166  -0.561  23.637  0.00  0.00    -0.000 C 
ATOM      4  C   UNL     1      -0.175   0.138  24.073  0.00  0.00    -0.001 C 
ATOM      5  C   UNL     1       0.220   0.109  23.351  0.00  0.00    -0.000 C 
ATOM      6  C   UNL     1       0.211   0.809  23.787  0.00  0.00    +0.002 C 
ATOM      7  C   UNL     1       0.202   1.508  24.224  0.00  0.00    +0.022 C 
ATOM      8  C   UNL     1      -0.194   1.538  24.948  0.00  0.00    +0.095 C 
ATOM     19  C   UNL     1      -0.579   0.868  25.235  0.00  0.00    +0.019 C 
ATOM     20  C   UNL     1      -0.974   0.897  25.958  0.00  0.00    +0.002 C 
ATOM     21  C   UNL     1      -0.570   0.167  24.798  0.00  0.00    +0.045 C 
ATOM     22  C   UNL     1      -0.956  -0.503  25.084  0.00  0.00    +0.145 C 
ATOM     23  O   UNL     1      -1.351  -0.473  25.808  0.00  0.00    -0.224 OA
ENDROOT
BRANCH   8   9
ATOM      9  N   UNL     1      -0.203   2.238  25.385  0.00  0.00    -0.207 NA
ATOM     10  C   UNL     1      -0.351   2.957  25.009  0.00  0.00    +0.246 C 
ATOM     11  O   UNL     1      -0.491   2.976  24.195  0.00  0.00    -0.273 OA
BRANCH  10  12
ATOM     12  C   UNL     1      -0.360   3.657  25.446  0.00  0.00    +0.113 C 
BRANCH  12  13
ATOM     13  C   UNL     1      -0.978   4.194  25.351  0.00  0.00    -0.013 A 
ATOM     14  C   UNL     1      -0.849   4.905  24.951  0.00  0.00    -0.004 A 
ATOM     15  C   UNL     1      -1.468   5.443  24.857  0.00  0.00    -0.000 A 
ATOM     16  C   UNL     1      -2.214   5.271  25.162  0.00  0.00    -0.000 A 
ATOM     17  C   UNL     1      -2.343   4.561  25.563  0.00  0.00    -0.000 A 
ATOM     18  C   UNL     1      -1.725   4.023  25.657  0.00  0.00    -0.004 A 
ENDBRANCH  12  13
ENDBRANCH  10  12
ENDBRANCH   8   9
BRANCH   1  24
ATOM     24  C   UNL     1      -1.332  -1.873  24.934  0.00  0.00    +0.077 C 
ATOM     25  C   UNL     1      -1.046  -2.257  25.606  0.00  0.00    +0.009 C 
BRANCH  24  26
ATOM     26  C   UNL     1      -2.003  -2.160  24.550  0.00  0.00    +0.241 C 
ATOM     27  O   UNL     1      -1.922  -2.651  23.890  0.00  0.00    -0.273 OA
ATOM     28  N   UNL     1      -2.754  -1.958  24.823  0.00  0.00    -0.207 NA
BRANCH  28  29
ATOM     29  C   UNL     1      -3.424  -2.245  24.439  0.00  0.00    +0.095 C 
ATOM     30  C   UNL     1      -3.900  -2.879  24.210  0.00  0.00    +0.023 C 
ATOM     31  C   UNL     1      -4.111  -2.109  24.001  0.00  0.00    +0.023 C 
ENDBRANCH  28  29
ENDBRANCH  24  26
ENDBRANCH   1  24
TORSDOF 6
ENDMDL
MODEL 3
REMARK VINA RESULT:     -11.6      0.948      5.135
REMARK  Name = 
REMARK  6 active torsions:
REMARK  status: ('A' for Active; 'I' for Inactive)
REMARK    1  A    between atoms: C_2  and  C_26
REMARK    2  A    between atoms: C_9  and  N_10
REMARK    3  A    between atoms: C_11  and  C_13
REMARK    4  A    between atoms: C_13  and  C_14
REMARK    5  A    between atoms: C_26  and  C_28
REMARK    6  A    between atoms: N_30  and  C_31
REMARK                            x       y       z     vdW  Elec       q    Type
REMARK                         _______ _______ _______ _____ _____    ______ ____
ROOT
ATOM      1  C   UNL     1      -4.147  -0.491  24.410  0.00  0.00    +0.052 C 
ATOM      2  C   UNL     1      -4.734  -0.429  24.987  0.00  0.00    -0.001 C 
ATOM      3  C   UNL     1      -4.966   0.313  25.261  0.00  0.00    -0.000 C 
ATOM      4  C   UNL     1      -4.611   0.993  24.959  0.00  0.00    -0.001 C 
ATOM      5  C   UNL     1      -5.197   1.056  25.535  0.00  0.00    -0.000 C 
ATOM      6  C   UNL     1      -4.842   1.737  25.233  0.00  0.00    +0.002 C 
ATOM      7  C   UNL     1      -4.487   2.417  24.931  0.00  0.00    +0.022 C 
ATOM      8  C   UNL     1      -3.899   2.354  24.354  0.00  0.00    +0.095 C 
ATOM     19  C   UNL     1      -3.668   1.612  24.080  0.00  0.00    +0.019 C 
ATOM     20  C   UNL     1      -3.081   1.550  23.504  0.00  0.00    +0.002 C 
ATOM     21  C   UNL     1      -4.023   0.931  24.382  0.00  0.00    +0.045 C 
ATOM     22  C   UNL     1      -3.792   0.189  24.108  0.00  0.00    +0.145 C 
ATOM     23  O   UNL     1      -3.205   0.126  23.532  0.00  0.00    -0.224 OA
ENDROOT
BRANCH   8   9
ATOM      9  N   UNL     1      -3.544   3.035  24.052  0.00  0.00    -0.207 NA
ATOM     10  C   UNL     1      -3.231   3.600  24.565  0.00  0.00    +0.246 C 
ATOM     11  O   UNL     1      -3.273   3.484  25.382  0.00  0.00    -0.273 OA
BRANCH  10  12
ATOM     12  C   UNL     1      -2.876   4.281  24.263  0.00  0.00    +0.113 C 
BRANCH  12  13
ATOM     13  C   UNL     1      -2.129   4.509  24.528  0.00  0.00    -0.013 A 
ATOM     14  C   UNL     1      -2.052   5.148  25.045  0.00  0.00    -0.004 A 
ATOM     15  C   UNL     1      -1.305   5.376  25.310  0.00  0.00    -0.000 A 
ATOM     16  C   UNL     1      -0.635   4.967  25.058  0.00  0.00    -0.000 A 
ATOM     17  C   UNL     1      -0.712   4.328  24.540  0.00  0.00    -0.000 A 
ATOM     18  C   UNL     1      -1.459   4.100  24.276  0.00  0.00    -0.004 A 
ENDBRANCH  12  13
ENDBRANCH  10  12
ENDBRANCH   8   9
BRANCH   1  24
ATOM     24  C   UNL     1      -3.915  -1.235  24.136  0.00  0.00    +0.077 C 
ATOM     25  C   UNL     1      -4.257  -1.547  23.453  0.00  0.00    +0.009 C 
BRANCH  24  26
ATOM     26  C   UNL     1      -3.343  -1.667  24.545  0.00  0.00    +0.241 C 
ATOM     27  O   UNL     1      -3.506  -1.955  25.301  0.00  0.00    -0.273 OA
ATOM     28  N   UNL     1      -2.609  -1.810  24.198  0.00  0.00    -0.207 NA
BRANCH  28  29
ATOM     29  C   UNL     1      -2.037  -2.242  24.607  0.00  0.00    +0.095 C 
ATOM     30  C   UNL     1      -1.798  -2.938  24.978  0.00  0.00    +0.023 C 
ATOM     31  C   UNL     1      -1.285  -2.293  24.944  0.00  0.00    +0.023 C 
ENDBRANCH  28  29
ENDBRANCH  24  26
ENDBRANCH   1  24
TORSDOF 6
ENDMDL
MODEL 4
REMARK VINA RESULT:     -11.5      2.427      3.515
REMARK  Name = 
REMARK  6 active torsions:
REMARK  status: ('A' for Active; 'I' for Inactive)
REMARK    1  A    between atoms: C_2  and  C_26
REMARK    2  A    between atoms: C_9  and  N_10
REMARK    3  A    between atoms: C_11  and  C_13
REMARK    4  A    between atoms: C_13  and  C_14
REMARK    5  A    between atoms: C_26  and  C_28
REMARK    6  A    between atoms: N_30  and  C_31
REMARK                            x       y       z     vdW  Elec       q    Type
REMARK                         _______ _______ _______ _____ _____    ______ ____
ROOT
ATOM      1  C   UNL     1      -0.084   2.110  25.171  0.00  0.00    +0.052 C 
ATOM      2  C   UNL     1       0.394   2.025  24.503  0.00  0.00    -0.001 C 
ATOM      3  C   UNL     1       0.397   1.314  24.086  0.00  0.00    -0.000 C 
ATOM      4  C   UNL     1      -0.078   0.688  24.335  0.00  0.00    -0.001 C 
ATOM      5  C   UNL     1       0.400   0.603  23.669  0.00  0.00    -0.000 C 
ATOM      6  C   UNL     1      -0.075  -0.024  23.918  0.00  0.00    +0.002 C 
ATOM      7  C   UNL     1      -0.550  -0.650  24.167  0.00  0.00    +0.022 C 
ATOM      8  C   UNL     1      -1.029  -0.565  24.834  0.00  0.00    +0.095 C 
ATOM     19  C   UNL     1      -1.032   0.146  25.252  0.00  0.00    +0.019 C 
ATOM     20  C   UNL     1      -1.510   0.231  25.918  0.00  0.00    +0.002 C 
ATOM     21  C   UNL     1      -0.557   0.773  25.003  0.00  0.00    +0.045 C 
ATOM     22  C   UNL     1      -0.559   1.484  25.420  0.00  0.00    +0.145 C 
ATOM     23  O   UNL     1      -1.037   1.569  26.087  0.00  0.00    -0.224 OA
ENDROOT
BRANCH   8   9
ATOM      9  N   UNL     1      -1.504  -1.192  25.083  0.00  0.00    -0.207 NA
ATOM     10  C   UNL     1      -1.876  -1.674  24.528  0.00  0.00    +0.246 C 
ATOM     11  O   UNL     1      -1.773  -1.530  23.721  0.00  0.00    -0.273 OA
BRANCH  10  12
ATOM     12  C   UNL     1      -2.351  -2.301  24.777  0.00  0.00    +0.113 C 
BRANCH  12  13
ATOM     13  C   UNL     1      -3.105  -2.400  24.458  0.00  0.00    -0.013 A 
ATOM     14  C   UNL     1      -3.316  -3.120  24.113  0.00  0.00    -0.004 A 
ATOM     15  C   UNL     1      -4.071  -3.219  23.794  0.00  0.00    -0.000 A 
ATOM     16  C   UNL     1      -4.614  -2.599  23.819  0.00  0.00    -0.000 A 
ATOM     17  C   UNL     1      -4.403  -1.879  24.164  0.00  0.00    -0.000 A 
ATOM     18  C   UNL     1      -3.649  -1.780  24.483  0.00  0.00    -0.004 A 
ENDBRANCH  12  13
ENDBRANCH  10  12
ENDBRANCH   8   9
BRANCH   1  24
ATOM     24  C   UNL     1      -0.087   2.822  25.588  0.00  0.00    +0.077 C 
ATOM     25  C   UNL     1       0.282   2.869  26.324  0.00  0.00    +0.009 C 
BRANCH  24  26
ATOM     26  C   UNL     1      -0.457   3.487  25.269  0.00  0.00    +0.241 C 
ATOM     27  O   UNL     1      -0.188   3.808  24.558  0.00  0.00    -0.273 OA
ATOM     28  N   UNL     1      -1.096   3.831  25.661  0.00  0.00    -0.207 NA
BRANCH  28  29
ATOM     29  C   UNL     1      -1.465   4.496  25.343  0.00  0.00    +0.095 C 
ATOM     30  C   UNL     1      -1.418   5.242  24.995  0.00  0.00    +0.023 C 
ATOM     31  C   UNL     1      -2.155   4.901  25.138  0.00  0.00    +0.023 C 
ENDBRANCH  28  29
ENDBRANCH  24  26
ENDBRANCH   1  24
TORSDOF 6
ENDMDL
MODEL 5
REMARK VINA RESULT:     -11.2      1.736      2.787
REMARK  Name = 
REMARK  6 active torsions:
REMARK  status: ('A' for Active; 'I' for Inactive)
REMARK    1  A    between atoms: C_2  and  C_26
REMARK    2  A    between atoms: C_9  and  N_10
REMARK    3  A    between atoms: C_11  and  C_13
REMARK    4  A    between atoms: C_13  and  C_14
REMARK    5  A    between atoms: C_26  and  C_28
REMARK    6  A    between atoms: N_30  and  C_31
REMARK                            x       y       z     vdW  Elec       q    Type
REMARK                         _______ _______ _______ _____ _____    ______ ____
ROOT
ATOM      1  C   UNL     1      -2.286   3.157  25.079  0.00  0.00    +0.052 C 
ATOM      2  C   UNL     1      -1.687   3.343  25.617  0.00  0.00    -0.001 C 
ATOM      3  C   UNL     1      -1.138   2.768  25.836  0.00  0.00    -0.000 C 
ATOM      4  C   UNL     1      -1.186   2.009  25.518  0.00  0.00    -0.001 C 
ATOM      5  C   UNL     1      -0.588   2.194  26.055  0.00  0.00    -0.000 C 
ATOM      6  C   UNL     1      -0.636   1.434  25.737  0.00  0.00    +0.002 C 
ATOM      7  C   UNL     1      -0.684   0.675  25.419  0.00  0.00    +0.022 C 
ATOM      8  C   UNL     1      -1.283   0.490  24.881  0.00  0.00    +0.095 C 
ATOM     19  C   UNL     1      -1.832   1.064  24.662  0.00  0.00    +0.019 C 
ATOM     20  C   UNL     1      -2.430   0.879  24.125  0.00  0.00    +0.002 C 
ATOM     21  C   UNL     1      -1.785   1.824  24.980  0.00  0.00    +0.045 C 
ATOM     22  C   UNL     1      -2.334   2.398  24.762  0.00  0.00    +0.145 C 
ATOM     23  O   UNL     1      -2.932   2.213  24.224  0.00  0.00    -0.224 OA
ENDROOT
BRANCH   8   9
ATOM      9  N   UNL     1      -1.330  -0.270  24.563  0.00  0.00    -0.207 NA
ATOM     10  C   UNL     1      -1.399  -0.923  25.062  0.00  0.00    +0.246 C 
ATOM     11  O   UNL     1      -1.420  -0.816  25.881  0.00  0.00    -0.273 OA
BRANCH  10  12
ATOM     12  C   UNL     1      -1.446  -1.683  24.744  0.00  0.00    +0.113 C 
BRANCH  12  13
ATOM     13  C   UNL     1      -2.165  -2.087  24.745  0.00  0.00    -0.013 A 
ATOM     14  C   UNL     1      -2.485  -2.362  24.034  0.00  0.00    -0.004 A 
ATOM     15  C   UNL     1      -3.204  -2.766  24.035  0.00  0.00    -0.000 A 
ATOM     16  C   UNL     1      -3.604  -2.895  24.744  0.00  0.00    -0.000 A 
ATOM     17  C   UNL     1      -3.285  -2.620  25.455  0.00  0.00    -0.000 A 
ATOM     18  C   UNL     1      -2.566  -2.216  25.454  0.00  0.00    -0.004 A 
ENDBRANCH  12  13
ENDBRANCH  10  12
ENDBRANCH   8   9
BRANCH   1  24
ATOM     24  C   UNL     1      -2.836   3.732  24.861  0.00  0.00    +0.077 C 
ATOM     25  C   UNL     1      -2.681   4.229  24.220  0.00  0.00    +0.009 C 
BRANCH  24  26
ATOM     26  C   UNL     1      -3.541   3.812  25.282  0.00  0.00    +0.241 C 
ATOM     27  O   UNL     1      -3.525   4.050  26.072  0.00  0.00    -0.273 OA
ATOM     28  N   UNL     1      -4.262   3.654  24.914  0.00  0.00    -0.207 NA
BRANCH  28  29
ATOM     29  C   UNL     1      -4.966   3.734  25.335  0.00  0.00    +0.095 C 
ATOM     30  C   UNL     1      -5.522   4.211  25.715  0.00  0.00    +0.023 C 
ATOM     31  C   UNL     1      -5.632   3.394  25.685  0.00  0.00    +0.023 C 
ENDBRANCH  28  29
ENDBRANCH  24  26
ENDBRANCH   1  24
TORSDOF 6
ENDMDL
MODEL 6
REMARK VINA RESULT:     -10.9      2.875      4.998
REMARK  Name = 
REMARK  6 active torsions:
REMARK  status: ('A' for Active; 'I' for Inactive)
REMARK    1  A    between atoms: C_2  and  C_26
REMARK    2  A    between atoms: C_9  and  N_10
REMARK    3  A    between atoms: C_11  and  C_13
REMARK    4  A    between atoms: C_13  and  C_14
REMARK    5  A    between atoms: C_26  and  C_28
REMARK    6  A    between atoms: N_30  and  C_31
REMARK                            x       y       z     vdW  Elec       q    Type
REMARK                         _______ _______ _______ _____ _____    ______ ____
ROOT
ATOM      1  C   UNL     1      -0.169   0.858  24.076  0.00  0.00    +0.052 C 
ATOM      2  C   UNL     1       0.301   1.407  24.476  0.00  0.00    -0.001 C 
ATOM      3  C   UNL     1      -0.025   2.118  24.735  0.00  0.00    -0.000 C 
ATOM      4  C   UNL     1      -0.821   2.282  24.595  0.00  0.00    -0.001 C 
ATOM      5  C   UNL     1      -0.351   2.829  24.994  0.00  0.00    -0.000 C 
ATOM      6  C   UNL     1      -1.148   2.994  24.853  0.00  0.00    +0.002 C 
ATOM      7  C   UNL     1      -1.943   3.158  24.713  0.00  0.00    +0.022 C 
ATOM      8  C   UNL     1      -2.413   2.610  24.312  0.00  0.00    +0.095 C 
ATOM     19  C   UNL     1      -2.087   1.899  24.054  0.00  0.00    +0.019 C 
ATOM     20  C   UNL     1      -2.557   1.351  23.654  0.00  0.00    +0.002 C 
ATOM     21  C   UNL     1      -1.291   1.734  24.194  0.00  0.00    +0.045 C 
ATOM     22  C   UNL     1      -0.965   1.022  23.935  0.00  0.00    +0.145 C 
ATOM     23  O   UNL     1      -1.434   0.475  23.535  0.00  0.00    -0.224 OA
ENDROOT
BRANCH   8   9
ATOM      9  N   UNL     1      -3.210   2.775  24.172  0.00  0.00    -0.207 NA
ATOM     10  C   UNL     1      -3.677   3.096  24.770  0.00  0.00    +0.246 C 
ATOM     11  O   UNL     1      -3.348   3.254  25.511  0.00  0.00    -0.273 OA
BRANCH  10  12
ATOM     12  C   UNL     1      -4.473   3.261  24.630  0.00  0.00    +0.113 C 
BRANCH  12  13
ATOM     13  C   UNL     1      -5.059   2.836  25.025  0.00  0.00    -0.013 A 
ATOM     14  C   UNL     1      -5.436   2.206  24.648  0.00  0.00    -0.004 A 
ATOM     15  C   UNL     1      -6.022   1.781  25.044  0.00  0.00    -0.000 A 
ATOM     16  C   UNL     1      -6.231   1.985  25.815  0.00  0.00    -0.000 A 
ATOM     17  C   UNL     1      -5.854   2.616  26.191  0.00  0.00    -0.000 A 
ATOM     18  C   UNL     1      -5.268   3.041  25.796  0.00  0.00    -0.004 A 
ENDBRANCH  12  13
ENDBRANCH  10  12
ENDBRANCH   8   9
BRANCH   1  24
ATOM     24  C   UNL     1       0.158   0.146  23.817  0.00  0.00    +0.077 C 
ATOM     25  C   UNL     1      -0.064  -0.563  24.175  0.00  0.00    +0.009 C 
BRANCH  24  26
ATOM     26  C   UNL     1       0.707   0.143  23.201  0.00  0.00    +0.241 C 
ATOM     27  O   UNL     1       0.452   0.234  22.421  0.00  0.00    -0.273 OA
ATOM     28  N   UNL     1       1.510   0.049  23.363  0.00  0.00    -0.207 NA
BRANCH  28  29
ATOM     29  C   UNL     1       2.058   0.046  22.747  0.00  0.00    +0.095 C 
ATOM     30  C   UNL     1       2.254  -0.135  21.967  0.00  0.00    +0.023 C 
ATOM     31  C   UNL     1       2.812   0.221  22.460  0.00  0.00    +0.023 C 
ENDBRANCH  28  29
ENDBRANCH  24  26
ENDBRANCH   1  24
TORSDOF 6
ENDMDL
MODEL 7
REMARK VINA RESULT:     -10.8      4.038      5.045
REMARK  Name = 
REMARK  6 active torsions:
REMARK  status: ('A' for Active; 'I' for Inactive)
REMARK    1  A    between atoms: C_2  and  C_26
REMARK    2  A    between atoms: C_9  and  N_10
REMARK    3  A    between atoms: C_11  and  C_13
REMARK    4  A    between atoms: C_13  and  C_14
REMARK    5  A    between atoms: C_26  and  C_28
REMARK    6  A    between atoms: N_30  and  C_31
REMARK                            x       y       z     vdW  Elec       q    Type
REMARK                         _______ _______ _______ _____ _____    ______ ____
ROOT
ATOM      1  C   UNL     1       1.251   0.565  23.291  0.00  0.00    +0.052 C 
ATOM      2  C   UNL     1       1.183   1.358  23.513  0.00  0.00    -0.001 C 
ATOM      3  C   UNL     1       0.586   1.590  24.030  0.00  0.00    -0.000 C 
ATOM      4  C   UNL     1       0.056   1.033  24.326  0.00  0.00    -0.001 C 
ATOM      5  C   UNL     1      -0.012   1.823  24.548  0.00  0.00    -0.000 C 
ATOM      6  C   UNL     1      -0.543   1.265  24.845  0.00  0.00    +0.002 C 
ATOM      7  C   UNL     1      -1.073   0.707  25.141  0.00  0.00    +0.022 C 
ATOM      8  C   UNL     1      -1.004  -0.085  24.919  0.00  0.00    +0.095 C 
ATOM     19  C   UNL     1      -0.407  -0.318  24.401  0.00  0.00    +0.019 C 
ATOM     20  C   UNL     1      -0.339  -1.110  24.179  0.00  0.00    +0.002 C 
ATOM     21  C   UNL     1       0.124   0.240  24.104  0.00  0.00    +0.045 C 
ATOM     22  C   UNL     1       0.722   0.007  23.587  0.00  0.00    +0.145 C 
ATOM     23  O   UNL     1       0.790  -0.785  23.365  0.00  0.00    -0.224 OA
ENDROOT
BRANCH   8   9
ATOM      9  N   UNL     1      -1.535  -0.643  25.215  0.00  0.00    -0.207 NA
ATOM     10  C   UNL     1      -2.345  -0.493  25.197  0.00  0.00    +0.246 C 
ATOM     11  O   UNL     1      -2.627   0.217  24.882  0.00  0.00    -0.273 OA
BRANCH  10  12
ATOM     12  C   UNL     1      -2.876  -1.051  25.494  0.00  0.00    +0.113 C 
BRANCH  12  13
ATOM     13  C   UNL     1      -3.349  -1.486  24.978  0.00  0.00    -0.013 A 
ATOM     14  C   UNL     1      -3.261  -2.306  24.928  0.00  0.00    -0.004 A 
ATOM     15  C   UNL     1      -3.735  -2.740  24.411  0.00  0.00    -0.000 A 
ATOM     16  C   UNL     1      -4.297  -2.358  23.945  0.00  0.00    -0.000 A 
ATOM     17  C   UNL     1      -4.385  -1.538  23.995  0.00  0.00    -0.000 A 
ATOM     18  C   UNL     1      -3.912  -1.103  24.511  0.00  0.00    -0.004 A 
ENDBRANCH  12  13
ENDBRANCH  10  12
ENDBRANCH   8   9
BRANCH   1  24
ATOM     24  C   UNL     1       1.850   0.332  22.772  0.00  0.00    +0.077 C 
ATOM     25  C   UNL     1       1.663  -0.096  22.092  0.00  0.00    +0.009 C 
BRANCH  24  26
ATOM     26  C   UNL     1       2.636   0.527  22.933  0.00  0.00    +0.241 C 
ATOM     27  O   UNL     1       2.843   1.312  23.086  0.00  0.00    -0.273 OA
ATOM     28  N   UNL     1       3.214  -0.060  22.941  0.00  0.00    -0.207 NA
BRANCH  28  29
ATOM     29  C   UNL     1       3.998   0.135  23.102  0.00  0.00    +0.095 C 
ATOM     30  C   UNL     1       4.632   0.659  23.036  0.00  0.00    +0.023 C 
ATOM     31  C   UNL     1       4.725  -0.051  23.446  0.00  0.00    +0.023 C 
ENDBRANCH  28  29
ENDBRANCH  24  26
ENDBRANCH   1  24
TORSDOF 6
ENDMDL
MODEL 8
REMARK VINA RESULT:     -10.8      2.038      4.880
REMARK  Name = 
REMARK  6 active torsions:
REMARK  status: ('A' for Active; 'I' for Inactive)
REMARK    1  A    between atoms: C_2  and  C_26
REMARK    2  A    between atoms: C_9  and  N_10
REMARK    3  A    between atoms: C_11  and  C_13
REMARK    4  A    between atoms: C_13  and  C_14
REMARK    5  A    between atoms: C_26  and  C_28
REMARK    6  A    between atoms: N_30  and  C_31
REMARK                            x       y       z     vdW  Elec       q    Type
REMARK                         _______ _______ _______ _____ _____    ______ ____
ROOT
ATOM      1  C   UNL     1      -1.621  -1.390  24.699  0.00  0.00    +0.052 C 
ATOM      2  C   UNL     1      -2.012  -2.008  24.315  0.00  0.00    -0.001 C 
ATOM      3  C   UNL     1      -2.833  -1.996  24.247  0.00  0.00    -0.000 C 
ATOM      4  C   UNL     1      -3.265  -1.368  24.561  0.00  0.00    -0.001 C 
ATOM      5  C   UNL     1      -3.655  -1.985  24.178  0.00  0.00    -0.000 C 
ATOM      6  C   UNL     1      -4.087  -1.356  24.493  0.00  0.00    +0.002 C 
ATOM      7  C   UNL     1      -4.518  -0.728  24.807  0.00  0.00    +0.022 C 
ATOM      8  C   UNL     1      -4.127  -0.110  25.191  0.00  0.00    +0.095 C 
ATOM     19  C   UNL     1      -3.306  -0.121  25.260  0.00  0.00    +0.019 C 
ATOM     20  C   UNL     1      -2.915   0.496  25.643  0.00  0.00    +0.002 C 
ATOM     21  C   UNL     1      -2.874  -0.750  24.945  0.00  0.00    +0.045 C 
ATOM     22  C   UNL     1      -2.052  -0.761  25.013  0.00  0.00    +0.145 C 
ATOM     23  O   UNL     1      -1.662  -0.144  25.397  0.00  0.00    -0.224 OA
ENDROOT
BRANCH   8   9
ATOM      9  N   UNL     1      -4.559   0.519  25.506  0.00  0.00    -0.207 NA
ATOM     10  C   UNL     1      -5.030   0.984  25.014  0.00  0.00    +0.246 C 
ATOM     11  O   UNL     1      -5.070   0.820  24.205  0.00  0.00    -0.273 OA
BRANCH  10  12
ATOM     12  C   UNL     1      -5.463   1.612  25.328  0.00  0.00    +0.113 C 
BRANCH  12  13
ATOM     13  C   UNL     1      -5.194   2.386  25.234  0.00  0.00    -0.013 A 
ATOM     14  C   UNL     1      -4.948   2.649  24.491  0.00  0.00    -0.004 A 
ATOM     15  C   UNL     1      -4.679   3.424  24.396  0.00  0.00    -0.000 A 
ATOM     16  C   UNL     1      -4.657   3.935  25.043  0.00  0.00    -0.000 A 
ATOM     17  C   UNL     1      -4.904   3.672  25.786  0.00  0.00    -0.000 A 
ATOM     18  C   UNL     1      -5.172   2.898  25.880  0.00  0.00    -0.004 A 
ENDBRANCH  12  13
ENDBRANCH  10  12
ENDBRANCH   8   9
BRANCH   1  24
ATOM     24  C   UNL     1      -0.799  -1.402  24.767  0.00  0.00    +0.077 C 
ATOM     25  C   UNL     1      -0.447  -1.653  25.470  0.00  0.00    +0.009 C 
BRANCH  24  26
ATOM     26  C   UNL     1      -0.327  -1.163  24.134  0.00  0.00    +0.241 C 
ATOM     27  O   UNL     1      -0.309  -1.613  23.441  0.00  0.00    -0.273 OA
ATOM     28  N   UNL     1       0.125  -0.476  24.191  0.00  0.00    -0.207 NA
BRANCH  28  29
ATOM     29  C   UNL     1       0.596  -0.238  23.557  0.00  0.00    +0.095 C 
ATOM     30  C   UNL     1       0.933  -0.392  22.820  0.00  0.00    +0.023 C 
ATOM     31  C   UNL     1       1.075   0.329  23.196  0.00  0.00    +0.023 C 
ENDBRANCH  28  29
ENDBRANCH  24  26
ENDBRANCH   1  24
TORSDOF 6
ENDMDL
MODEL 9
REMARK VINA RESULT:      -9.9      2.967      4.153
REMARK  Name = 
REMARK  6 active torsions:
REMARK  status: ('A' for Active; 'I' for Inactive)
REMARK    1  A    between atoms: C_2  and  C_26
REMARK    2  A    between atoms: C_9  and  N_10
REMARK    3  A    between atoms: C_11  and  C_13
REMARK    4  A    between atoms: C_13  and  C_14
REMARK    5  A    between atoms: C_26  and  C_28
REMARK    6  A    between atoms: N_30  and  C_31
REMARK                            x       y       z     vdW  Elec       q    Type
REMARK                         _______ _______ _______ _____ _____    ______ ____
ROOT
ATOM      1  C   UNL     1      -2.976   3.024  24.630  0.00  0.00    +0.052 C 
ATOM      2  C   UNL     1      -2.556   3.532  25.127  0.00  0.00    -0.001 C 
ATOM      3  C   UNL     1      -1.784   3.345  25.349  0.00  0.00    -0.000 C 
ATOM      4  C   UNL     1      -1.432   2.652  25.075  0.00  0.00    -0.001 C 
ATOM      5  C   UNL     1      -1.012   3.158  25.571  0.00  0.00    -0.000 C 
ATOM      6  C   UNL     1      -0.660   2.464  25.297  0.00  0.00    +0.002 C 
ATOM      7  C   UNL     1      -0.308   1.771  25.023  0.00  0.00    +0.022 C 
ATOM      8  C   UNL     1      -0.729   1.263  24.526  0.00  0.00    +0.095 C 
ATOM     19  C   UNL     1      -1.500   1.450  24.304  0.00  0.00    +0.019 C 
ATOM     20  C   UNL     1      -1.921   0.943  23.807  0.00  0.00    +0.002 C 
ATOM     21  C   UNL     1      -1.853   2.144  24.578  0.00  0.00    +0.045 C 
ATOM     22  C   UNL     1      -2.625   2.331  24.356  0.00  0.00    +0.145 C 
ATOM     23  O   UNL     1      -3.045   1.824  23.859  0.00  0.00    -0.224 OA
ENDROOT
BRANCH   8   9
ATOM      9  N   UNL     1      -0.376   0.569  24.251  0.00  0.00    -0.207 NA
ATOM     10  C   UNL     1       0.362   0.598  23.886  0.00  0.00    +0.246 C 
ATOM     11  O   UNL     1       0.750   1.322  23.794  0.00  0.00    -0.273 OA
BRANCH  10  12
ATOM     12  C   UNL     1       0.715  -0.096  23.612  0.00  0.00    +0.113 C 
BRANCH  12  13
ATOM     13  C   UNL     1       1.304  -0.060  23.037  0.00  0.00    -0.013 A 
ATOM     14  C   UNL     1       2.064   0.194  23.240  0.00  0.00    -0.004 A 
ATOM     15  C   UNL     1       2.654   0.230  22.664  0.00  0.00    -0.000 A 
ATOM     16  C   UNL     1       2.486   0.012  21.887  0.00  0.00    -0.000 A 
ATOM     17  C   UNL     1       1.727  -0.243  21.684  0.00  0.00    -0.000 A 
ATOM     18  C   UNL     1       1.137  -0.279  22.259  0.00  0.00    -0.004 A 
ENDBRANCH  12  13
ENDBRANCH  10  12
ENDBRANCH   8   9
BRANCH   1  24
ATOM     24  C   UNL     1      -3.749   3.211  24.408  0.00  0.00    +0.077 C 
ATOM     25  C   UNL     1      -3.905   3.476  23.642  0.00  0.00    +0.009 C 
BRANCH  24  26
ATOM     26  C   UNL     1      -4.365   3.135  24.951  0.00  0.00    +0.241 C 
ATOM     27  O   UNL     1      -4.418   3.654  25.592  0.00  0.00    -0.273 OA
ATOM     28  N   UNL     1      -4.929   2.541  24.855  0.00  0.00    -0.207 NA
BRANCH  28  29
ATOM     29  C   UNL     1      -5.545   2.465  25.398  0.00  0.00    +0.095 C 
ATOM     30  C   UNL     1      -5.854   2.129  26.085  0.00  0.00    +0.023 C 
ATOM     31  C   UNL     1      -6.303   2.669  25.652  0.00  0.00    +0.023 C 
ENDBRANCH  28  29
ENDBRANCH  24  26
ENDBRANCH   1  24
TORSDOF 6
ENDMDL
