MODEL 1
REMARK VINA RESULT:      -9.7      0.000      0.000
REMARK  Name = 
REMARK  6 active torsions:
REMARK  status: ('A' for Active; 'I' for Inactive)
REMARK    1  A    between atoms: N_2  and  C_4
REMARK    2  A    between atoms: C_7  and  C_10
REMARK    3  A    between atoms: N_15  and  C_16
REMARK    4  A    between atoms: C_20  and  N_24
REMARK    5  A    between atoms: N_27  and  C_28
REMARK    6  A    between atoms: C_30  and  C_34
REMARK                            x       y       z     vdW  Elec       q    Type
REMARK                         _______ _______ _______ _____ _____    ______ ____
ROOT
ATOM     16  C   UNL     1      -0.858   0.322  24.367  0.00  0.00    +0.154 C 
ATOM     17  C   UNL     1      -0.778  -0.498  24.340  0.00  0.00    +0.166 C 
ATOM     18  O   UNL     1      -0.081  -0.672  23.934  0.00  0.00    -0.350 OA
ATOM     19  C   UNL     1       0.268   0.040  23.709  0.00  0.00    +0.166 C 
ATOM     20  C   UNL     1       0.914   0.374  23.320  0.00  0.00    +0.156 C 
ATOM     21  C   UNL     1       0.833   1.194  23.346  0.00  0.00    +0.166 C 
ATOM     22  O   UNL     1       0.137   1.368  23.753  0.00  0.00    -0.350 OA
ATOM     23  C   UNL     1      -0.212   0.654  23.977  0.00  0.00    +0.166 C 
ENDROOT
BRANCH  16  15
ATOM     10  C   UNL     1      -3.637   0.979  24.509  0.00  0.00    +0.086 A 
ATOM     11  C   UNL     1      -3.788   0.477  23.871  0.00  0.00    +0.040 A 
ATOM     12  C   UNL     1      -3.169   0.062  23.517  0.00  0.00    +0.103 A 
ATOM     13  N   UNL     1      -2.398   0.149  23.800  0.00  0.00    -0.211 NA
ATOM     14  C   UNL     1      -2.248   0.651  24.438  0.00  0.00    +0.237 A 
ATOM     15  N   UNL     1      -1.478   0.737  24.721  0.00  0.00    -0.200 NA
ATOM     38  N   UNL     1      -2.867   1.065  24.792  0.00  0.00    -0.212 NA
BRANCH  10   7
ATOM      4  C   UNL     1      -5.495   2.222  25.571  0.00  0.00    +0.048 A 
ATOM      5  C   UNL     1      -4.853   2.631  25.251  0.00  0.00    +0.015 A 
ATOM      6  C   UNL     1      -4.235   2.217  24.897  0.00  0.00    +0.003 A 
ATOM      7  C   UNL     1      -4.256   1.393  24.863  0.00  0.00    +0.018 A 
ATOM      8  C   UNL     1      -4.896   0.983  25.183  0.00  0.00    +0.003 A 
ATOM      9  C   UNL     1      -5.516   1.398  25.537  0.00  0.00    +0.015 A 
BRANCH   4   2
ATOM      1  C   UNL     1      -6.610   2.256  26.463  0.00  0.00    +0.112 C 
ATOM      2  N   UNL     1      -6.113   2.636  25.925  0.00  0.00    -0.304 N 
ATOM      3  C   UNL     1      -6.237   3.431  25.741  0.00  0.00    +0.112 C 
ENDBRANCH   4   2
ENDBRANCH  10   7
ENDBRANCH  16  15
BRANCH  20  24
ATOM     24  N   UNL     1       1.534  -0.041  22.965  0.00  0.00    -0.184 NA
ATOM     25  C   UNL     1       2.315   0.180  23.110  0.00  0.00    +0.344 C 
ATOM     26  O   UNL     1       2.478   0.816  23.609  0.00  0.00    -0.249 OA
ATOM     27  N   UNL     1       2.934  -0.234  22.756  0.00  0.00    -0.161 NA
BRANCH  27  28
ATOM     28  C   UNL     1       3.715  -0.013  22.901  0.00  0.00    +0.075 A 
ATOM     29  C   UNL     1       4.151  -0.396  23.487  0.00  0.00    +0.021 A 
ATOM     30  C   UNL     1       4.932  -0.175  23.632  0.00  0.00    +0.073 A 
ATOM     31  C   UNL     1       5.278   0.430  23.190  0.00  0.00    +0.004 A 
ATOM     32  C   UNL     1       4.843   0.813  22.603  0.00  0.00    +0.001 A 
ATOM     33  C   UNL     1       4.061   0.591  22.459  0.00  0.00    +0.017 A 
BRANCH  30  34
ATOM     34  C   UNL     1       5.367  -0.558  24.219  0.00  0.00    +0.419 C 
ATOM     35  F   UNL     1       5.803  -0.941  24.805  0.00  0.00    -0.166 F 
ATOM     36  F   UNL     1       5.332  -1.260  23.787  0.00  0.00    -0.166 F 
ATOM     37  F   UNL     1       5.403   0.144  24.651  0.00  0.00    -0.166 F 
ENDBRANCH  30  34
ENDBRANCH  27  28
ENDBRANCH  20  24
TORSDOF 6
ENDMDL
MODEL 2
REMARK VINA RESULT:      -9.7      3.584      8.243
REMARK  Name = 
REMARK  6 active torsions:
REMARK  status: ('A' for Active; 'I' for Inactive)
REMARK    1  A    between atoms: N_2  and  C_4
REMARK    2  A    between atoms: C_7  and  C_10
REMARK    3  A    between atoms: N_15  and  C_16
REMARK    4  A    between atoms: C_20  and  N_24
REMARK    5  A    between atoms: N_27  and  C_28
REMARK    6  A    between atoms: C_30  and  C_34
REMARK                            x       y       z     vdW  Elec       q    Type
REMARK                         _______ _______ _______ _____ _____    ______ ____
ROOT
ATOM     16  C   UNL     1      -0.236   0.824  23.826  0.00  0.00    +0.154 C 
ATOM     17  C   UNL     1      -0.713   0.165  23.690  0.00  0.00    +0.166 C 
ATOM     18  O   UNL     1      -1.490   0.428  23.602  0.00  0.00    -0.350 OA
ATOM     19  C   UNL     1      -1.493   1.248  23.683  0.00  0.00    +0.166 C 
ATOM     20  C   UNL     1      -1.974   1.918  23.679  0.00  0.00    +0.156 C 
ATOM     21  C   UNL     1      -1.497   2.577  23.815  0.00  0.00    +0.166 C 
ATOM     22  O   UNL     1      -0.720   2.314  23.903  0.00  0.00    -0.350 OA
ATOM     23  C   UNL     1      -0.718   1.493  23.822  0.00  0.00    +0.166 C 
ENDROOT
BRANCH  16  15
ATOM     10  C   UNL     1       2.390   0.137  22.928  0.00  0.00    +0.086 A 
ATOM     11  C   UNL     1       2.069  -0.188  22.241  0.00  0.00    +0.040 A 
ATOM     12  C   UNL     1       1.253  -0.179  22.122  0.00  0.00    +0.103 A 
ATOM     13  N   UNL     1       0.756   0.155  22.690  0.00  0.00    -0.211 NA
ATOM     14  C   UNL     1       1.077   0.481  23.377  0.00  0.00    +0.237 A 
ATOM     15  N   UNL     1       0.581   0.815  23.945  0.00  0.00    -0.200 NA
ATOM     38  N   UNL     1       1.893   0.471  23.496  0.00  0.00    -0.212 NA
BRANCH  10   7
ATOM      4  C   UNL     1       4.839   0.110  23.284  0.00  0.00    +0.048 A 
ATOM      5  C   UNL     1       4.383  -0.544  23.497  0.00  0.00    +0.015 A 
ATOM      6  C   UNL     1       3.567  -0.535  23.379  0.00  0.00    +0.003 A 
ATOM      7  C   UNL     1       3.205   0.128  23.047  0.00  0.00    +0.018 A 
ATOM      8  C   UNL     1       3.660   0.782  22.833  0.00  0.00    +0.003 A 
ATOM      9  C   UNL     1       4.477   0.773  22.952  0.00  0.00    +0.015 A 
BRANCH   4   2
ATOM      1  C   UNL     1       5.976   0.442  24.082  0.00  0.00    +0.112 C 
ATOM      2  N   UNL     1       5.655   0.101  23.403  0.00  0.00    -0.304 N 
ATOM      3  C   UNL     1       6.150  -0.249  22.843  0.00  0.00    +0.112 C 
ENDBRANCH   4   2
ENDBRANCH  10   7
ENDBRANCH  16  15
BRANCH  20  24
ATOM     24  N   UNL     1      -2.791   1.927  23.560  0.00  0.00    -0.184 NA
ATOM     25  C   UNL     1      -3.286   2.273  24.122  0.00  0.00    +0.344 C 
ATOM     26  O   UNL     1      -2.965   2.610  24.803  0.00  0.00    -0.249 OA
ATOM     27  N   UNL     1      -4.102   2.282  24.004  0.00  0.00    -0.161 NA
BRANCH  27  28
ATOM     28  C   UNL     1      -4.598   2.628  24.565  0.00  0.00    +0.075 A 
ATOM     29  C   UNL     1      -5.103   2.157  25.016  0.00  0.00    +0.021 A 
ATOM     30  C   UNL     1      -5.598   2.503  25.577  0.00  0.00    +0.073 A 
ATOM     31  C   UNL     1      -5.588   3.321  25.689  0.00  0.00    +0.004 A 
ATOM     32  C   UNL     1      -5.082   3.792  25.238  0.00  0.00    +0.001 A 
ATOM     33  C   UNL     1      -4.587   3.445  24.677  0.00  0.00    +0.017 A 
BRANCH  30  34
ATOM     34  C   UNL     1      -6.104   2.031  26.028  0.00  0.00    +0.419 C 
ATOM     35  F   UNL     1      -6.609   1.560  26.478  0.00  0.00    -0.166 F 
ATOM     36  F   UNL     1      -5.772   2.336  26.719  0.00  0.00    -0.166 F 
ATOM     37  F   UNL     1      -6.435   1.726  25.337  0.00  0.00    -0.166 F 
ENDBRANCH  30  34
ENDBRANCH  27  28
ENDBRANCH  20  24
TORSDOF 6
ENDMDL
