MODEL 1
REMARK VINA RESULT:     -13.8      0.000      0.000
REMARK  Name = 
REMARK  4 active torsions:
REMARK  status: ('A' for Active; 'I' for Inactive)
REMARK    1  A    between atoms: O_2  and  C_3
REMARK    2  A    between atoms: C_8  and  N_9
REMARK    3  A    between atoms: N_12  and  C_13
REMARK    4  A    between atoms: N_25  and  C_26
REMARK                            x       y       z     vdW  Elec       q    Type
REMARK                         _______ _______ _______ _____ _____    ______ ____
ROOT
ATOM     13  C   UNL     1      -4.050   1.004  24.014  0.00  0.00    +0.131 A 
ATOM     14  C   UNL     1      -4.793   0.822  24.324  0.00  0.00    +0.023 A 
ATOM     15  C   UNL     1      -5.154   1.334  24.860  0.00  0.00    +0.014 A 
ATOM     16  C   UNL     1      -4.772   2.029  25.087  0.00  0.00    +0.041 A 
ATOM     17  C   UNL     1      -4.888   2.764  25.626  0.00  0.00    +0.058 C 
ATOM     18  C   UNL     1      -5.346   3.052  26.073  0.00  0.00    +0.011 C 
ATOM     19  C   UNL     1      -4.613   3.229  25.766  0.00  0.00    +0.043 C 
ATOM     20  C   UNL     1      -3.739   3.612  25.510  0.00  0.00    +0.097 C 
ATOM     21  N   UNL     1      -3.477   3.022  24.980  0.00  0.00    -0.262 N 
ATOM     22  C   UNL     1      -4.047   3.148  25.388  0.00  0.00    +0.101 C 
ATOM     23  C   UNL     1      -2.984   2.631  24.446  0.00  0.00    +0.327 C 
ATOM     24  O   UNL     1      -3.219   1.911  24.118  0.00  0.00    -0.250 OA
ATOM     25  N   UNL     1      -2.257   2.961  24.239  0.00  0.00    -0.162 NA
ATOM     33  C   UNL     1      -4.482   2.464  25.200  0.00  0.00    +0.110 C 
ATOM     34  N   UNL     1      -4.029   2.212  24.777  0.00  0.00    -0.298 N 
ATOM     35  C   UNL     1      -3.668   1.699  24.241  0.00  0.00    +0.276 A 
ATOM     36  O   UNL     1      -2.966   1.658  23.810  0.00  0.00    -0.266 OA
ENDROOT
BRANCH  25  26
ATOM     26  C   UNL     1      -2.021   3.680  24.566  0.00  0.00    +0.075 A 
ATOM     27  C   UNL     1      -2.241   4.389  24.206  0.00  0.00    +0.019 A 
ATOM     28  C   UNL     1      -2.007   5.108  24.532  0.00  0.00    +0.031 A 
ATOM     29  C   UNL     1      -1.551   5.120  25.220  0.00  0.00    +0.140 A 
ATOM     30  F   UNL     1      -1.316   5.841  25.547  0.00  0.00    -0.204 F 
ATOM     31  C   UNL     1      -1.331   4.412  25.581  0.00  0.00    +0.031 A 
ATOM     32  C   UNL     1      -1.566   3.692  25.254  0.00  0.00    +0.019 A 
ENDBRANCH  25  26
BRANCH  13  12
ATOM      9  N   UNL     1      -3.868  -0.591  24.393  0.00  0.00    -0.158 NA
ATOM     10  C   UNL     1      -3.599  -0.306  23.667  0.00  0.00    +0.348 C 
ATOM     11  O   UNL     1      -3.239  -0.819  23.129  0.00  0.00    -0.248 OA
ATOM     12  N   UNL     1      -3.691   0.492  23.478  0.00  0.00    -0.156 NA
BRANCH   9   8
ATOM      3  C   UNL     1      -3.423  -1.607  25.295  0.00  0.00    +0.154 A 
ATOM      4  C   UNL     1      -3.332  -2.405  25.483  0.00  0.00    +0.038 A 
ATOM      5  C   UNL     1      -3.593  -2.985  24.958  0.00  0.00    +0.003 A 
ATOM      6  C   UNL     1      -3.946  -2.768  24.245  0.00  0.00    +0.002 A 
ATOM      7  C   UNL     1      -4.037  -1.970  24.056  0.00  0.00    +0.020 A 
ATOM      8  C   UNL     1      -3.776  -1.390  24.582  0.00  0.00    +0.109 A 
BRANCH   3   2
ATOM      1  C   UNL     1      -2.812  -1.245  26.535  0.00  0.00    +0.253 C 
ATOM      2  O   UNL     1      -3.162  -1.027  25.820  0.00  0.00    -0.470 OA
ENDBRANCH   3   2
ENDBRANCH   9   8
ENDBRANCH  13  12
TORSDOF 4
ENDMDL
MODEL 2
REMARK VINA RESULT:     -13.0      1.906      4.807
REMARK  Name = 
REMARK  4 active torsions:
REMARK  status: ('A' for Active; 'I' for Inactive)
REMARK    1  A    between atoms: O_2  and  C_3
REMARK    2  A    between atoms: C_8  and  N_9
REMARK    3  A    between atoms: N_12  and  C_13
REMARK    4  A    between atoms: N_25  and  C_26
REMARK                            x       y       z     vdW  Elec       q    Type
REMARK                         _______ _______ _______ _____ _____    ______ ____
ROOT
ATOM     13  C   UNL     1      -3.378   2.257  23.831  0.00  0.00    +0.131 A 
ATOM     14  C   UNL     1      -3.897   2.811  24.155  0.00  0.00    +0.023 A 
ATOM     15  C   UNL     1      -4.512   2.564  24.646  0.00  0.00    +0.014 A 
ATOM     16  C   UNL     1      -4.608   1.762  24.813  0.00  0.00    +0.041 A 
ATOM     17  C   UNL     1      -5.151   1.193  25.288  0.00  0.00    +0.058 C 
ATOM     18  C   UNL     1      -5.712   1.191  25.710  0.00  0.00    +0.011 C 
ATOM     19  C   UNL     1      -5.198   0.646  25.389  0.00  0.00    +0.043 C 
ATOM     20  C   UNL     1      -4.690  -0.151  25.102  0.00  0.00    +0.097 C 
ATOM     21  N   UNL     1      -4.111   0.216  24.624  0.00  0.00    -0.262 N 
ATOM     22  C   UNL     1      -4.670   0.412  25.020  0.00  0.00    +0.101 C 
ATOM     23  C   UNL     1      -3.458   0.288  24.125  0.00  0.00    +0.327 C 
ATOM     24  O   UNL     1      -3.221   1.033  23.860  0.00  0.00    -0.250 OA
ATOM     25  N   UNL     1      -3.041  -0.384  23.892  0.00  0.00    -0.162 NA
ATOM     33  C   UNL     1      -4.626   1.233  24.889  0.00  0.00    +0.110 C 
ATOM     34  N   UNL     1      -4.089   1.208  24.490  0.00  0.00    -0.298 N 
ATOM     35  C   UNL     1      -3.474   1.455  23.999  0.00  0.00    +0.276 A 
ATOM     36  O   UNL     1      -2.854   1.115  23.574  0.00  0.00    -0.266 OA
ENDROOT
BRANCH  25  26
ATOM     26  C   UNL     1      -3.276  -1.129  24.158  0.00  0.00    +0.075 A 
ATOM     27  C   UNL     1      -2.950  -1.444  24.847  0.00  0.00    +0.019 A 
ATOM     28  C   UNL     1      -3.185  -2.188  25.113  0.00  0.00    +0.031 A 
ATOM     29  C   UNL     1      -3.748  -2.619  24.689  0.00  0.00    +0.140 A 
ATOM     30  F   UNL     1      -3.983  -3.364  24.955  0.00  0.00    -0.204 F 
ATOM     31  C   UNL     1      -4.074  -2.304  24.000  0.00  0.00    +0.031 A 
ATOM     32  C   UNL     1      -3.839  -1.560  23.734  0.00  0.00    +0.019 A 
ENDBRANCH  25  26
BRANCH  13  12
ATOM      9  N   UNL     1      -2.217   3.275  24.413  0.00  0.00    -0.158 NA
ATOM     10  C   UNL     1      -2.183   3.014  23.631  0.00  0.00    +0.348 C 
ATOM     11  O   UNL     1      -1.567   3.262  23.140  0.00  0.00    -0.248 OA
ATOM     12  N   UNL     1      -2.763   2.505  23.341  0.00  0.00    -0.156 NA
BRANCH   9   8
ATOM      3  C   UNL     1      -1.134   3.535  25.310  0.00  0.00    +0.154 A 
ATOM      4  C   UNL     1      -0.553   4.044  25.599  0.00  0.00    +0.038 A 
ATOM      5  C   UNL     1      -0.474   4.802  25.283  0.00  0.00    +0.003 A 
ATOM      6  C   UNL     1      -0.975   5.051  24.677  0.00  0.00    +0.002 A 
ATOM      7  C   UNL     1      -1.556   4.542  24.388  0.00  0.00    +0.020 A 
ATOM      8  C   UNL     1      -1.635   3.784  24.704  0.00  0.00    +0.109 A 
BRANCH   3   2
ATOM      1  C   UNL     1      -0.684   2.512  26.201  0.00  0.00    +0.253 C 
ATOM      2  O   UNL     1      -1.213   2.777  25.626  0.00  0.00    -0.470 OA
ENDBRANCH   3   2
ENDBRANCH   9   8
ENDBRANCH  13  12
TORSDOF 4
ENDMDL
MODEL 3
REMARK VINA RESULT:     -12.4      1.731      2.719
REMARK  Name = 
REMARK  4 active torsions:
REMARK  status: ('A' for Active; 'I' for Inactive)
REMARK    1  A    between atoms: O_2  and  C_3
REMARK    2  A    between atoms: C_8  and  N_9
REMARK    3  A    between atoms: N_12  and  C_13
REMARK    4  A    between atoms: N_25  and  C_26
REMARK                            x       y       z     vdW  Elec       q    Type
REMARK                         _______ _______ _______ _____ _____    ______ ____
ROOT
ATOM     13  C   UNL     1      -1.901   0.965  24.568  0.00  0.00    +0.131 A 
ATOM     14  C   UNL     1      -1.576   0.873  23.816  0.00  0.00    +0.023 A 
ATOM     15  C   UNL     1      -1.867   1.315  23.183  0.00  0.00    +0.014 A 
ATOM     16  C   UNL     1      -2.483   1.849  23.302  0.00  0.00    +0.041 A 
ATOM     17  C   UNL     1      -3.003   2.453  22.845  0.00  0.00    +0.058 C 
ATOM     18  C   UNL     1      -3.101   2.720  22.203  0.00  0.00    +0.011 C 
ATOM     19  C   UNL     1      -3.420   2.809  22.947  0.00  0.00    +0.043 C 
ATOM     20  C   UNL     1      -3.929   3.055  23.758  0.00  0.00    +0.097 C 
ATOM     21  N   UNL     1      -3.555   2.557  24.314  0.00  0.00    -0.262 N 
ATOM     22  C   UNL     1      -3.504   2.701  23.619  0.00  0.00    +0.101 C 
ATOM     23  C   UNL     1      -3.388   2.204  25.042  0.00  0.00    +0.327 C 
ATOM     24  O   UNL     1      -2.790   1.638  25.098  0.00  0.00    -0.250 OA
ATOM     25  N   UNL     1      -3.820   2.417  25.712  0.00  0.00    -0.162 NA
ATOM     33  C   UNL     1      -2.882   2.180  23.434  0.00  0.00    +0.110 C 
ATOM     34  N   UNL     1      -2.809   1.942  24.055  0.00  0.00    -0.298 N 
ATOM     35  C   UNL     1      -2.518   1.500  24.688  0.00  0.00    +0.276 A 
ATOM     36  O   UNL     1      -2.665   1.414  25.495  0.00  0.00    -0.266 OA
ENDROOT
BRANCH  25  26
ATOM     26  C   UNL     1      -4.417   2.982  25.656  0.00  0.00    +0.075 A 
ATOM     27  C   UNL     1      -5.198   2.746  25.532  0.00  0.00    +0.019 A 
ATOM     28  C   UNL     1      -5.796   3.311  25.476  0.00  0.00    +0.031 A 
ATOM     29  C   UNL     1      -5.614   4.113  25.543  0.00  0.00    +0.140 A 
ATOM     30  F   UNL     1      -6.212   4.679  25.487  0.00  0.00    -0.204 F 
ATOM     31  C   UNL     1      -4.833   4.349  25.667  0.00  0.00    +0.031 A 
ATOM     32  C   UNL     1      -4.235   3.785  25.723  0.00  0.00    +0.019 A 
ENDBRANCH  25  26
BRANCH  13  12
ATOM      9  N   UNL     1      -2.059  -0.677  24.569  0.00  0.00    -0.158 NA
ATOM     10  C   UNL     1      -1.688  -0.298  25.201  0.00  0.00    +0.348 C 
ATOM     11  O   UNL     1      -1.396  -0.740  25.834  0.00  0.00    -0.248 OA
ATOM     12  N   UNL     1      -1.609   0.523  25.200  0.00  0.00    -0.156 NA
BRANCH   9   8
ATOM      3  C   UNL     1      -2.869  -1.844  24.410  0.00  0.00    +0.154 A 
ATOM      4  C   UNL     1      -2.947  -2.665  24.412  0.00  0.00    +0.038 A 
ATOM      5  C   UNL     1      -2.293  -3.141  24.573  0.00  0.00    +0.003 A 
ATOM      6  C   UNL     1      -1.560  -2.796  24.734  0.00  0.00    +0.002 A 
ATOM      7  C   UNL     1      -1.483  -1.975  24.732  0.00  0.00    +0.020 A 
ATOM      8  C   UNL     1      -2.137  -1.499  24.570  0.00  0.00    +0.109 A 
BRANCH   3   2
ATOM      1  C   UNL     1      -4.214  -1.704  23.947  0.00  0.00    +0.253 C 
ATOM      2  O   UNL     1      -3.523  -1.368  24.249  0.00  0.00    -0.470 OA
ENDBRANCH   3   2
ENDBRANCH   9   8
ENDBRANCH  13  12
TORSDOF 4
ENDMDL
MODEL 4
REMARK VINA RESULT:     -12.2      2.078      3.215
REMARK  Name = 
REMARK  4 active torsions:
REMARK  status: ('A' for Active; 'I' for Inactive)
REMARK    1  A    between atoms: O_2  and  C_3
REMARK    2  A    between atoms: C_8  and  N_9
REMARK    3  A    between atoms: N_12  and  C_13
REMARK    4  A    between atoms: N_25  and  C_26
REMARK                            x       y       z     vdW  Elec       q    Type
REMARK                         _______ _______ _______ _____ _____    ______ ____
ROOT
ATOM     13  C   UNL     1      -1.226  -0.312  25.402  0.00  0.00    +0.131 A 
ATOM     14  C   UNL     1      -0.751  -0.818  24.955  0.00  0.00    +0.023 A 
ATOM     15  C   UNL     1      -0.209  -0.506  24.417  0.00  0.00    +0.014 A 
ATOM     16  C   UNL     1      -0.141   0.310  24.326  0.00  0.00    +0.041 A 
ATOM     17  C   UNL     1       0.329   0.939  23.848  0.00  0.00    +0.058 C 
ATOM     18  C   UNL     1       0.829   0.998  23.359  0.00  0.00    +0.011 C 
ATOM     19  C   UNL     1       0.359   1.494  23.801  0.00  0.00    +0.043 C 
ATOM     20  C   UNL     1      -0.113   2.245  24.237  0.00  0.00    +0.097 C 
ATOM     21  N   UNL     1      -0.620   1.817  24.744  0.00  0.00    -0.262 N 
ATOM     22  C   UNL     1      -0.118   1.676  24.259  0.00  0.00    +0.101 C 
ATOM     23  C   UNL     1      -1.200   1.678  25.314  0.00  0.00    +0.327 C 
ATOM     24  O   UNL     1      -1.394   0.904  25.527  0.00  0.00    -0.250 OA
ATOM     25  N   UNL     1      -1.588   2.313  25.671  0.00  0.00    -0.162 NA
ATOM     33  C   UNL     1      -0.138   0.845  24.305  0.00  0.00    +0.110 C 
ATOM     34  N   UNL     1      -0.616   0.816  24.772  0.00  0.00    -0.298 N 
ATOM     35  C   UNL     1      -1.159   0.505  25.311  0.00  0.00    +0.276 A 
ATOM     36  O   UNL     1      -1.719   0.784  25.847  0.00  0.00    -0.266 OA
ENDROOT
BRANCH  25  26
ATOM     26  C   UNL     1      -1.395   3.086  25.459  0.00  0.00    +0.075 A 
ATOM     27  C   UNL     1      -1.839   3.480  24.886  0.00  0.00    +0.019 A 
ATOM     28  C   UNL     1      -1.647   4.253  24.674  0.00  0.00    +0.031 A 
ATOM     29  C   UNL     1      -1.010   4.634  25.035  0.00  0.00    +0.140 A 
ATOM     30  F   UNL     1      -0.817   5.408  24.822  0.00  0.00    -0.204 F 
ATOM     31  C   UNL     1      -0.566   4.240  25.608  0.00  0.00    +0.031 A 
ATOM     32  C   UNL     1      -0.758   3.467  25.820  0.00  0.00    +0.019 A 
ENDBRANCH  25  26
BRANCH  13  12
ATOM      9  N   UNL     1      -2.448  -1.286  24.871  0.00  0.00    -0.158 NA
ATOM     10  C   UNL     1      -2.379  -1.111  25.675  0.00  0.00    +0.348 C 
ATOM     11  O   UNL     1      -2.921  -1.423  26.213  0.00  0.00    -0.248 OA
ATOM     12  N   UNL     1      -1.768  -0.624  25.939  0.00  0.00    -0.156 NA
BRANCH   9   8
ATOM      3  C   UNL     1      -3.644  -1.469  24.110  0.00  0.00    +0.154 A 
ATOM      4  C   UNL     1      -4.255  -1.956  23.846  0.00  0.00    +0.038 A 
ATOM      5  C   UNL     1      -4.282  -2.747  24.079  0.00  0.00    +0.003 A 
ATOM      6  C   UNL     1      -3.697  -3.051  24.575  0.00  0.00    +0.002 A 
ATOM      7  C   UNL     1      -3.086  -2.564  24.839  0.00  0.00    +0.020 A 
ATOM      8  C   UNL     1      -3.060  -1.773  24.607  0.00  0.00    +0.109 A 
BRANCH   3   2
ATOM      1  C   UNL     1      -4.264  -0.339  23.493  0.00  0.00    +0.253 C 
ATOM      2  O   UNL     1      -3.618  -0.678  23.878  0.00  0.00    -0.470 OA
ENDBRANCH   3   2
ENDBRANCH   9   8
ENDBRANCH  13  12
TORSDOF 4
ENDMDL
MODEL 5
REMARK VINA RESULT:     -11.9      2.327      5.422
REMARK  Name = 
REMARK  4 active torsions:
REMARK  status: ('A' for Active; 'I' for Inactive)
REMARK    1  A    between atoms: O_2  and  C_3
REMARK    2  A    between atoms: C_8  and  N_9
REMARK    3  A    between atoms: N_12  and  C_13
REMARK    4  A    between atoms: N_25  and  C_26
REMARK                            x       y       z     vdW  Elec       q    Type
REMARK                         _______ _______ _______ _____ _____    ______ ____
ROOT
ATOM     13  C   UNL     1      -2.282   1.655  23.733  0.00  0.00    +0.131 A 
ATOM     14  C   UNL     1      -1.499   1.905  23.659  0.00  0.00    +0.023 A 
ATOM     15  C   UNL     1      -0.882   1.381  23.813  0.00  0.00    +0.014 A 
ATOM     16  C   UNL     1      -1.047   0.605  24.040  0.00  0.00    +0.041 A 
ATOM     17  C   UNL     1      -0.622  -0.177  24.270  0.00  0.00    +0.058 C 
ATOM     18  C   UNL     1       0.018  -0.453  24.350  0.00  0.00    +0.011 C 
ATOM     19  C   UNL     1      -0.756  -0.697  24.422  0.00  0.00    +0.043 C 
ATOM     20  C   UNL     1      -1.610  -1.173  24.562  0.00  0.00    +0.097 C 
ATOM     21  N   UNL     1      -2.145  -0.557  24.382  0.00  0.00    -0.262 N 
ATOM     22  C   UNL     1      -1.439  -0.651  24.409  0.00  0.00    +0.101 C 
ATOM     23  C   UNL     1      -2.867  -0.173  24.269  0.00  0.00    +0.327 C 
ATOM     24  O   UNL     1      -2.881   0.619  24.037  0.00  0.00    -0.250 OA
ATOM     25  N   UNL     1      -3.573  -0.581  24.389  0.00  0.00    -0.162 NA
ATOM     33  C   UNL     1      -1.208   0.116  24.184  0.00  0.00    +0.110 C 
ATOM     34  N   UNL     1      -1.829   0.355  24.114  0.00  0.00    -0.298 N 
ATOM     35  C   UNL     1      -2.447   0.879  23.961  0.00  0.00    +0.276 A 
ATOM     36  O   UNL     1      -3.272   0.873  23.963  0.00  0.00    -0.266 OA
ENDROOT
BRANCH  25  26
ATOM     26  C   UNL     1      -3.560  -1.372  24.621  0.00  0.00    +0.075 A 
ATOM     27  C   UNL     1      -3.491  -1.567  25.420  0.00  0.00    +0.019 A 
ATOM     28  C   UNL     1      -3.477  -2.357  25.652  0.00  0.00    +0.031 A 
ATOM     29  C   UNL     1      -3.532  -2.955  25.086  0.00  0.00    +0.140 A 
ATOM     30  F   UNL     1      -3.519  -3.747  25.318  0.00  0.00    -0.204 F 
ATOM     31  C   UNL     1      -3.601  -2.760  24.287  0.00  0.00    +0.031 A 
ATOM     32  C   UNL     1      -3.615  -1.970  24.054  0.00  0.00    +0.019 A 
ENDBRANCH  25  26
BRANCH  13  12
ATOM      9  N   UNL     1      -2.485   2.990  24.681  0.00  0.00    -0.158 NA
ATOM     10  C   UNL     1      -3.000   2.848  24.053  0.00  0.00    +0.348 C 
ATOM     11  O   UNL     1      -3.618   3.373  23.899  0.00  0.00    -0.248 OA
ATOM     12  N   UNL     1      -2.899   2.180  23.580  0.00  0.00    -0.156 NA
BRANCH   9   8
ATOM      3  C   UNL     1      -1.982   4.216  25.219  0.00  0.00    +0.154 A 
ATOM      4  C   UNL     1      -2.084   4.883  25.692  0.00  0.00    +0.038 A 
ATOM      5  C   UNL     1      -2.792   4.994  26.102  0.00  0.00    +0.003 A 
ATOM      6  C   UNL     1      -3.397   4.436  26.038  0.00  0.00    +0.002 A 
ATOM      7  C   UNL     1      -3.294   3.769  25.565  0.00  0.00    +0.020 A 
ATOM      8  C   UNL     1      -2.587   3.659  25.155  0.00  0.00    +0.109 A 
BRANCH   3   2
ATOM      1  C   UNL     1      -0.666   4.659  24.878  0.00  0.00    +0.253 C 
ATOM      2  O   UNL     1      -1.274   4.105  24.809  0.00  0.00    -0.470 OA
ENDBRANCH   3   2
ENDBRANCH   9   8
ENDBRANCH  13  12
TORSDOF 4
ENDMDL
MODEL 6
REMARK VINA RESULT:     -11.5      2.451      4.272
REMARK  Name = 
REMARK  4 active torsions:
REMARK  status: ('A' for Active; 'I' for Inactive)
REMARK    1  A    between atoms: O_2  and  C_3
REMARK    2  A    between atoms: C_8  and  N_9
REMARK    3  A    between atoms: N_12  and  C_13
REMARK    4  A    between atoms: N_25  and  C_26
REMARK                            x       y       z     vdW  Elec       q    Type
REMARK                         _______ _______ _______ _____ _____    ______ ____
ROOT
ATOM     13  C   UNL     1      -2.342   3.225  24.651  0.00  0.00    +0.131 A 
ATOM     14  C   UNL     1      -2.301   3.660  25.351  0.00  0.00    +0.023 A 
ATOM     15  C   UNL     1      -1.692   3.520  25.889  0.00  0.00    +0.014 A 
ATOM     16  C   UNL     1      -1.124   2.945  25.728  0.00  0.00    +0.041 A 
ATOM     17  C   UNL     1      -0.369   2.566  26.090  0.00  0.00    +0.058 C 
ATOM     18  C   UNL     1       0.049   2.601  26.653  0.00  0.00    +0.011 C 
ATOM     19  C   UNL     1       0.005   2.173  25.961  0.00  0.00    +0.043 C 
ATOM     20  C   UNL     1       0.123   1.562  25.194  0.00  0.00    +0.097 C 
ATOM     21  N   UNL     1      -0.534   1.791  24.731  0.00  0.00    -0.262 N 
ATOM     22  C   UNL     1      -0.241   1.970  25.355  0.00  0.00    +0.101 C 
ATOM     23  C   UNL     1      -1.063   1.802  24.097  0.00  0.00    +0.327 C 
ATOM     24  O   UNL     1      -1.699   2.327  24.100  0.00  0.00    -0.250 OA
ATOM     25  N   UNL     1      -0.955   1.287  23.462  0.00  0.00    -0.162 NA
ATOM     33  C   UNL     1      -0.783   2.562  25.575  0.00  0.00    +0.110 C 
ATOM     34  N   UNL     1      -1.165   2.509  25.028  0.00  0.00    -0.298 N 
ATOM     35  C   UNL     1      -1.774   2.650  24.490  0.00  0.00    +0.276 A 
ATOM     36  O   UNL     1      -2.023   2.363  23.758  0.00  0.00    -0.266 OA
ENDROOT
BRANCH  25  26
ATOM     26  C   UNL     1      -0.319   0.762  23.458  0.00  0.00    +0.075 A 
ATOM     27  C   UNL     1       0.404   0.992  23.136  0.00  0.00    +0.019 A 
ATOM     28  C   UNL     1       1.041   0.468  23.132  0.00  0.00    +0.031 A 
ATOM     29  C   UNL     1       0.954  -0.288  23.452  0.00  0.00    +0.140 A 
ATOM     30  F   UNL     1       1.591  -0.813  23.449  0.00  0.00    -0.204 F 
ATOM     31  C   UNL     1       0.231  -0.518  23.775  0.00  0.00    +0.031 A 
ATOM     32  C   UNL     1      -0.405   0.006  23.778  0.00  0.00    +0.019 A 
ENDBRANCH  25  26
BRANCH  13  12
ATOM      9  N   UNL     1      -3.904   2.894  25.069  0.00  0.00    -0.158 NA
ATOM     10  C   UNL     1      -3.732   3.201  24.322  0.00  0.00    +0.348 C 
ATOM     11  O   UNL     1      -4.342   3.342  23.784  0.00  0.00    -0.248 OA
ATOM     12  N   UNL     1      -2.952   3.366  24.114  0.00  0.00    -0.156 NA
BRANCH   9   8
ATOM      3  C   UNL     1      -4.929   1.948  25.382  0.00  0.00    +0.154 A 
ATOM      4  C   UNL     1      -5.710   1.784  25.590  0.00  0.00    +0.038 A 
ATOM      5  C   UNL     1      -6.248   2.401  25.693  0.00  0.00    +0.003 A 
ATOM      6  C   UNL     1      -6.005   3.182  25.588  0.00  0.00    +0.002 A 
ATOM      7  C   UNL     1      -5.224   3.346  25.380  0.00  0.00    +0.020 A 
ATOM      8  C   UNL     1      -4.686   2.729  25.277  0.00  0.00    +0.109 A 
BRANCH   3   2
ATOM      1  C   UNL     1      -4.644   0.548  25.337  0.00  0.00    +0.253 C 
ATOM      2  O   UNL     1      -4.390   1.331  25.279  0.00  0.00    -0.470 OA
ENDBRANCH   3   2
ENDBRANCH   9   8
ENDBRANCH  13  12
TORSDOF 4
ENDMDL
MODEL 7
REMARK VINA RESULT:     -11.1      2.668      4.440
REMARK  Name = 
REMARK  4 active torsions:
REMARK  status: ('A' for Active; 'I' for Inactive)
REMARK    1  A    between atoms: O_2  and  C_3
REMARK    2  A    between atoms: C_8  and  N_9
REMARK    3  A    between atoms: N_12  and  C_13
REMARK    4  A    between atoms: N_25  and  C_26
REMARK                            x       y       z     vdW  Elec       q    Type
REMARK                         _______ _______ _______ _____ _____    ______ ____
ROOT
ATOM     13  C   UNL     1      -3.090   0.744  24.249  0.00  0.00    +0.131 A 
ATOM     14  C   UNL     1      -3.456   0.374  24.889  0.00  0.00    +0.023 A 
ATOM     15  C   UNL     1      -3.019  -0.117  25.387  0.00  0.00    +0.014 A 
ATOM     16  C   UNL     1      -2.216  -0.238  25.246  0.00  0.00    +0.041 A 
ATOM     17  C   UNL     1      -1.492  -0.691  25.585  0.00  0.00    +0.058 C 
ATOM     18  C   UNL     1      -1.309  -1.126  26.104  0.00  0.00    +0.011 C 
ATOM     19  C   UNL     1      -0.950  -0.759  25.472  0.00  0.00    +0.043 C 
ATOM     20  C   UNL     1      -0.346  -0.411  24.772  0.00  0.00    +0.097 C 
ATOM     21  N   UNL     1      -0.886   0.058  24.341  0.00  0.00    -0.262 N 
ATOM     22  C   UNL     1      -0.895  -0.363  24.915  0.00  0.00    +0.101 C 
ATOM     23  C   UNL     1      -1.167   0.569  23.756  0.00  0.00    +0.327 C 
ATOM     24  O   UNL     1      -1.961   0.795  23.752  0.00  0.00    -0.250 OA
ATOM     25  N   UNL     1      -0.654   0.853  23.177  0.00  0.00    -0.162 NA
ATOM     33  C   UNL     1      -1.701  -0.282  25.110  0.00  0.00    +0.110 C 
ATOM     34  N   UNL     1      -1.849   0.132  24.606  0.00  0.00    -0.298 N 
ATOM     35  C   UNL     1      -2.286   0.623  24.107  0.00  0.00    +0.276 A 
ATOM     36  O   UNL     1      -2.159   1.084  23.436  0.00  0.00    -0.266 OA
ENDROOT
BRANCH  25  26
ATOM     26  C   UNL     1       0.140   0.628  23.181  0.00  0.00    +0.075 A 
ATOM     27  C   UNL     1       0.378  -0.051  22.778  0.00  0.00    +0.019 A 
ATOM     28  C   UNL     1       1.170  -0.277  22.782  0.00  0.00    +0.031 A 
ATOM     29  C   UNL     1       1.727   0.177  23.189  0.00  0.00    +0.140 A 
ATOM     30  F   UNL     1       2.521  -0.049  23.193  0.00  0.00    -0.204 F 
ATOM     31  C   UNL     1       1.489   0.856  23.592  0.00  0.00    +0.031 A 
ATOM     32  C   UNL     1       0.696   1.082  23.588  0.00  0.00    +0.019 A 
ENDBRANCH  25  26
BRANCH  13  12
ATOM      9  N   UNL     1      -3.942   2.009  24.878  0.00  0.00    -0.158 NA
ATOM     10  C   UNL     1      -3.953   1.867  24.065  0.00  0.00    +0.348 C 
ATOM     11  O   UNL     1      -4.392   2.358  23.566  0.00  0.00    -0.248 OA
ATOM     12  N   UNL     1      -3.527   1.235  23.751  0.00  0.00    -0.156 NA
BRANCH   9   8
ATOM      3  C   UNL     1      -3.973   3.263  25.563  0.00  0.00    +0.154 A 
ATOM      4  C   UNL     1      -4.400   3.896  25.876  0.00  0.00    +0.038 A 
ATOM      5  C   UNL     1      -5.223   3.907  25.818  0.00  0.00    +0.003 A 
ATOM      6  C   UNL     1      -5.619   3.286  25.446  0.00  0.00    +0.002 A 
ATOM      7  C   UNL     1      -5.192   2.654  25.132  0.00  0.00    +0.020 A 
ATOM      8  C   UNL     1      -4.369   2.642  25.191  0.00  0.00    +0.109 A 
BRANCH   3   2
ATOM      1  C   UNL     1      -2.757   3.853  26.028  0.00  0.00    +0.253 C 
ATOM      2  O   UNL     1      -3.150   3.252  25.622  0.00  0.00    -0.470 OA
ENDBRANCH   3   2
ENDBRANCH   9   8
ENDBRANCH  13  12
TORSDOF 4
ENDMDL
