MODEL 1
REMARK VINA RESULT:     -11.1      0.000      0.000
REMARK  Name = 
REMARK  3 active torsions:
REMARK  status: ('A' for Active; 'I' for Inactive)
REMARK    1  A    between atoms: C_2  and  C_3
REMARK    2  A    between atoms: C_3  and  C_4
REMARK    3  A    between atoms: C_17  and  N_25
REMARK                            x       y       z     vdW  Elec       q    Type
REMARK                         _______ _______ _______ _____ _____    ______ ____
ROOT
ATOM      4  C   UNL     1       0.288  -0.064  23.714  0.00  0.00    +0.016 C 
ATOM      5  C   UNL     1       0.423  -0.859  23.889  0.00  0.00    +0.022 C 
ATOM      6  C   UNL     1      -0.166  -1.304  24.257  0.00  0.00    +0.093 C 
ATOM      7  N   UNL     1      -0.889  -0.956  24.449  0.00  0.00    -0.278 N 
ATOM      8  C   UNL     1      -1.022  -0.160  24.273  0.00  0.00    +0.098 C 
ATOM      9  C   UNL     1      -0.434   0.286  23.906  0.00  0.00    +0.042 C 
ATOM     10  C   UNL     1      -0.568   1.080  23.731  0.00  0.00    -0.026 C 
ATOM     11  C   UNL     1      -1.345   1.496  23.926  0.00  0.00    +0.016 C 
ATOM     12  C   UNL     1      -1.706   2.235  23.859  0.00  0.00    +0.231 C 
ATOM     13  O   UNL     1      -2.463   2.179  24.182  0.00  0.00    -0.471 OA
ATOM     14  C   UNL     1      -2.569   1.405  24.449  0.00  0.00    +0.136 A 
ATOM     15  C   UNL     1      -2.736   2.197  24.288  0.00  0.00    +0.038 A 
ATOM     16  C   UNL     1      -3.469   2.514  24.494  0.00  0.00    +0.018 A 
ATOM     17  C   UNL     1      -4.035   2.040  24.860  0.00  0.00    +0.048 A 
ATOM     18  C   UNL     1      -3.869   1.249  25.021  0.00  0.00    +0.015 A 
ATOM     19  C   UNL     1      -3.136   0.931  24.816  0.00  0.00    +0.030 A 
ATOM     20  C   UNL     1      -3.056   0.091  25.026  0.00  0.00    +0.119 C 
ATOM     21  N   UNL     1      -2.334  -0.257  24.833  0.00  0.00    -0.204 NA
ATOM     22  C   UNL     1      -2.200  -1.053  25.009  0.00  0.00    +0.174 C 
ATOM     23  C   UNL     1      -1.477  -1.402  24.816  0.00  0.00    +0.243 C 
ATOM     24  O   UNL     1      -1.344  -2.196  24.992  0.00  0.00    -0.273 OA
ENDROOT
BRANCH  17  25
ATOM     25  N   UNL     1      -4.769   2.358  25.066  0.00  0.00    -0.303 N 
ATOM     26  C   UNL     1      -4.808   3.071  25.480  0.00  0.00    +0.123 C 
ATOM     27  C   UNL     1      -5.541   3.388  25.686  0.00  0.00    +0.164 C 
ATOM     28  O   UNL     1      -6.235   2.993  25.478  0.00  0.00    -0.350 OA
ATOM     29  C   UNL     1      -6.196   2.281  25.064  0.00  0.00    +0.164 C 
ATOM     30  C   UNL     1      -5.463   1.963  24.858  0.00  0.00    +0.123 C 
ENDBRANCH  17  25
BRANCH   4   3
ATOM      3  C   UNL     1       0.877   0.382  23.346  0.00  0.00    +0.086 C 
BRANCH   3   2
ATOM      1  O   UNL     1       1.037  -0.543  22.270  0.00  0.00    -0.275 OA
ATOM      2  C   UNL     1       1.349   0.041  22.761  0.00  0.00    +0.226 C 
ATOM     31  N   UNL     1       2.131   0.284  22.668  0.00  0.00    -0.274 N 
ATOM     32  C   UNL     1       2.603  -0.056  22.083  0.00  0.00    +0.125 C 
ATOM     33  C   UNL     1       3.385   0.187  21.990  0.00  0.00    +0.164 C 
ATOM     34  O   UNL     1       3.698   0.772  22.482  0.00  0.00    -0.350 OA
ATOM     35  C   UNL     1       3.226   1.113  23.067  0.00  0.00    +0.164 C 
ATOM     36  C   UNL     1       2.443   0.870  23.160  0.00  0.00    +0.125 C 
ENDBRANCH   3   2
ENDBRANCH   4   3
TORSDOF 3
ENDMDL
MODEL 2
REMARK VINA RESULT:     -11.0      0.888      6.011
REMARK  Name = 
REMARK  3 active torsions:
REMARK  status: ('A' for Active; 'I' for Inactive)
REMARK    1  A    between atoms: C_2  and  C_3
REMARK    2  A    between atoms: C_3  and  C_4
REMARK    3  A    between atoms: C_17  and  N_25
REMARK                            x       y       z     vdW  Elec       q    Type
REMARK                         _______ _______ _______ _____ _____    ______ ____
ROOT
ATOM      4  C   UNL     1      -3.489   0.264  25.104  0.00  0.00    +0.016 C 
ATOM      5  C   UNL     1      -3.834  -0.455  25.317  0.00  0.00    +0.022 C 
ATOM      6  C   UNL     1      -3.413  -1.158  25.221  0.00  0.00    +0.093 C 
ATOM      7  N   UNL     1      -2.648  -1.142  24.912  0.00  0.00    -0.278 N 
ATOM      8  C   UNL     1      -2.304  -0.422  24.699  0.00  0.00    +0.098 C 
ATOM      9  C   UNL     1      -2.725   0.281  24.795  0.00  0.00    +0.042 C 
ATOM     10  C   UNL     1      -2.381   0.999  24.583  0.00  0.00    -0.026 C 
ATOM     11  C   UNL     1      -1.547   1.055  24.242  0.00  0.00    +0.016 C 
ATOM     12  C   UNL     1      -1.008   1.617  23.967  0.00  0.00    +0.231 C 
ATOM     13  O   UNL     1      -0.323   1.221  23.733  0.00  0.00    -0.471 OA
ATOM     14  C   UNL     1      -0.440   0.414  23.863  0.00  0.00    +0.136 A 
ATOM     15  C   UNL     1      -0.066   1.115  23.640  0.00  0.00    +0.038 A 
ATOM     16  C   UNL     1       0.700   1.095  23.335  0.00  0.00    +0.018 A 
ATOM     17  C   UNL     1       1.092   0.374  23.252  0.00  0.00    +0.048 A 
ATOM     18  C   UNL     1       0.719  -0.327  23.474  0.00  0.00    +0.015 A 
ATOM     19  C   UNL     1      -0.047  -0.307  23.780  0.00  0.00    +0.030 A 
ATOM     20  C   UNL     1      -0.354  -1.094  23.985  0.00  0.00    +0.119 C 
ATOM     21  N   UNL     1      -1.118  -1.110  24.294  0.00  0.00    -0.204 NA
ATOM     22  C   UNL     1      -1.463  -1.830  24.507  0.00  0.00    +0.174 C 
ATOM     23  C   UNL     1      -2.228  -1.845  24.816  0.00  0.00    +0.243 C 
ATOM     24  O   UNL     1      -2.572  -2.564  25.029  0.00  0.00    -0.273 OA
ENDROOT
BRANCH  17  25
ATOM     25  N   UNL     1       1.858   0.354  22.946  0.00  0.00    -0.303 N 
ATOM     26  C   UNL     1       2.016  -0.072  22.257  0.00  0.00    +0.123 C 
ATOM     27  C   UNL     1       2.783  -0.092  21.951  0.00  0.00    +0.164 C 
ATOM     28  O   UNL     1       3.390   0.313  22.334  0.00  0.00    -0.350 OA
ATOM     29  C   UNL     1       3.232   0.740  23.022  0.00  0.00    +0.164 C 
ATOM     30  C   UNL     1       2.467   0.760  23.328  0.00  0.00    +0.123 C 
ENDBRANCH  17  25
BRANCH   4   3
ATOM      3  C   UNL     1      -3.910   0.967  25.201  0.00  0.00    +0.086 C 
BRANCH   3   2
ATOM      1  O   UNL     1      -5.093   0.331  24.714  0.00  0.00    -0.275 OA
ATOM      2  C   UNL     1      -4.720   0.989  25.043  0.00  0.00    +0.226 C 
ATOM     31  N   UNL     1      -5.156   1.668  25.214  0.00  0.00    -0.274 N 
ATOM     32  C   UNL     1      -5.966   1.689  25.056  0.00  0.00    +0.125 C 
ATOM     33  C   UNL     1      -6.401   2.369  25.227  0.00  0.00    +0.164 C 
ATOM     34  O   UNL     1      -6.028   3.027  25.556  0.00  0.00    -0.350 OA
ATOM     35  C   UNL     1      -5.218   3.006  25.714  0.00  0.00    +0.164 C 
ATOM     36  C   UNL     1      -4.782   2.326  25.543  0.00  0.00    +0.125 C 
ENDBRANCH   3   2
ENDBRANCH   4   3
TORSDOF 3
ENDMDL
MODEL 3
REMARK VINA RESULT:      -9.9      3.020      5.135
REMARK  Name = 
REMARK  3 active torsions:
REMARK  status: ('A' for Active; 'I' for Inactive)
REMARK    1  A    between atoms: C_2  and  C_3
REMARK    2  A    between atoms: C_3  and  C_4
REMARK    3  A    between atoms: C_17  and  N_25
REMARK                            x       y       z     vdW  Elec       q    Type
REMARK                         _______ _______ _______ _____ _____    ______ ____
ROOT
ATOM      4  C   UNL     1      -3.129   3.483  25.614  0.00  0.00    +0.016 C 
ATOM      5  C   UNL     1      -3.798   3.952  25.723  0.00  0.00    +0.022 C 
ATOM      6  C   UNL     1      -4.550   3.621  25.648  0.00  0.00    +0.093 C 
ATOM      7  N   UNL     1      -4.632   2.820  25.466  0.00  0.00    -0.278 N 
ATOM      8  C   UNL     1      -3.962   2.352  25.358  0.00  0.00    +0.098 C 
ATOM      9  C   UNL     1      -3.210   2.682  25.432  0.00  0.00    +0.042 C 
ATOM     10  C   UNL     1      -2.540   2.214  25.323  0.00  0.00    -0.026 C 
ATOM     11  C   UNL     1      -2.591   1.335  25.123  0.00  0.00    +0.016 C 
ATOM     12  C   UNL     1      -2.102   0.687  24.974  0.00  0.00    +0.231 C 
ATOM     13  O   UNL     1      -2.583   0.033  24.826  0.00  0.00    -0.471 OA
ATOM     14  C   UNL     1      -3.370   0.278  24.883  0.00  0.00    +0.136 A 
ATOM     15  C   UNL     1      -2.721  -0.219  24.768  0.00  0.00    +0.038 A 
ATOM     16  C   UNL     1      -2.839  -1.015  24.587  0.00  0.00    +0.018 A 
ATOM     17  C   UNL     1      -3.604  -1.314  24.520  0.00  0.00    +0.048 A 
ATOM     18  C   UNL     1      -4.253  -0.818  24.635  0.00  0.00    +0.015 A 
ATOM     19  C   UNL     1      -4.136  -0.022  24.816  0.00  0.00    +0.030 A 
ATOM     20  C   UNL     1      -4.878   0.419  24.918  0.00  0.00    +0.119 C 
ATOM     21  N   UNL     1      -4.796   1.220  25.101  0.00  0.00    -0.204 NA
ATOM     22  C   UNL     1      -5.466   1.689  25.209  0.00  0.00    +0.174 C 
ATOM     23  C   UNL     1      -5.384   2.490  25.392  0.00  0.00    +0.243 C 
ATOM     24  O   UNL     1      -6.054   2.958  25.500  0.00  0.00    -0.273 OA
ENDROOT
BRANCH  17  25
ATOM     25  N   UNL     1      -3.722  -2.110  24.339  0.00  0.00    -0.303 N 
ATOM     26  C   UNL     1      -4.192  -2.321  23.694  0.00  0.00    +0.123 C 
ATOM     27  C   UNL     1      -4.310  -3.118  23.512  0.00  0.00    +0.164 C 
ATOM     28  O   UNL     1      -3.959  -3.702  23.975  0.00  0.00    -0.350 OA
ATOM     29  C   UNL     1      -3.489  -3.492  24.619  0.00  0.00    +0.164 C 
ATOM     30  C   UNL     1      -3.370  -2.696  24.801  0.00  0.00    +0.123 C 
ENDBRANCH  17  25
BRANCH   4   3
ATOM      3  C   UNL     1      -2.377   3.814  25.688  0.00  0.00    +0.086 C 
BRANCH   3   2
ATOM      1  O   UNL     1      -2.851   5.161  25.733  0.00  0.00    -0.275 OA
ATOM      2  C   UNL     1      -2.263   4.618  25.538  0.00  0.00    +0.226 C 
ATOM     31  N   UNL     1      -1.561   4.877  25.191  0.00  0.00    -0.274 N 
ATOM     32  C   UNL     1      -1.447   5.681  25.041  0.00  0.00    +0.125 C 
ATOM     33  C   UNL     1      -0.744   5.939  24.695  0.00  0.00    +0.164 C 
ATOM     34  O   UNL     1      -0.155   5.396  24.498  0.00  0.00    -0.350 OA
ATOM     35  C   UNL     1      -0.269   4.593  24.649  0.00  0.00    +0.164 C 
ATOM     36  C   UNL     1      -0.971   4.333  24.995  0.00  0.00    +0.125 C 
ENDBRANCH   3   2
ENDBRANCH   4   3
TORSDOF 3
ENDMDL
MODEL 4
REMARK VINA RESULT:      -9.2      1.552      6.581
REMARK  Name = 
REMARK  3 active torsions:
REMARK  status: ('A' for Active; 'I' for Inactive)
REMARK    1  A    between atoms: C_2  and  C_3
REMARK    2  A    between atoms: C_3  and  C_4
REMARK    3  A    between atoms: C_17  and  N_25
REMARK                            x       y       z     vdW  Elec       q    Type
REMARK                         _______ _______ _______ _____ _____    ______ ____
ROOT
ATOM      4  C   UNL     1      -3.257   3.081  25.030  0.00  0.00    +0.016 C 
ATOM      5  C   UNL     1      -3.240   3.861  25.297  0.00  0.00    +0.022 C 
ATOM      6  C   UNL     1      -2.531   4.282  25.296  0.00  0.00    +0.093 C 
ATOM      7  N   UNL     1      -1.838   3.923  25.028  0.00  0.00    -0.278 N 
ATOM      8  C   UNL     1      -1.856   3.142  24.761  0.00  0.00    +0.098 C 
ATOM      9  C   UNL     1      -2.565   2.721  24.762  0.00  0.00    +0.042 C 
ATOM     10  C   UNL     1      -2.582   1.941  24.495  0.00  0.00    -0.026 C 
ATOM     11  C   UNL     1      -1.845   1.515  24.195  0.00  0.00    +0.016 C 
ATOM     12  C   UNL     1      -1.611   0.784  23.893  0.00  0.00    +0.231 C 
ATOM     13  O   UNL     1      -0.801   0.819  23.737  0.00  0.00    -0.471 OA
ATOM     14  C   UNL     1      -0.535   1.573  23.943  0.00  0.00    +0.136 A 
ATOM     15  C   UNL     1      -0.517   0.794  23.670  0.00  0.00    +0.038 A 
ATOM     16  C   UNL     1       0.193   0.466  23.408  0.00  0.00    +0.018 A 
ATOM     17  C   UNL     1       0.884   0.915  23.421  0.00  0.00    +0.048 A 
ATOM     18  C   UNL     1       0.867   1.692  23.694  0.00  0.00    +0.015 A 
ATOM     19  C   UNL     1       0.157   2.022  23.955  0.00  0.00    +0.030 A 
ATOM     20  C   UNL     1       0.239   2.844  24.223  0.00  0.00    +0.119 C 
ATOM     21  N   UNL     1      -0.453   3.204  24.492  0.00  0.00    -0.204 NA
ATOM     22  C   UNL     1      -0.436   3.985  24.759  0.00  0.00    +0.174 C 
ATOM     23  C   UNL     1      -1.129   4.344  25.027  0.00  0.00    +0.243 C 
ATOM     24  O   UNL     1      -1.112   5.124  25.294  0.00  0.00    -0.273 OA
ENDROOT
BRANCH  17  25
ATOM     25  N   UNL     1       1.595   0.586  23.159  0.00  0.00    -0.303 N 
ATOM     26  C   UNL     1       1.589  -0.115  22.723  0.00  0.00    +0.123 C 
ATOM     27  C   UNL     1       2.300  -0.443  22.462  0.00  0.00    +0.164 C 
ATOM     28  O   UNL     1       3.015  -0.072  22.637  0.00  0.00    -0.350 OA
ATOM     29  C   UNL     1       3.021   0.628  23.073  0.00  0.00    +0.164 C 
ATOM     30  C   UNL     1       2.311   0.957  23.334  0.00  0.00    +0.123 C 
ENDBRANCH  17  25
BRANCH   4   3
ATOM      3  C   UNL     1      -3.966   2.660  25.032  0.00  0.00    +0.086 C 
BRANCH   3   2
ATOM      1  O   UNL     1      -4.371   3.339  26.221  0.00  0.00    -0.275 OA
ATOM      2  C   UNL     1      -4.537   2.815  25.607  0.00  0.00    +0.226 C 
ATOM     31  N   UNL     1      -5.274   2.446  25.567  0.00  0.00    -0.274 N 
ATOM     32  C   UNL     1      -5.845   2.601  26.142  0.00  0.00    +0.125 C 
ATOM     33  C   UNL     1      -6.582   2.232  26.102  0.00  0.00    +0.164 C 
ATOM     34  O   UNL     1      -6.748   1.707  25.487  0.00  0.00    -0.350 OA
ATOM     35  C   UNL     1      -6.177   1.553  24.912  0.00  0.00    +0.164 C 
ATOM     36  C   UNL     1      -5.440   1.922  24.951  0.00  0.00    +0.125 C 
ENDBRANCH   3   2
ENDBRANCH   4   3
TORSDOF 3
ENDMDL
MODEL 5
REMARK VINA RESULT:      -8.1      1.498      2.568
REMARK  Name = 
REMARK  3 active torsions:
REMARK  status: ('A' for Active; 'I' for Inactive)
REMARK    1  A    between atoms: C_2  and  C_3
REMARK    2  A    between atoms: C_3  and  C_4
REMARK    3  A    between atoms: C_17  and  N_25
REMARK                            x       y       z     vdW  Elec       q    Type
REMARK                         _______ _______ _______ _____ _____    ______ ____
ROOT
ATOM      4  C   UNL     1       0.132   1.815  24.056  0.00  0.00    +0.016 C 
ATOM      5  C   UNL     1       0.572   2.506  24.151  0.00  0.00    +0.022 C 
ATOM      6  C   UNL     1       0.205   3.194  24.420  0.00  0.00    +0.093 C 
ATOM      7  N   UNL     1      -0.601   3.191  24.594  0.00  0.00    -0.278 N 
ATOM      8  C   UNL     1      -1.041   2.500  24.498  0.00  0.00    +0.098 C 
ATOM      9  C   UNL     1      -0.675   1.811  24.230  0.00  0.00    +0.042 C 
ATOM     10  C   UNL     1      -1.114   1.120  24.134  0.00  0.00    -0.026 C 
ATOM     11  C   UNL     1      -1.998   1.079  24.314  0.00  0.00    +0.016 C 
ATOM     12  C   UNL     1      -2.626   0.544  24.303  0.00  0.00    +0.231 C 
ATOM     13  O   UNL     1      -3.303   0.939  24.558  0.00  0.00    -0.471 OA
ATOM     14  C   UNL     1      -3.093   1.719  24.728  0.00  0.00    +0.136 A 
ATOM     15  C   UNL     1      -3.563   1.046  24.644  0.00  0.00    +0.038 A 
ATOM     16  C   UNL     1      -4.367   1.078  24.827  0.00  0.00    +0.018 A 
ATOM     17  C   UNL     1      -4.701   1.782  25.093  0.00  0.00    +0.048 A 
ATOM     18  C   UNL     1      -4.233   2.456  25.177  0.00  0.00    +0.015 A 
ATOM     19  C   UNL     1      -3.429   2.425  24.995  0.00  0.00    +0.030 A 
ATOM     20  C   UNL     1      -3.021   3.182  25.115  0.00  0.00    +0.119 C 
ATOM     21  N   UNL     1      -2.214   3.185  24.941  0.00  0.00    -0.204 NA
ATOM     22  C   UNL     1      -1.774   3.877  25.036  0.00  0.00    +0.174 C 
ATOM     23  C   UNL     1      -0.967   3.880  24.863  0.00  0.00    +0.243 C 
ATOM     24  O   UNL     1      -0.528   4.571  24.958  0.00  0.00    -0.273 OA
ENDROOT
BRANCH  17  25
ATOM     25  N   UNL     1      -5.505   1.814  25.276  0.00  0.00    -0.303 N 
ATOM     26  C   UNL     1      -5.749   1.819  26.064  0.00  0.00    +0.123 C 
ATOM     27  C   UNL     1      -6.553   1.851  26.247  0.00  0.00    +0.164 C 
ATOM     28  O   UNL     1      -7.113   1.878  25.642  0.00  0.00    -0.350 OA
ATOM     29  C   UNL     1      -6.870   1.873  24.854  0.00  0.00    +0.164 C 
ATOM     30  C   UNL     1      -6.066   1.841  24.671  0.00  0.00    +0.123 C 
ENDBRANCH  17  25
BRANCH   4   3
ATOM      3  C   UNL     1       0.498   1.126  23.787  0.00  0.00    +0.086 C 
BRANCH   3   2
ATOM      1  O   UNL     1       1.806   1.630  24.062  0.00  0.00    -0.275 OA
ATOM      2  C   UNL     1       1.311   1.120  23.645  0.00  0.00    +0.226 C 
ATOM     31  N   UNL     1       1.629   0.604  23.085  0.00  0.00    -0.274 N 
ATOM     32  C   UNL     1       2.441   0.597  22.943  0.00  0.00    +0.125 C 
ATOM     33  C   UNL     1       2.758   0.081  22.384  0.00  0.00    +0.164 C 
ATOM     34  O   UNL     1       2.263  -0.430  21.965  0.00  0.00    -0.350 OA
ATOM     35  C   UNL     1       1.450  -0.424  22.108  0.00  0.00    +0.164 C 
ATOM     36  C   UNL     1       1.132   0.093  22.667  0.00  0.00    +0.125 C 
ENDBRANCH   3   2
ENDBRANCH   4   3
TORSDOF 3
ENDMDL
MODEL 6
REMARK VINA RESULT:      -7.7      2.978      5.085
REMARK  Name = 
REMARK  3 active torsions:
REMARK  status: ('A' for Active; 'I' for Inactive)
REMARK    1  A    between atoms: C_2  and  C_3
REMARK    2  A    between atoms: C_3  and  C_4
REMARK    3  A    between atoms: C_17  and  N_25
REMARK                            x       y       z     vdW  Elec       q    Type
REMARK                         _______ _______ _______ _____ _____    ______ ____
ROOT
ATOM      4  C   UNL     1      -4.358  -0.145  24.961  0.00  0.00    +0.016 C 
ATOM      5  C   UNL     1      -5.182  -0.112  24.990  0.00  0.00    +0.022 C 
ATOM      6  C   UNL     1      -5.564   0.619  25.006  0.00  0.00    +0.093 C 
ATOM      7  N   UNL     1      -5.123   1.316  24.993  0.00  0.00    -0.278 N 
ATOM      8  C   UNL     1      -4.299   1.281  24.964  0.00  0.00    +0.098 C 
ATOM      9  C   UNL     1      -3.916   0.551  24.948  0.00  0.00    +0.042 C 
ATOM     10  C   UNL     1      -3.093   0.517  24.918  0.00  0.00    -0.026 C 
ATOM     11  C   UNL     1      -2.577   1.257  24.903  0.00  0.00    +0.016 C 
ATOM     12  C   UNL     1      -1.783   1.479  24.875  0.00  0.00    +0.231 C 
ATOM     13  O   UNL     1      -1.748   2.304  24.877  0.00  0.00    -0.471 OA
ATOM     14  C   UNL     1      -2.522   2.590  24.905  0.00  0.00    +0.136 A 
ATOM     15  C   UNL     1      -1.697   2.592  24.876  0.00  0.00    +0.038 A 
ATOM     16  C   UNL     1      -1.286   3.308  24.864  0.00  0.00    +0.018 A 
ATOM     17  C   UNL     1      -1.699   4.021  24.881  0.00  0.00    +0.048 A 
ATOM     18  C   UNL     1      -2.523   4.020  24.910  0.00  0.00    +0.015 A 
ATOM     19  C   UNL     1      -2.935   3.305  24.922  0.00  0.00    +0.030 A 
ATOM     20  C   UNL     1      -3.797   3.406  24.953  0.00  0.00    +0.119 C 
ATOM     21  N   UNL     1      -4.239   2.710  24.967  0.00  0.00    -0.204 NA
ATOM     22  C   UNL     1      -5.064   2.744  24.996  0.00  0.00    +0.174 C 
ATOM     23  C   UNL     1      -5.505   2.047  25.009  0.00  0.00    +0.243 C 
ATOM     24  O   UNL     1      -6.328   2.081  25.038  0.00  0.00    -0.273 OA
ENDROOT
BRANCH  17  25
ATOM     25  N   UNL     1      -1.289   4.736  24.869  0.00  0.00    -0.303 N 
ATOM     26  C   UNL     1      -1.669   5.434  25.090  0.00  0.00    +0.123 C 
ATOM     27  C   UNL     1      -1.258   6.150  25.078  0.00  0.00    +0.164 C 
ATOM     28  O   UNL     1      -0.468   6.167  24.845  0.00  0.00    -0.350 OA
ATOM     29  C   UNL     1      -0.087   5.470  24.624  0.00  0.00    +0.164 C 
ATOM     30  C   UNL     1      -0.497   4.755  24.635  0.00  0.00    +0.123 C 
ENDBRANCH  17  25
BRANCH   4   3
ATOM      3  C   UNL     1      -3.977  -0.877  24.945  0.00  0.00    +0.086 C 
BRANCH   3   2
ATOM      1  O   UNL     1      -4.784  -1.276  23.836  0.00  0.00    -0.275 OA
ATOM      2  C   UNL     1      -4.202  -1.448  24.394  0.00  0.00    +0.226 C 
ATOM     31  N   UNL     1      -3.846  -2.192  24.402  0.00  0.00    -0.274 N 
ATOM     32  C   UNL     1      -4.071  -2.764  23.851  0.00  0.00    +0.125 C 
ATOM     33  C   UNL     1      -3.714  -3.507  23.860  0.00  0.00    +0.164 C 
ATOM     34  O   UNL     1      -3.132  -3.681  24.418  0.00  0.00    -0.350 OA
ATOM     35  C   UNL     1      -2.906  -3.109  24.969  0.00  0.00    +0.164 C 
ATOM     36  C   UNL     1      -3.263  -2.365  24.961  0.00  0.00    +0.125 C 
ENDBRANCH   3   2
ENDBRANCH   4   3
TORSDOF 3
ENDMDL
MODEL 7
REMARK VINA RESULT:      -7.4      2.108      4.383
REMARK  Name = 
REMARK  3 active torsions:
REMARK  status: ('A' for Active; 'I' for Inactive)
REMARK    1  A    between atoms: C_2  and  C_3
REMARK    2  A    between atoms: C_3  and  C_4
REMARK    3  A    between atoms: C_17  and  N_25
REMARK                            x       y       z     vdW  Elec       q    Type
REMARK                         _______ _______ _______ _____ _____    ______ ____
ROOT
ATOM      4  C   UNL     1      -1.599  -1.182  24.648  0.00  0.00    +0.016 C 
ATOM      5  C   UNL     1      -0.960  -1.602  24.337  0.00  0.00    +0.022 C 
ATOM      6  C   UNL     1      -0.292  -1.198  24.070  0.00  0.00    +0.093 C 
ATOM      7  N   UNL     1      -0.262  -0.375  24.115  0.00  0.00    -0.278 N 
ATOM      8  C   UNL     1      -0.901   0.044  24.426  0.00  0.00    +0.098 C 
ATOM      9  C   UNL     1      -1.569  -0.359  24.693  0.00  0.00    +0.042 C 
ATOM     10  C   UNL     1      -2.207   0.061  25.004  0.00  0.00    -0.026 C 
ATOM     11  C   UNL     1      -2.210   0.961  25.069  0.00  0.00    +0.016 C 
ATOM     12  C   UNL     1      -2.693   1.579  25.325  0.00  0.00    +0.231 C 
ATOM     13  O   UNL     1      -2.291   2.288  25.197  0.00  0.00    -0.471 OA
ATOM     14  C   UNL     1      -1.558   2.107  24.861  0.00  0.00    +0.136 A 
ATOM     15  C   UNL     1      -2.179   2.557  25.167  0.00  0.00    +0.038 A 
ATOM     16  C   UNL     1      -2.116   3.379  25.197  0.00  0.00    +0.018 A 
ATOM     17  C   UNL     1      -1.433   3.751  24.922  0.00  0.00    +0.048 A 
ATOM     18  C   UNL     1      -0.813   3.301  24.616  0.00  0.00    +0.015 A 
ATOM     19  C   UNL     1      -0.875   2.479  24.586  0.00  0.00    +0.030 A 
ATOM     20  C   UNL     1      -0.173   2.095  24.249  0.00  0.00    +0.119 C 
ATOM     21  N   UNL     1      -0.203   1.272  24.204  0.00  0.00    -0.204 NA
ATOM     22  C   UNL     1       0.436   0.851  23.892  0.00  0.00    +0.174 C 
ATOM     23  C   UNL     1       0.406   0.028  23.848  0.00  0.00    +0.243 C 
ATOM     24  O   UNL     1       1.044  -0.391  23.537  0.00  0.00    -0.273 OA
ENDROOT
BRANCH  17  25
ATOM     25  N   UNL     1      -1.371   4.573  24.952  0.00  0.00    -0.303 N 
ATOM     26  C   UNL     1      -0.676   4.943  24.703  0.00  0.00    +0.123 C 
ATOM     27  C   UNL     1      -0.613   5.765  24.733  0.00  0.00    +0.164 C 
ATOM     28  O   UNL     1      -1.244   6.217  25.012  0.00  0.00    -0.350 OA
ATOM     29  C   UNL     1      -1.938   5.848  25.261  0.00  0.00    +0.164 C 
ATOM     30  C   UNL     1      -2.002   5.026  25.231  0.00  0.00    +0.123 C 
ENDBRANCH  17  25
BRANCH   4   3
ATOM      3  C   UNL     1      -2.267  -1.586  24.915  0.00  0.00    +0.086 C 
BRANCH   3   2
ATOM      1  O   UNL     1      -1.841  -2.924  24.652  0.00  0.00    -0.275 OA
ATOM      2  C   UNL     1      -2.428  -2.346  24.636  0.00  0.00    +0.226 C 
ATOM     31  N   UNL     1      -3.178  -2.527  24.342  0.00  0.00    -0.274 N 
ATOM     32  C   UNL     1      -3.339  -3.287  24.064  0.00  0.00    +0.125 C 
ATOM     33  C   UNL     1      -4.088  -3.468  23.771  0.00  0.00    +0.164 C 
ATOM     34  O   UNL     1      -4.677  -2.889  23.754  0.00  0.00    -0.350 OA
ATOM     35  C   UNL     1      -4.515  -2.129  24.033  0.00  0.00    +0.164 C 
ATOM     36  C   UNL     1      -3.766  -1.948  24.327  0.00  0.00    +0.125 C 
ENDBRANCH   3   2
ENDBRANCH   4   3
TORSDOF 3
ENDMDL
MODEL 8
REMARK VINA RESULT:      -7.1      1.747      6.161
REMARK  Name = 
REMARK  3 active torsions:
REMARK  status: ('A' for Active; 'I' for Inactive)
REMARK    1  A    between atoms: C_2  and  C_3
REMARK    2  A    between atoms: C_3  and  C_4
REMARK    3  A    between atoms: C_17  and  N_25
REMARK                            x       y       z     vdW  Elec       q    Type
REMARK                         _______ _______ _______ _____ _____    ______ ____
ROOT
ATOM      4  C   UNL     1      -2.430   0.313  24.843  0.00  0.00    +0.016 C 
ATOM      5  C   UNL     1      -2.812   1.009  25.068  0.00  0.00    +0.022 C 
ATOM      6  C   UNL     1      -2.422   1.733  25.001  0.00  0.00    +0.093 C 
ATOM      7  N   UNL     1      -1.651   1.761  24.709  0.00  0.00    -0.278 N 
ATOM      8  C   UNL     1      -1.270   1.064  24.484  0.00  0.00    +0.098 C 
ATOM      9  C   UNL     1      -1.659   0.340  24.551  0.00  0.00    +0.042 C 
ATOM     10  C   UNL     1      -1.278  -0.355  24.326  0.00  0.00    -0.026 C 
ATOM     11  C   UNL     1      -0.435  -0.364  24.002  0.00  0.00    +0.016 C 
ATOM     12  C   UNL     1       0.134  -0.892  23.724  0.00  0.00    +0.231 C 
ATOM     13  O   UNL     1       0.805  -0.458  23.516  0.00  0.00    -0.471 OA
ATOM     14  C   UNL     1       0.648   0.339  23.666  0.00  0.00    +0.136 A 
ATOM     15  C   UNL     1       1.059  -0.338  23.432  0.00  0.00    +0.038 A 
ATOM     16  C   UNL     1       1.829  -0.274  23.144  0.00  0.00    +0.018 A 
ATOM     17  C   UNL     1       2.189   0.466  23.089  0.00  0.00    +0.048 A 
ATOM     18  C   UNL     1       1.780   1.142  23.323  0.00  0.00    +0.015 A 
ATOM     19  C   UNL     1       1.009   1.079  23.611  0.00  0.00    +0.030 A 
ATOM     20  C   UNL     1       0.662   1.845  23.831  0.00  0.00    +0.119 C 
ATOM     21  N   UNL     1      -0.109   1.817  24.124  0.00  0.00    -0.204 NA
ATOM     22  C   UNL     1      -0.491   2.513  24.349  0.00  0.00    +0.174 C 
ATOM     23  C   UNL     1      -1.262   2.485  24.641  0.00  0.00    +0.243 C 
ATOM     24  O   UNL     1      -1.643   3.181  24.866  0.00  0.00    -0.273 OA
ENDROOT
BRANCH  17  25
ATOM     25  N   UNL     1       2.960   0.530  22.801  0.00  0.00    -0.303 N 
ATOM     26  C   UNL     1       3.574   0.741  23.310  0.00  0.00    +0.123 C 
ATOM     27  C   UNL     1       4.345   0.805  23.022  0.00  0.00    +0.164 C 
ATOM     28  O   UNL     1       4.501   0.658  22.226  0.00  0.00    -0.350 OA
ATOM     29  C   UNL     1       3.887   0.447  21.717  0.00  0.00    +0.164 C 
ATOM     30  C   UNL     1       3.117   0.383  22.004  0.00  0.00    +0.123 C 
ENDBRANCH  17  25
BRANCH   4   3
ATOM      3  C   UNL     1      -2.820  -0.411  24.911  0.00  0.00    +0.086 C 
BRANCH   3   2
ATOM      1  O   UNL     1      -3.882   0.051  24.075  0.00  0.00    -0.275 OA
ATOM      2  C   UNL     1      -3.483  -0.568  24.446  0.00  0.00    +0.226 C 
ATOM     31  N   UNL     1      -3.748  -1.344  24.352  0.00  0.00    -0.274 N 
ATOM     32  C   UNL     1      -4.411  -1.500  23.887  0.00  0.00    +0.125 C 
ATOM     33  C   UNL     1      -4.675  -2.276  23.794  0.00  0.00    +0.164 C 
ATOM     34  O   UNL     1      -4.277  -2.896  24.166  0.00  0.00    -0.350 OA
ATOM     35  C   UNL     1      -3.613  -2.739  24.630  0.00  0.00    +0.164 C 
ATOM     36  C   UNL     1      -3.348  -1.964  24.724  0.00  0.00    +0.125 C 
ENDBRANCH   3   2
ENDBRANCH   4   3
TORSDOF 3
ENDMDL
