MODEL 1
REMARK VINA RESULT:      -8.5      0.000      0.000
REMARK  Name = 
REMARK  10 active torsions:
REMARK  status: ('A' for Active; 'I' for Inactive)
REMARK    1  A    between atoms: C_2  and  C_3
REMARK    2  A    between atoms: C_3  and  C_4
REMARK    3  A    between atoms: C_4  and  C_5
REMARK    4  A    between atoms: C_5  and  C_6
REMARK    5  A    between atoms: C_11  and  C_12
REMARK    6  A    between atoms: C_12  and  C_13
REMARK    7  A    between atoms: N_15  and  C_17
REMARK    8  A    between atoms: C_17  and  C_18
REMARK    9  A    between atoms: C_18  and  C_19
REMARK   10  A    between atoms: C_21  and  C_22
REMARK                            x       y       z     vdW  Elec       q    Type
REMARK                         _______ _______ _______ _____ _____    ______ ____
ROOT
ATOM      6  C   UNL     1      -3.641  -0.089  23.789  0.00  0.00    +0.226 C 
ATOM      7  O   UNL     1      -3.033  -0.251  23.255  0.00  0.00    -0.275 OA
ATOM      8  N   UNL     1      -3.733   0.673  24.089  0.00  0.00    -0.280 N 
ATOM      9  C   UNL     1      -3.218   1.274  23.856  0.00  0.00    +0.093 C 
ATOM     10  C   UNL     1      -3.311   2.037  24.156  0.00  0.00    +0.022 C 
ATOM     11  C   UNL     1      -3.919   2.199  24.689  0.00  0.00    +0.012 C 
ATOM     21  C   UNL     1      -4.434   1.599  24.923  0.00  0.00    +0.020 C 
ATOM     24  C   UNL     1      -4.341   0.836  24.622  0.00  0.00    +0.093 C 
ENDROOT
BRANCH  21  22
ATOM     22  C   UNL     1      -5.041   1.761  25.456  0.00  0.00    +0.002 C 
ATOM     23  C   UNL     1      -5.806   1.486  25.307  0.00  0.00    +0.000 C 
ENDBRANCH  21  22
BRANCH   6   5
ATOM      5  C   UNL     1      -4.156  -0.690  24.022  0.00  0.00    +0.085 C 
BRANCH   5   4
ATOM      4  C   UNL     1      -3.993  -1.473  23.823  0.00  0.00    +0.010 C 
BRANCH   4   3
ATOM      3  C   UNL     1      -4.195  -2.082  24.343  0.00  0.00    +0.001 C 
BRANCH   3   2
ATOM      1  C   UNL     1      -3.453  -3.235  24.745  0.00  0.00    +0.000 C 
ATOM      2  C   UNL     1      -3.937  -2.851  24.198  0.00  0.00    +0.000 C 
ENDBRANCH   3   2
ENDBRANCH   4   3
ENDBRANCH   5   4
ENDBRANCH   6   5
BRANCH  11  12
ATOM     12  C   UNL     1      -4.012   2.962  24.990  0.00  0.00    +0.085 C 
BRANCH  12  13
ATOM     13  C   UNL     1      -3.517   3.570  24.730  0.00  0.00    +0.226 C 
ATOM     14  O   UNL     1      -3.433   3.717  23.923  0.00  0.00    -0.275 OA
ATOM     15  N   UNL     1      -3.108   4.031  25.279  0.00  0.00    -0.277 N 
ATOM     16  C   UNL     1      -3.192   3.884  26.086  0.00  0.00    +0.115 C 
BRANCH  15  17
ATOM     17  C   UNL     1      -2.614   4.639  25.019  0.00  0.00    +0.110 C 
BRANCH  17  18
ATOM     18  C   UNL     1      -1.964   4.864  25.475  0.00  0.00    +0.127 C 
BRANCH  18  19
ATOM     19  C   UNL     1      -1.301   5.195  25.112  0.00  0.00    +0.075 C 
ATOM     20  N   UNL     1      -0.638   5.525  24.749  0.00  0.00    -0.196 NA
ENDBRANCH  18  19
ENDBRANCH  17  18
ENDBRANCH  15  17
ENDBRANCH  12  13
ENDBRANCH  11  12
TORSDOF 10
ENDMDL
MODEL 2
REMARK VINA RESULT:      -8.3      3.165      4.549
REMARK  Name = 
REMARK  10 active torsions:
REMARK  status: ('A' for Active; 'I' for Inactive)
REMARK    1  A    between atoms: C_2  and  C_3
REMARK    2  A    between atoms: C_3  and  C_4
REMARK    3  A    between atoms: C_4  and  C_5
REMARK    4  A    between atoms: C_5  and  C_6
REMARK    5  A    between atoms: C_11  and  C_12
REMARK    6  A    between atoms: C_12  and  C_13
REMARK    7  A    between atoms: N_15  and  C_17
REMARK    8  A    between atoms: C_17  and  C_18
REMARK    9  A    between atoms: C_18  and  C_19
REMARK   10  A    between atoms: C_21  and  C_22
REMARK                            x       y       z     vdW  Elec       q    Type
REMARK                         _______ _______ _______ _____ _____    ______ ____
ROOT
ATOM      6  C   UNL     1      -3.375   1.867  24.055  0.00  0.00    +0.226 C 
ATOM      7  O   UNL     1      -3.483   2.490  23.526  0.00  0.00    -0.275 OA
ATOM      8  N   UNL     1      -2.664   1.450  24.062  0.00  0.00    -0.280 N 
ATOM      9  C   UNL     1      -2.059   1.656  23.540  0.00  0.00    +0.093 C 
ATOM     10  C   UNL     1      -1.347   1.240  23.547  0.00  0.00    +0.022 C 
ATOM     11  C   UNL     1      -1.240   0.616  24.077  0.00  0.00    +0.012 C 
ATOM     21  C   UNL     1      -1.844   0.409  24.599  0.00  0.00    +0.020 C 
ATOM     24  C   UNL     1      -2.556   0.827  24.592  0.00  0.00    +0.093 C 
ENDROOT
BRANCH  21  22
ATOM     22  C   UNL     1      -1.736  -0.214  25.128  0.00  0.00    +0.002 C 
ATOM     23  C   UNL     1      -2.387  -0.645  25.396  0.00  0.00    +0.000 C 
ENDBRANCH  21  22
BRANCH   6   5
ATOM      5  C   UNL     1      -3.980   1.660  24.577  0.00  0.00    +0.085 C 
BRANCH   5   4
ATOM      4  C   UNL     1      -4.658   2.126  24.628  0.00  0.00    +0.010 C 
BRANCH   4   3
ATOM      3  C   UNL     1      -5.304   1.869  25.072  0.00  0.00    +0.001 C 
BRANCH   3   2
ATOM      1  C   UNL     1      -6.232   2.248  26.090  0.00  0.00    +0.000 C 
ATOM      2  C   UNL     1      -5.833   2.416  25.388  0.00  0.00    +0.000 C 
ENDBRANCH   3   2
ENDBRANCH   4   3
ENDBRANCH   5   4
ENDBRANCH   6   5
BRANCH  11  12
ATOM     12  C   UNL     1      -0.528   0.199  24.084  0.00  0.00    +0.085 C 
BRANCH  12  13
ATOM     13  C   UNL     1       0.167   0.565  23.829  0.00  0.00    +0.226 C 
ATOM     14  O   UNL     1       0.295   1.364  23.989  0.00  0.00    -0.275 OA
ATOM     15  N   UNL     1       0.733   0.130  23.415  0.00  0.00    -0.277 N 
ATOM     16  C   UNL     1       0.605  -0.668  23.255  0.00  0.00    +0.115 C 
BRANCH  15  17
ATOM     17  C   UNL     1       1.427   0.496  23.160  0.00  0.00    +0.110 C 
BRANCH  17  18
ATOM     18  C   UNL     1       2.000   0.058  22.759  0.00  0.00    +0.127 C 
BRANCH  18  19
ATOM     19  C   UNL     1       2.753   0.375  22.640  0.00  0.00    +0.075 C 
ATOM     20  N   UNL     1       3.505   0.692  22.520  0.00  0.00    -0.196 NA
ENDBRANCH  18  19
ENDBRANCH  17  18
ENDBRANCH  15  17
ENDBRANCH  12  13
ENDBRANCH  11  12
TORSDOF 10
ENDMDL
MODEL 3
REMARK VINA RESULT:      -8.3      1.309      5.464
REMARK  Name = 
REMARK  10 active torsions:
REMARK  status: ('A' for Active; 'I' for Inactive)
REMARK    1  A    between atoms: C_2  and  C_3
REMARK    2  A    between atoms: C_3  and  C_4
REMARK    3  A    between atoms: C_4  and  C_5
REMARK    4  A    between atoms: C_5  and  C_6
REMARK    5  A    between atoms: C_11  and  C_12
REMARK    6  A    between atoms: C_12  and  C_13
REMARK    7  A    between atoms: N_15  and  C_17
REMARK    8  A    between atoms: C_17  and  C_18
REMARK    9  A    between atoms: C_18  and  C_19
REMARK   10  A    between atoms: C_21  and  C_22
REMARK                            x       y       z     vdW  Elec       q    Type
REMARK                         _______ _______ _______ _____ _____    ______ ____
ROOT
ATOM      6  C   UNL     1      -3.422   3.502  25.298  0.00  0.00    +0.226 C 
ATOM      7  O   UNL     1      -3.838   3.726  25.975  0.00  0.00    -0.275 OA
ATOM      8  N   UNL     1      -3.547   2.757  24.967  0.00  0.00    -0.280 N 
ATOM      9  C   UNL     1      -4.087   2.237  25.310  0.00  0.00    +0.093 C 
ATOM     10  C   UNL     1      -4.212   1.493  24.979  0.00  0.00    +0.022 C 
ATOM     11  C   UNL     1      -3.796   1.268  24.302  0.00  0.00    +0.012 C 
ATOM     21  C   UNL     1      -3.256   1.787  23.957  0.00  0.00    +0.020 C 
ATOM     24  C   UNL     1      -3.132   2.533  24.290  0.00  0.00    +0.093 C 
ENDROOT
BRANCH  21  22
ATOM     22  C   UNL     1      -2.842   1.563  23.282  0.00  0.00    +0.002 C 
ATOM     23  C   UNL     1      -2.638   2.128  22.715  0.00  0.00    +0.000 C 
ENDBRANCH  21  22
BRANCH   6   5
ATOM      5  C   UNL     1      -2.882   4.022  24.955  0.00  0.00    +0.085 C 
BRANCH   5   4
ATOM      4  C   UNL     1      -2.409   4.501  25.431  0.00  0.00    +0.010 C 
BRANCH   4   3
ATOM      3  C   UNL     1      -1.922   5.072  25.089  0.00  0.00    +0.001 C 
BRANCH   3   2
ATOM      1  C   UNL     1      -0.615   5.513  24.716  0.00  0.00    +0.000 C 
ATOM      2  C   UNL     1      -1.103   5.003  25.144  0.00  0.00    +0.000 C 
ENDBRANCH   3   2
ENDBRANCH   4   3
ENDBRANCH   5   4
ENDBRANCH   6   5
BRANCH  11  12
ATOM     12  C   UNL     1      -3.921   0.523  23.969  0.00  0.00    +0.085 C 
BRANCH  12  13
ATOM     13  C   UNL     1      -3.880  -0.152  24.443  0.00  0.00    +0.226 C 
ATOM     14  O   UNL     1      -3.713  -0.082  25.248  0.00  0.00    -0.275 OA
ATOM     15  N   UNL     1      -4.007  -0.897  24.111  0.00  0.00    -0.277 N 
ATOM     16  C   UNL     1      -4.174  -0.967  23.307  0.00  0.00    +0.115 C 
BRANCH  15  17
ATOM     17  C   UNL     1      -3.966  -1.571  24.585  0.00  0.00    +0.110 C 
BRANCH  17  18
ATOM     18  C   UNL     1      -3.865  -2.312  24.237  0.00  0.00    +0.127 C 
BRANCH  18  19
ATOM     19  C   UNL     1      -3.572  -2.941  24.685  0.00  0.00    +0.075 C 
ATOM     20  N   UNL     1      -3.280  -3.569  25.132  0.00  0.00    -0.196 NA
ENDBRANCH  18  19
ENDBRANCH  17  18
ENDBRANCH  15  17
ENDBRANCH  12  13
ENDBRANCH  11  12
TORSDOF 10
ENDMDL
MODEL 4
REMARK VINA RESULT:      -7.9      1.573      2.090
REMARK  Name = 
REMARK  10 active torsions:
REMARK  status: ('A' for Active; 'I' for Inactive)
REMARK    1  A    between atoms: C_2  and  C_3
REMARK    2  A    between atoms: C_3  and  C_4
REMARK    3  A    between atoms: C_4  and  C_5
REMARK    4  A    between atoms: C_5  and  C_6
REMARK    5  A    between atoms: C_11  and  C_12
REMARK    6  A    between atoms: C_12  and  C_13
REMARK    7  A    between atoms: N_15  and  C_17
REMARK    8  A    between atoms: C_17  and  C_18
REMARK    9  A    between atoms: C_18  and  C_19
REMARK   10  A    between atoms: C_21  and  C_22
REMARK                            x       y       z     vdW  Elec       q    Type
REMARK                         _______ _______ _______ _____ _____    ______ ____
ROOT
ATOM      6  C   UNL     1      -3.805  -0.188  24.544  0.00  0.00    +0.226 C 
ATOM      7  O   UNL     1      -4.551   0.059  24.293  0.00  0.00    -0.275 OA
ATOM      8  N   UNL     1      -3.213   0.368  24.686  0.00  0.00    -0.280 N 
ATOM      9  C   UNL     1      -3.366   1.171  24.576  0.00  0.00    +0.093 C 
ATOM     10  C   UNL     1      -2.773   1.727  24.717  0.00  0.00    +0.022 C 
ATOM     11  C   UNL     1      -2.028   1.480  24.968  0.00  0.00    +0.012 C 
ATOM     21  C   UNL     1      -1.874   0.678  25.079  0.00  0.00    +0.020 C 
ATOM     24  C   UNL     1      -2.467   0.121  24.937  0.00  0.00    +0.093 C 
ENDROOT
BRANCH  21  22
ATOM     22  C   UNL     1      -1.129   0.431  25.330  0.00  0.00    +0.002 C 
ATOM     23  C   UNL     1      -0.860  -0.327  25.143  0.00  0.00    +0.000 C 
ENDBRANCH  21  22
BRANCH   6   5
ATOM      5  C   UNL     1      -3.653  -0.991  24.654  0.00  0.00    +0.085 C 
BRANCH   5   4
ATOM      4  C   UNL     1      -4.104  -1.556  24.257  0.00  0.00    +0.010 C 
BRANCH   4   3
ATOM      3  C   UNL     1      -4.042  -2.353  24.462  0.00  0.00    +0.001 C 
BRANCH   3   2
ATOM      1  C   UNL     1      -3.595  -3.642  24.038  0.00  0.00    +0.000 C 
ATOM      2  C   UNL     1      -3.970  -2.925  23.873  0.00  0.00    +0.000 C 
ENDBRANCH   3   2
ENDBRANCH   4   3
ENDBRANCH   5   4
ENDBRANCH   6   5
BRANCH  11  12
ATOM     12  C   UNL     1      -1.435   2.036  25.110  0.00  0.00    +0.085 C 
BRANCH  12  13
ATOM     13  C   UNL     1      -1.635   2.806  25.330  0.00  0.00    +0.226 C 
ATOM     14  O   UNL     1      -2.344   2.950  25.727  0.00  0.00    -0.275 OA
ATOM     15  N   UNL     1      -1.126   3.432  25.154  0.00  0.00    -0.277 N 
ATOM     16  C   UNL     1      -0.419   3.288  24.757  0.00  0.00    +0.115 C 
BRANCH  15  17
ATOM     17  C   UNL     1      -1.327   4.201  25.374  0.00  0.00    +0.110 C 
BRANCH  17  18
ATOM     18  C   UNL     1      -0.971   4.843  24.998  0.00  0.00    +0.127 C 
BRANCH  18  19
ATOM     19  C   UNL     1      -1.345   5.579  24.998  0.00  0.00    +0.075 C 
ATOM     20  N   UNL     1      -1.717   6.315  24.998  0.00  0.00    -0.196 NA
ENDBRANCH  18  19
ENDBRANCH  17  18
ENDBRANCH  15  17
ENDBRANCH  12  13
ENDBRANCH  11  12
TORSDOF 10
ENDMDL
MODEL 5
REMARK VINA RESULT:      -7.7      3.474      4.744
REMARK  Name = 
REMARK  10 active torsions:
REMARK  status: ('A' for Active; 'I' for Inactive)
REMARK    1  A    between atoms: C_2  and  C_3
REMARK    2  A    between atoms: C_3  and  C_4
REMARK    3  A    between atoms: C_4  and  C_5
REMARK    4  A    between atoms: C_5  and  C_6
REMARK    5  A    between atoms: C_11  and  C_12
REMARK    6  A    between atoms: C_12  and  C_13
REMARK    7  A    between atoms: N_15  and  C_17
REMARK    8  A    between atoms: C_17  and  C_18
REMARK    9  A    between atoms: C_18  and  C_19
REMARK   10  A    between atoms: C_21  and  C_22
REMARK                            x       y       z     vdW  Elec       q    Type
REMARK                         _______ _______ _______ _____ _____    ______ ____
ROOT
ATOM      6  C   UNL     1       0.482   0.476  23.422  0.00  0.00    +0.226 C 
ATOM      7  O   UNL     1       0.316  -0.150  22.910  0.00  0.00    -0.275 OA
ATOM      8  N   UNL     1      -0.135   0.875  23.797  0.00  0.00    -0.280 N 
ATOM      9  C   UNL     1      -0.917   0.649  23.661  0.00  0.00    +0.093 C 
ATOM     10  C   UNL     1      -1.533   1.048  24.036  0.00  0.00    +0.022 C 
ATOM     11  C   UNL     1      -1.368   1.674  24.548  0.00  0.00    +0.012 C 
ATOM     21  C   UNL     1      -0.586   1.901  24.684  0.00  0.00    +0.020 C 
ATOM     24  C   UNL     1       0.031   1.501  24.308  0.00  0.00    +0.093 C 
ENDROOT
BRANCH  21  22
ATOM     22  C   UNL     1      -0.421   2.526  25.195  0.00  0.00    +0.002 C 
ATOM     23  C   UNL     1       0.191   2.460  25.745  0.00  0.00    +0.000 C 
ENDBRANCH  21  22
BRANCH   6   5
ATOM      5  C   UNL     1       1.264   0.702  23.557  0.00  0.00    +0.085 C 
BRANCH   5   4
ATOM      4  C   UNL     1       1.866   0.418  23.072  0.00  0.00    +0.010 C 
BRANCH   4   3
ATOM      3  C   UNL     1       2.618   0.755  23.105  0.00  0.00    +0.001 C 
BRANCH   3   2
ATOM      1  C   UNL     1       3.996   0.747  22.728  0.00  0.00    +0.000 C 
ATOM      2  C   UNL     1       3.241   0.417  22.684  0.00  0.00    +0.000 C 
ENDBRANCH   3   2
ENDBRANCH   4   3
ENDBRANCH   5   4
ENDBRANCH   6   5
BRANCH  11  12
ATOM     12  C   UNL     1      -1.983   2.074  24.924  0.00  0.00    +0.085 C 
BRANCH  12  13
ATOM     13  C   UNL     1      -2.743   1.751  24.926  0.00  0.00    +0.226 C 
ATOM     14  O   UNL     1      -2.844   0.933  24.915  0.00  0.00    -0.275 OA
ATOM     15  N   UNL     1      -3.403   2.248  24.939  0.00  0.00    -0.277 N 
ATOM     16  C   UNL     1      -3.302   3.066  24.950  0.00  0.00    +0.115 C 
BRANCH  15  17
ATOM     17  C   UNL     1      -4.162   1.926  24.941  0.00  0.00    +0.110 C 
BRANCH  17  18
ATOM     18  C   UNL     1      -4.820   2.422  24.976  0.00  0.00    +0.127 C 
BRANCH  18  19
ATOM     19  C   UNL     1      -5.579   2.099  24.986  0.00  0.00    +0.075 C 
ATOM     20  N   UNL     1      -6.339   1.777  24.995  0.00  0.00    -0.196 NA
ENDBRANCH  18  19
ENDBRANCH  17  18
ENDBRANCH  15  17
ENDBRANCH  12  13
ENDBRANCH  11  12
TORSDOF 10
ENDMDL
MODEL 6
REMARK VINA RESULT:      -6.5     13.987     15.929
REMARK  Name = 
REMARK  10 active torsions:
REMARK  status: ('A' for Active; 'I' for Inactive)
REMARK    1  A    between atoms: C_2  and  C_3
REMARK    2  A    between atoms: C_3  and  C_4
REMARK    3  A    between atoms: C_4  and  C_5
REMARK    4  A    between atoms: C_5  and  C_6
REMARK    5  A    between atoms: C_11  and  C_12
REMARK    6  A    between atoms: C_12  and  C_13
REMARK    7  A    between atoms: N_15  and  C_17
REMARK    8  A    between atoms: C_17  and  C_18
REMARK    9  A    between atoms: C_18  and  C_19
REMARK   10  A    between atoms: C_21  and  C_22
REMARK                            x       y       z     vdW  Elec       q    Type
REMARK                         _______ _______ _______ _____ _____    ______ ____
ROOT
ATOM      6  C   UNL     1      -4.209 -10.665  16.885  0.00  0.00    +0.226 C 
ATOM      7  O   UNL     1      -3.597 -10.778  17.427  0.00  0.00    -0.275 OA
ATOM      8  N   UNL     1      -4.048 -10.666  16.076  0.00  0.00    -0.280 N 
ATOM      9  C   UNL     1      -3.276 -10.780  15.809  0.00  0.00    +0.093 C 
ATOM     10  C   UNL     1      -3.115 -10.781  15.000  0.00  0.00    +0.022 C 
ATOM     11  C   UNL     1      -3.726 -10.668  14.458  0.00  0.00    +0.012 C 
ATOM     21  C   UNL     1      -4.499 -10.555  14.724  0.00  0.00    +0.020 C 
ATOM     24  C   UNL     1      -4.660 -10.554  15.534  0.00  0.00    +0.093 C 
ENDROOT
BRANCH  21  22
ATOM     22  C   UNL     1      -5.110 -10.443  14.183  0.00  0.00    +0.002 C 
ATOM     23  C   UNL     1      -5.884 -10.647  14.385  0.00  0.00    +0.000 C 
ENDBRANCH  21  22
BRANCH   6   5
ATOM      5  C   UNL     1      -4.981 -10.552  17.153  0.00  0.00    +0.085 C 
BRANCH   5   4
ATOM      4  C   UNL     1      -5.135 -10.502  17.961  0.00  0.00    +0.010 C 
BRANCH   4   3
ATOM      3  C   UNL     1      -5.909 -10.567  18.240  0.00  0.00    +0.001 C 
BRANCH   3   2
ATOM      1  C   UNL     1      -6.876 -10.353  19.269  0.00  0.00    +0.000 C 
ATOM      2  C   UNL     1      -6.101 -10.292  18.992  0.00  0.00    +0.000 C 
ENDBRANCH   3   2
ENDBRANCH   4   3
ENDBRANCH   5   4
ENDBRANCH   6   5
BRANCH  11  12
ATOM     12  C   UNL     1      -3.566 -10.669  13.649  0.00  0.00    +0.085 C 
BRANCH  12  13
ATOM     13  C   UNL     1      -2.835 -10.404  13.373  0.00  0.00    +0.226 C 
ATOM     14  O   UNL     1      -2.258 -10.154  13.908  0.00  0.00    -0.275 OA
ATOM     15  N   UNL     1      -2.680 -10.388  12.562  0.00  0.00    -0.277 N 
ATOM     16  C   UNL     1      -3.256 -10.637  12.028  0.00  0.00    +0.115 C 
BRANCH  15  17
ATOM     17  C   UNL     1      -1.949 -10.122  12.287  0.00  0.00    +0.110 C 
BRANCH  17  18
ATOM     18  C   UNL     1      -1.881  -9.826  11.520  0.00  0.00    +0.127 C 
BRANCH  18  19
ATOM     19  C   UNL     1      -1.215  -9.390  11.305  0.00  0.00    +0.075 C 
ATOM     20  N   UNL     1      -0.548  -8.954  11.089  0.00  0.00    -0.196 NA
ENDBRANCH  18  19
ENDBRANCH  17  18
ENDBRANCH  15  17
ENDBRANCH  12  13
ENDBRANCH  11  12
TORSDOF 10
ENDMDL
MODEL 7
REMARK VINA RESULT:      -6.1     14.112     16.098
REMARK  Name = 
REMARK  10 active torsions:
REMARK  status: ('A' for Active; 'I' for Inactive)
REMARK    1  A    between atoms: C_2  and  C_3
REMARK    2  A    between atoms: C_3  and  C_4
REMARK    3  A    between atoms: C_4  and  C_5
REMARK    4  A    between atoms: C_5  and  C_6
REMARK    5  A    between atoms: C_11  and  C_12
REMARK    6  A    between atoms: C_12  and  C_13
REMARK    7  A    between atoms: N_15  and  C_17
REMARK    8  A    between atoms: C_17  and  C_18
REMARK    9  A    between atoms: C_18  and  C_19
REMARK   10  A    between atoms: C_21  and  C_22
REMARK                            x       y       z     vdW  Elec       q    Type
REMARK                         _______ _______ _______ _____ _____    ______ ____
ROOT
ATOM      6  C   UNL     1      -4.744 -10.603  16.459  0.00  0.00    +0.226 C 
ATOM      7  O   UNL     1      -3.961 -10.764  16.662  0.00  0.00    -0.275 OA
ATOM      8  N   UNL     1      -4.949 -10.486  15.669  0.00  0.00    -0.280 N 
ATOM      9  C   UNL     1      -4.371 -10.531  15.081  0.00  0.00    +0.093 C 
ATOM     10  C   UNL     1      -4.576 -10.414  14.291  0.00  0.00    +0.022 C 
ATOM     11  C   UNL     1      -5.359 -10.253  14.088  0.00  0.00    +0.012 C 
ATOM     21  C   UNL     1      -5.938 -10.209  14.674  0.00  0.00    +0.020 C 
ATOM     24  C   UNL     1      -5.732 -10.325  15.465  0.00  0.00    +0.093 C 
ENDROOT
BRANCH  21  22
ATOM     22  C   UNL     1      -6.720 -10.048  14.470  0.00  0.00    +0.002 C 
ATOM     23  C   UNL     1      -7.336 -10.331  14.942  0.00  0.00    +0.000 C 
ENDBRANCH  21  22
BRANCH   6   5
ATOM      5  C   UNL     1      -5.322 -10.559  17.046  0.00  0.00    +0.085 C 
BRANCH   5   4
ATOM      4  C   UNL     1      -5.115 -10.662  17.838  0.00  0.00    +0.010 C 
BRANCH   4   3
ATOM      3  C   UNL     1      -5.700 -10.670  18.420  0.00  0.00    +0.001 C 
BRANCH   3   2
ATOM      1  C   UNL     1      -6.075 -10.758  19.796  0.00  0.00    +0.000 C 
ATOM      2  C   UNL     1      -5.492 -10.768  19.212  0.00  0.00    +0.000 C 
ENDBRANCH   3   2
ENDBRANCH   4   3
ENDBRANCH   5   4
ENDBRANCH   6   5
BRANCH  11  12
ATOM     12  C   UNL     1      -5.565 -10.137  13.297  0.00  0.00    +0.085 C 
BRANCH  12  13
ATOM     13  C   UNL     1      -4.979 -10.135  12.715  0.00  0.00    +0.226 C 
ATOM     14  O   UNL     1      -4.282 -10.562  12.829  0.00  0.00    -0.275 OA
ATOM     15  N   UNL     1      -5.091  -9.707  12.018  0.00  0.00    -0.277 N 
ATOM     16  C   UNL     1      -5.787  -9.281  11.904  0.00  0.00    +0.115 C 
BRANCH  15  17
ATOM     17  C   UNL     1      -4.506  -9.706  11.437  0.00  0.00    +0.110 C 
BRANCH  17  18
ATOM     18  C   UNL     1      -4.648  -9.338  10.712  0.00  0.00    +0.127 C 
BRANCH  18  19
ATOM     19  C   UNL     1      -4.030  -9.240  10.173  0.00  0.00    +0.075 C 
ATOM     20  N   UNL     1      -3.413  -9.142   9.634  0.00  0.00    -0.196 NA
ENDBRANCH  18  19
ENDBRANCH  17  18
ENDBRANCH  15  17
ENDBRANCH  12  13
ENDBRANCH  11  12
TORSDOF 10
ENDMDL
MODEL 8
REMARK VINA RESULT:      -6.1     14.005     14.700
REMARK  Name = 
REMARK  10 active torsions:
REMARK  status: ('A' for Active; 'I' for Inactive)
REMARK    1  A    between atoms: C_2  and  C_3
REMARK    2  A    between atoms: C_3  and  C_4
REMARK    3  A    between atoms: C_4  and  C_5
REMARK    4  A    between atoms: C_5  and  C_6
REMARK    5  A    between atoms: C_11  and  C_12
REMARK    6  A    between atoms: C_12  and  C_13
REMARK    7  A    between atoms: N_15  and  C_17
REMARK    8  A    between atoms: C_17  and  C_18
REMARK    9  A    between atoms: C_18  and  C_19
REMARK   10  A    between atoms: C_21  and  C_22
REMARK                            x       y       z     vdW  Elec       q    Type
REMARK                         _______ _______ _______ _____ _____    ______ ____
ROOT
ATOM      6  C   UNL     1      -7.896  -9.457  17.057  0.00  0.00    +0.226 C 
ATOM      7  O   UNL     1      -8.151  -9.083  16.367  0.00  0.00    -0.275 OA
ATOM      8  N   UNL     1      -7.125  -9.745  17.109  0.00  0.00    -0.280 N 
ATOM      9  C   UNL     1      -6.609  -9.661  16.471  0.00  0.00    +0.093 C 
ATOM     10  C   UNL     1      -5.838  -9.949  16.523  0.00  0.00    +0.022 C 
ATOM     11  C   UNL     1      -5.583 -10.323  17.213  0.00  0.00    +0.012 C 
ATOM     21  C   UNL     1      -6.099 -10.408  17.851  0.00  0.00    +0.020 C 
ATOM     24  C   UNL     1      -6.871 -10.119  17.799  0.00  0.00    +0.093 C 
ENDROOT
BRANCH  21  22
ATOM     22  C   UNL     1      -5.844 -10.781  18.540  0.00  0.00    +0.002 C 
ATOM     23  C   UNL     1      -6.188 -10.587  19.266  0.00  0.00    +0.000 C 
ENDBRANCH  21  22
BRANCH   6   5
ATOM      5  C   UNL     1      -8.413  -9.542  17.695  0.00  0.00    +0.085 C 
BRANCH   5   4
ATOM      4  C   UNL     1      -9.227  -9.559  17.567  0.00  0.00    +0.010 C 
BRANCH   4   3
ATOM      3  C   UNL     1      -9.747  -9.415  18.192  0.00  0.00    +0.001 C 
BRANCH   3   2
ATOM      1  C   UNL     1     -10.692  -9.902  19.146  0.00  0.00    +0.000 C 
ATOM      2  C   UNL     1     -10.241 -10.016  18.464  0.00  0.00    +0.000 C 
ENDBRANCH   3   2
ENDBRANCH   4   3
ENDBRANCH   5   4
ENDBRANCH   6   5
BRANCH  11  12
ATOM     12  C   UNL     1      -4.812 -10.612  17.266  0.00  0.00    +0.085 C 
BRANCH  12  13
ATOM     13  C   UNL     1      -4.348 -10.674  16.586  0.00  0.00    +0.226 C 
ATOM     14  O   UNL     1      -4.706 -10.781  15.850  0.00  0.00    -0.275 OA
ATOM     15  N   UNL     1      -3.526 -10.629  16.642  0.00  0.00    -0.277 N 
ATOM     16  C   UNL     1      -3.168 -10.523  17.377  0.00  0.00    +0.115 C 
BRANCH  15  17
ATOM     17  C   UNL     1      -3.062 -10.692  15.963  0.00  0.00    +0.110 C 
BRANCH  17  18
ATOM     18  C   UNL     1      -2.242 -10.630  16.017  0.00  0.00    +0.127 C 
BRANCH  18  19
ATOM     19  C   UNL     1      -1.796 -10.455  15.345  0.00  0.00    +0.075 C 
ATOM     20  N   UNL     1      -1.350 -10.280  14.673  0.00  0.00    -0.196 NA
ENDBRANCH  18  19
ENDBRANCH  17  18
ENDBRANCH  15  17
ENDBRANCH  12  13
ENDBRANCH  11  12
TORSDOF 10
ENDMDL
