MODEL 1
REMARK VINA RESULT:      -9.1      0.000      0.000
REMARK  Name = 
REMARK  8 active torsions:
REMARK  status: ('A' for Active; 'I' for Inactive)
REMARK    1  A    between atoms: N_2  and  C_4
REMARK    2  A    between atoms: C_7  and  C_10
REMARK    3  A    between atoms: N_15  and  C_16
REMARK    4  A    between atoms: C_20  and  N_24
REMARK    5  A    between atoms: C_25  and  C_27
REMARK    6  A    between atoms: C_27  and  C_28
REMARK    7  A    between atoms: C_28  and  C_29
REMARK    8  A    between atoms: C_29  and  C_30
REMARK                            x       y       z     vdW  Elec       q    Type
REMARK                         _______ _______ _______ _____ _____    ______ ____
ROOT
ATOM     16  C   UNL     1      -0.288   1.467  24.397  0.00  0.00    +0.154 C 
ATOM     17  C   UNL     1       0.190   2.075  24.684  0.00  0.00    +0.166 C 
ATOM     18  O   UNL     1       0.939   1.991  24.348  0.00  0.00    -0.350 OA
ATOM     19  C   UNL     1       0.923   1.331  23.853  0.00  0.00    +0.166 C 
ATOM     20  C   UNL     1       1.376   0.871  23.340  0.00  0.00    +0.154 C 
ATOM     21  C   UNL     1       0.898   0.263  23.052  0.00  0.00    +0.166 C 
ATOM     22  O   UNL     1       0.149   0.348  23.388  0.00  0.00    -0.350 OA
ATOM     23  C   UNL     1       0.164   1.007  23.883  0.00  0.00    +0.166 C 
ENDROOT
BRANCH  16  15
ATOM     10  C   UNL     1      -2.954   2.458  24.677  0.00  0.00    +0.086 A 
ATOM     11  C   UNL     1      -2.703   3.205  24.432  0.00  0.00    +0.040 A 
ATOM     12  C   UNL     1      -1.911   3.330  24.240  0.00  0.00    +0.103 A 
ATOM     13  N   UNL     1      -1.369   2.709  24.292  0.00  0.00    -0.211 NA
ATOM     14  C   UNL     1      -1.621   1.963  24.537  0.00  0.00    +0.237 A 
ATOM     15  N   UNL     1      -1.081   1.341  24.589  0.00  0.00    -0.200 NA
ATOM     33  N   UNL     1      -2.414   1.837  24.730  0.00  0.00    -0.212 NA
BRANCH  10   7
ATOM      4  C   UNL     1      -5.332   2.081  25.255  0.00  0.00    +0.048 A 
ATOM      5  C   UNL     1      -4.948   2.764  25.513  0.00  0.00    +0.015 A 
ATOM      6  C   UNL     1      -4.155   2.890  25.321  0.00  0.00    +0.003 A 
ATOM      7  C   UNL     1      -3.747   2.332  24.870  0.00  0.00    +0.018 A 
ATOM      8  C   UNL     1      -4.131   1.649  24.611  0.00  0.00    +0.003 A 
ATOM      9  C   UNL     1      -4.923   1.524  24.804  0.00  0.00    +0.015 A 
BRANCH   4   2
ATOM      1  C   UNL     1      -6.666   1.763  24.856  0.00  0.00    +0.112 C 
ATOM      2  N   UNL     1      -6.124   1.955  25.447  0.00  0.00    -0.304 N 
ATOM      3  C   UNL     1      -6.374   2.022  26.231  0.00  0.00    +0.112 C 
ENDBRANCH   4   2
ENDBRANCH  10   7
ENDBRANCH  16  15
BRANCH  20  24
ATOM     24  N   UNL     1       2.168   0.996  23.147  0.00  0.00    -0.202 NA
ATOM     25  C   UNL     1       2.616   0.385  22.820  0.00  0.00    +0.241 C 
ATOM     26  O   UNL     1       2.270  -0.352  22.686  0.00  0.00    -0.273 OA
BRANCH  25  27
ATOM     27  C   UNL     1       3.407   0.511  22.628  0.00  0.00    +0.087 C 
BRANCH  27  28
ATOM     28  C   UNL     1       4.003   0.250  23.136  0.00  0.00    +0.021 C 
BRANCH  28  29
ATOM     29  C   UNL     1       4.776   0.519  23.039  0.00  0.00    +0.115 C 
BRANCH  29  30
ATOM     30  C   UNL     1       5.371   0.261  23.549  0.00  0.00    +0.365 C 
ATOM     31  O   UNL     1       5.384   0.520  24.332  0.00  0.00    -0.246 OA
ATOM     32  O   UNL     1       5.952  -0.256  23.276  0.00  0.00    -0.246 OA
ENDBRANCH  29  30
ENDBRANCH  28  29
ENDBRANCH  27  28
ENDBRANCH  25  27
ENDBRANCH  20  24
TORSDOF 8
ENDMDL
MODEL 2
REMARK VINA RESULT:      -7.4      2.150      7.685
REMARK  Name = 
REMARK  8 active torsions:
REMARK  status: ('A' for Active; 'I' for Inactive)
REMARK    1  A    between atoms: N_2  and  C_4
REMARK    2  A    between atoms: C_7  and  C_10
REMARK    3  A    between atoms: N_15  and  C_16
REMARK    4  A    between atoms: C_20  and  N_24
REMARK    5  A    between atoms: C_25  and  C_27
REMARK    6  A    between atoms: C_27  and  C_28
REMARK    7  A    between atoms: C_28  and  C_29
REMARK    8  A    between atoms: C_29  and  C_30
REMARK                            x       y       z     vdW  Elec       q    Type
REMARK                         _______ _______ _______ _____ _____    ______ ____
ROOT
ATOM     16  C   UNL     1      -0.286   1.129  24.009  0.00  0.00    +0.154 C 
ATOM     17  C   UNL     1      -0.787   0.485  23.891  0.00  0.00    +0.166 C 
ATOM     18  O   UNL     1      -1.562   0.766  23.867  0.00  0.00    -0.350 OA
ATOM     19  C   UNL     1      -1.539   1.584  23.970  0.00  0.00    +0.166 C 
ATOM     20  C   UNL     1      -2.005   2.264  24.018  0.00  0.00    +0.154 C 
ATOM     21  C   UNL     1      -1.503   2.909  24.136  0.00  0.00    +0.166 C 
ATOM     22  O   UNL     1      -0.728   2.627  24.160  0.00  0.00    -0.350 OA
ATOM     23  C   UNL     1      -0.750   1.809  24.058  0.00  0.00    +0.166 C 
ENDROOT
BRANCH  16  15
ATOM     10  C   UNL     1       2.236   0.227  23.012  0.00  0.00    +0.086 A 
ATOM     11  C   UNL     1       1.853  -0.164  22.395  0.00  0.00    +0.040 A 
ATOM     12  C   UNL     1       1.031  -0.134  22.337  0.00  0.00    +0.103 A 
ATOM     13  N   UNL     1       0.592   0.287  22.894  0.00  0.00    -0.211 NA
ATOM     14  C   UNL     1       0.975   0.678  23.511  0.00  0.00    +0.237 A 
ATOM     15  N   UNL     1       0.537   1.099  24.069  0.00  0.00    -0.200 NA
ATOM     33  N   UNL     1       1.798   0.648  23.570  0.00  0.00    -0.212 NA
BRANCH  10   7
ATOM      4  C   UNL     1       4.704   0.138  23.190  0.00  0.00    +0.048 A 
ATOM      5  C   UNL     1       4.337   0.807  22.877  0.00  0.00    +0.015 A 
ATOM      6  C   UNL     1       3.514   0.837  22.817  0.00  0.00    +0.003 A 
ATOM      7  C   UNL     1       3.059   0.197  23.072  0.00  0.00    +0.018 A 
ATOM      8  C   UNL     1       3.426  -0.472  23.385  0.00  0.00    +0.003 A 
ATOM      9  C   UNL     1       4.248  -0.502  23.444  0.00  0.00    +0.015 A 
BRANCH   4   2
ATOM      1  C   UNL     1       5.970  -0.237  22.646  0.00  0.00    +0.112 C 
ATOM      2  N   UNL     1       5.526   0.108  23.249  0.00  0.00    -0.304 N 
ATOM      3  C   UNL     1       5.904   0.424  23.911  0.00  0.00    +0.112 C 
ENDBRANCH   4   2
ENDBRANCH  10   7
ENDBRANCH  16  15
BRANCH  20  24
ATOM     24  N   UNL     1      -2.826   2.294  23.958  0.00  0.00    -0.202 NA
ATOM     25  C   UNL     1      -3.259   2.791  24.456  0.00  0.00    +0.241 C 
ATOM     26  O   UNL     1      -2.868   3.257  25.013  0.00  0.00    -0.273 OA
BRANCH  25  27
ATOM     27  C   UNL     1      -4.080   2.821  24.397  0.00  0.00    +0.087 C 
BRANCH  27  28
ATOM     28  C   UNL     1      -4.547   2.716  25.069  0.00  0.00    +0.021 C 
BRANCH  28  29
ATOM     29  C   UNL     1      -5.369   2.698  25.002  0.00  0.00    +0.115 C 
BRANCH  29  30
ATOM     30  C   UNL     1      -5.826   2.382  25.612  0.00  0.00    +0.365 C 
ATOM     31  O   UNL     1      -5.864   2.764  26.341  0.00  0.00    -0.246 OA
ATOM     32  O   UNL     1      -6.247   1.683  25.491  0.00  0.00    -0.246 OA
ENDBRANCH  29  30
ENDBRANCH  28  29
ENDBRANCH  27  28
ENDBRANCH  25  27
ENDBRANCH  20  24
TORSDOF 8
ENDMDL
