MODEL 1
REMARK VINA RESULT:     -12.1      0.000      0.000
REMARK  Name = 
REMARK  7 active torsions:
REMARK  status: ('A' for Active; 'I' for Inactive)
REMARK    1  A    between atoms: O_2  and  C_3
REMARK    2  A    between atoms: C_8  and  C_9
REMARK    3  A    between atoms: C_9  and  N_10
REMARK    4  A    between atoms: N_10  and  C_11
REMARK    5  A    between atoms: C_11  and  C_12
REMARK    6  A    between atoms: C_12  and  C_13
REMARK    7  A    between atoms: C_16  and  C_18
REMARK                            x       y       z     vdW  Elec       q    Type
REMARK                         _______ _______ _______ _____ _____    ______ ____
ROOT
ATOM     11  C   UNL     1      -4.010   2.633  24.957  0.00  0.00    +0.120 C 
ATOM     25  C   UNL     1      -4.122   3.258  25.483  0.00  0.00    +0.161 C 
ATOM     26  O   UNL     1      -4.914   3.309  25.254  0.00  0.00    -0.351 OA
ATOM     27  C   UNL     1      -4.801   2.682  24.728  0.00  0.00    +0.161 C 
ENDROOT
BRANCH  11  10
ATOM     10  N   UNL     1      -3.219   2.582  25.185  0.00  0.00    -0.211 NA
BRANCH  10   9
ATOM      9  C   UNL     1      -2.743   3.255  25.177  0.00  0.00    +0.118 C 
BRANCH   9   8
ATOM      3  C   UNL     1      -1.443   3.845  25.244  0.00  0.00    +0.136 A 
ATOM      4  C   UNL     1      -0.639   3.784  25.419  0.00  0.00    +0.037 A 
ATOM      5  C   UNL     1      -0.331   3.073  25.702  0.00  0.00    +0.003 A 
ATOM      6  C   UNL     1      -0.827   2.423  25.810  0.00  0.00    -0.000 A 
ATOM      7  C   UNL     1      -1.631   2.483  25.634  0.00  0.00    +0.000 A 
ATOM      8  C   UNL     1      -1.939   3.195  25.352  0.00  0.00    +0.029 A 
BRANCH   3   2
ATOM      1  C   UNL     1      -1.282   5.235  24.956  0.00  0.00    +0.252 C 
ATOM      2  O   UNL     1      -1.751   4.556  24.961  0.00  0.00    -0.472 OA
ENDBRANCH   3   2
ENDBRANCH   9   8
ENDBRANCH  10   9
ENDBRANCH  11  10
BRANCH  11  12
ATOM     12  C   UNL     1      -3.898   2.007  24.430  0.00  0.00    +0.070 C 
BRANCH  12  13
ATOM     13  C   UNL     1      -4.134   1.245  24.640  0.00  0.00    +0.102 A 
ATOM     14  N   UNL     1      -4.758   1.051  25.143  0.00  0.00    -0.081 NA
ATOM     15  O   UNL     1      -4.797   0.229  25.197  0.00  0.00    -0.354 OA
ATOM     16  C   UNL     1      -4.195  -0.086  24.728  0.00  0.00    +0.177 A 
ATOM     17  C   UNL     1      -3.786   0.542  24.384  0.00  0.00    +0.058 A 
BRANCH  16  18
ATOM     18  C   UNL     1      -4.032  -0.888  24.621  0.00  0.00    +0.037 A 
ATOM     19  C   UNL     1      -3.578  -1.293  25.179  0.00  0.00    +0.005 A 
ATOM     20  C   UNL     1      -3.415  -2.095  25.072  0.00  0.00    +0.030 A 
ATOM     21  C   UNL     1      -3.706  -2.491  24.409  0.00  0.00    +0.140 A 
ATOM     22  F   UNL     1      -3.543  -3.292  24.303  0.00  0.00    -0.204 F 
ATOM     23  C   UNL     1      -4.160  -2.085  23.853  0.00  0.00    +0.030 A 
ATOM     24  C   UNL     1      -4.323  -1.284  23.959  0.00  0.00    +0.005 A 
ENDBRANCH  16  18
ENDBRANCH  12  13
ENDBRANCH  11  12
TORSDOF 7
ENDMDL
MODEL 2
REMARK VINA RESULT:     -11.8      2.030      5.038
REMARK  Name = 
REMARK  7 active torsions:
REMARK  status: ('A' for Active; 'I' for Inactive)
REMARK    1  A    between atoms: O_2  and  C_3
REMARK    2  A    between atoms: C_8  and  C_9
REMARK    3  A    between atoms: C_9  and  N_10
REMARK    4  A    between atoms: N_10  and  C_11
REMARK    5  A    between atoms: C_11  and  C_12
REMARK    6  A    between atoms: C_12  and  C_13
REMARK    7  A    between atoms: C_16  and  C_18
REMARK                            x       y       z     vdW  Elec       q    Type
REMARK                         _______ _______ _______ _____ _____    ______ ____
ROOT
ATOM     11  C   UNL     1      -4.763   1.469  24.845  0.00  0.00    +0.120 C 
ATOM     25  C   UNL     1      -5.422   1.125  25.202  0.00  0.00    +0.161 C 
ATOM     26  O   UNL     1      -5.887   1.761  24.957  0.00  0.00    -0.351 OA
ATOM     27  C   UNL     1      -5.227   2.105  24.599  0.00  0.00    +0.161 C 
ENDROOT
BRANCH  11  10
ATOM     10  N   UNL     1      -4.298   0.832  25.090  0.00  0.00    -0.211 NA
BRANCH  10   9
ATOM      9  C   UNL     1      -4.434   0.080  24.784  0.00  0.00    +0.118 C 
BRANCH   9   8
ATOM      3  C   UNL     1      -3.969  -1.262  24.616  0.00  0.00    +0.136 A 
ATOM      4  C   UNL     1      -3.527  -1.903  24.888  0.00  0.00    +0.037 A 
ATOM      5  C   UNL     1      -3.108  -1.847  25.596  0.00  0.00    +0.003 A 
ATOM      6  C   UNL     1      -3.131  -1.147  26.033  0.00  0.00    -0.000 A 
ATOM      7  C   UNL     1      -3.573  -0.505  25.763  0.00  0.00    +0.000 A 
ATOM      8  C   UNL     1      -3.992  -0.563  25.054  0.00  0.00    +0.029 A 
BRANCH   3   2
ATOM      1  C   UNL     1      -4.413  -2.036  23.501  0.00  0.00    +0.252 C 
ATOM      2  O   UNL     1      -4.389  -1.319  23.908  0.00  0.00    -0.472 OA
ENDBRANCH   3   2
ENDBRANCH   9   8
ENDBRANCH  10   9
ENDBRANCH  11  10
BRANCH  11  12
ATOM     12  C   UNL     1      -4.103   1.813  24.487  0.00  0.00    +0.070 C 
BRANCH  12  13
ATOM     13  C   UNL     1      -3.720   2.445  24.852  0.00  0.00    +0.102 A 
ATOM     14  N   UNL     1      -3.969   2.835  25.535  0.00  0.00    -0.081 NA
ATOM     15  O   UNL     1      -3.422   3.430  25.702  0.00  0.00    -0.354 OA
ATOM     16  C   UNL     1      -2.835   3.408  25.123  0.00  0.00    +0.177 A 
ATOM     17  C   UNL     1      -3.019   2.799  24.597  0.00  0.00    +0.058 A 
BRANCH  16  18
ATOM     18  C   UNL     1      -2.180   3.907  25.077  0.00  0.00    +0.037 A 
ATOM     19  C   UNL     1      -2.277   4.723  25.153  0.00  0.00    +0.005 A 
ATOM     20  C   UNL     1      -1.622   5.222  25.107  0.00  0.00    +0.030 A 
ATOM     21  C   UNL     1      -0.870   4.905  24.985  0.00  0.00    +0.140 A 
ATOM     22  F   UNL     1      -0.214   5.404  24.938  0.00  0.00    -0.204 F 
ATOM     23  C   UNL     1      -0.773   4.089  24.909  0.00  0.00    +0.030 A 
ATOM     24  C   UNL     1      -1.429   3.591  24.955  0.00  0.00    +0.005 A 
ENDBRANCH  16  18
ENDBRANCH  12  13
ENDBRANCH  11  12
TORSDOF 7
ENDMDL
MODEL 3
REMARK VINA RESULT:     -10.9      2.596      5.614
REMARK  Name = 
REMARK  7 active torsions:
REMARK  status: ('A' for Active; 'I' for Inactive)
REMARK    1  A    between atoms: O_2  and  C_3
REMARK    2  A    between atoms: C_8  and  C_9
REMARK    3  A    between atoms: C_9  and  N_10
REMARK    4  A    between atoms: N_10  and  C_11
REMARK    5  A    between atoms: C_11  and  C_12
REMARK    6  A    between atoms: C_12  and  C_13
REMARK    7  A    between atoms: C_16  and  C_18
REMARK                            x       y       z     vdW  Elec       q    Type
REMARK                         _______ _______ _______ _____ _____    ______ ____
ROOT
ATOM     11  C   UNL     1      -0.971   0.323  24.671  0.00  0.00    +0.120 C 
ATOM     25  C   UNL     1      -0.847  -0.006  23.925  0.00  0.00    +0.161 C 
ATOM     26  O   UNL     1      -0.033   0.092  24.017  0.00  0.00    -0.351 OA
ATOM     27  C   UNL     1      -0.157   0.422  24.764  0.00  0.00    +0.161 C 
ENDROOT
BRANCH  11  10
ATOM     10  N   UNL     1      -1.785   0.225  24.579  0.00  0.00    -0.211 NA
BRANCH  10   9
ATOM      9  C   UNL     1      -2.111  -0.532  24.562  0.00  0.00    +0.118 C 
BRANCH   9   8
ATOM      3  C   UNL     1      -3.261  -1.379  24.526  0.00  0.00    +0.136 A 
ATOM      4  C   UNL     1      -4.073  -1.476  24.414  0.00  0.00    +0.037 A 
ATOM      5  C   UNL     1      -4.546  -0.826  24.228  0.00  0.00    +0.003 A 
ATOM      6  C   UNL     1      -4.206  -0.078  24.152  0.00  0.00    -0.000 A 
ATOM      7  C   UNL     1      -3.394   0.021  24.264  0.00  0.00    +0.000 A 
ATOM      8  C   UNL     1      -2.922  -0.630  24.450  0.00  0.00    +0.029 A 
BRANCH   3   2
ATOM      1  C   UNL     1      -3.125  -2.780  24.769  0.00  0.00    +0.252 C 
ATOM      2  O   UNL     1      -2.789  -2.029  24.712  0.00  0.00    -0.472 OA
ENDBRANCH   3   2
ENDBRANCH   9   8
ENDBRANCH  10   9
ENDBRANCH  11  10
BRANCH  11  12
ATOM     12  C   UNL     1      -1.095   0.653  25.417  0.00  0.00    +0.070 C 
BRANCH  12  13
ATOM     13  C   UNL     1      -0.887   1.438  25.560  0.00  0.00    +0.102 A 
ATOM     14  N   UNL     1      -0.233   1.696  25.992  0.00  0.00    -0.081 NA
ATOM     15  O   UNL     1      -0.238   2.521  25.995  0.00  0.00    -0.354 OA
ATOM     16  C   UNL     1      -0.896   2.774  25.565  0.00  0.00    +0.177 A 
ATOM     17  C   UNL     1      -1.297   2.105  25.297  0.00  0.00    +0.058 A 
BRANCH  16  18
ATOM     18  C   UNL     1      -1.115   3.557  25.428  0.00  0.00    +0.037 A 
ATOM     19  C   UNL     1      -0.605   4.061  25.019  0.00  0.00    +0.005 A 
ATOM     20  C   UNL     1      -0.824   4.845  24.882  0.00  0.00    +0.030 A 
ATOM     21  C   UNL     1      -1.551   5.124  25.154  0.00  0.00    +0.140 A 
ATOM     22  F   UNL     1      -1.770   5.908  25.016  0.00  0.00    -0.204 F 
ATOM     23  C   UNL     1      -2.060   4.620  25.562  0.00  0.00    +0.030 A 
ATOM     24  C   UNL     1      -1.841   3.836  25.699  0.00  0.00    +0.005 A 
ENDBRANCH  16  18
ENDBRANCH  12  13
ENDBRANCH  11  12
TORSDOF 7
ENDMDL
MODEL 4
REMARK VINA RESULT:     -10.9      1.698      2.757
REMARK  Name = 
REMARK  7 active torsions:
REMARK  status: ('A' for Active; 'I' for Inactive)
REMARK    1  A    between atoms: O_2  and  C_3
REMARK    2  A    between atoms: C_8  and  C_9
REMARK    3  A    between atoms: C_9  and  N_10
REMARK    4  A    between atoms: N_10  and  C_11
REMARK    5  A    between atoms: C_11  and  C_12
REMARK    6  A    between atoms: C_12  and  C_13
REMARK    7  A    between atoms: C_16  and  C_18
REMARK                            x       y       z     vdW  Elec       q    Type
REMARK                         _______ _______ _______ _____ _____    ______ ____
ROOT
ATOM     11  C   UNL     1      -0.936   1.638  24.839  0.00  0.00    +0.120 C 
ATOM     25  C   UNL     1      -0.595   2.221  24.367  0.00  0.00    +0.161 C 
ATOM     26  O   UNL     1       0.157   1.948  24.572  0.00  0.00    -0.351 OA
ATOM     27  C   UNL     1      -0.185   1.364  25.045  0.00  0.00    +0.161 C 
ENDROOT
BRANCH  11  10
ATOM     10  N   UNL     1      -1.687   1.910  24.635  0.00  0.00    -0.211 NA
BRANCH  10   9
ATOM      9  C   UNL     1      -1.908   2.684  24.812  0.00  0.00    +0.118 C 
BRANCH   9   8
ATOM      3  C   UNL     1      -3.052   3.486  25.112  0.00  0.00    +0.136 A 
ATOM      4  C   UNL     1      -3.807   3.755  24.916  0.00  0.00    +0.037 A 
ATOM      5  C   UNL     1      -4.173   3.492  24.225  0.00  0.00    +0.003 A 
ATOM      6  C   UNL     1      -3.784   2.959  23.730  0.00  0.00    -0.000 A 
ATOM      7  C   UNL     1      -3.028   2.690  23.925  0.00  0.00    +0.000 A 
ATOM      8  C   UNL     1      -2.663   2.954  24.617  0.00  0.00    +0.029 A 
BRANCH   3   2
ATOM      1  C   UNL     1      -3.092   4.248  26.320  0.00  0.00    +0.252 C 
ATOM      2  O   UNL     1      -2.686   3.750  25.803  0.00  0.00    -0.472 OA
ENDBRANCH   3   2
ENDBRANCH   9   8
ENDBRANCH  10   9
ENDBRANCH  11  10
BRANCH  11  12
ATOM     12  C   UNL     1      -1.277   1.053  25.312  0.00  0.00    +0.070 C 
BRANCH  12  13
ATOM     13  C   UNL     1      -1.396   0.296  25.010  0.00  0.00    +0.102 A 
ATOM     14  N   UNL     1      -0.832  -0.166  24.623  0.00  0.00    -0.081 NA
ATOM     15  O   UNL     1      -1.187  -0.881  24.414  0.00  0.00    -0.354 OA
ATOM     16  C   UNL     1      -1.971  -0.862  24.672  0.00  0.00    +0.177 A 
ATOM     17  C   UNL     1      -2.099  -0.135  25.040  0.00  0.00    +0.058 A 
BRANCH  16  18
ATOM     18  C   UNL     1      -2.528  -1.463  24.579  0.00  0.00    +0.037 A 
ATOM     19  C   UNL     1      -2.315  -2.247  24.724  0.00  0.00    +0.005 A 
ATOM     20  C   UNL     1      -2.872  -2.849  24.631  0.00  0.00    +0.030 A 
ATOM     21  C   UNL     1      -3.641  -2.666  24.393  0.00  0.00    +0.140 A 
ATOM     22  F   UNL     1      -4.198  -3.268  24.299  0.00  0.00    -0.204 F 
ATOM     23  C   UNL     1      -3.852  -1.882  24.248  0.00  0.00    +0.030 A 
ATOM     24  C   UNL     1      -3.295  -1.281  24.341  0.00  0.00    +0.005 A 
ENDBRANCH  16  18
ENDBRANCH  12  13
ENDBRANCH  11  12
TORSDOF 7
ENDMDL
