MODEL 1
REMARK VINA RESULT:      -8.7      0.000      0.000
REMARK  Name = 
REMARK  5 active torsions:
REMARK  status: ('A' for Active; 'I' for Inactive)
REMARK    1  A    between atoms: O_2  and  C_3
REMARK    2  A    between atoms: C_5  and  S_6
REMARK    3  A    between atoms: C_10  and  C_11
REMARK    4  A    between atoms: N_13  and  C_14
REMARK    5  A    between atoms: N_22  and  C_25
REMARK                            x       y       z     vdW  Elec       q    Type
REMARK                         _______ _______ _______ _____ _____    ______ ____
ROOT
ATOM     14  C   UNL     1      -1.998   0.408  24.695  0.00  0.00    +0.099 C 
ATOM     15  C   UNL     1      -1.866  -0.391  24.849  0.00  0.00    +0.043 C 
ATOM     16  C   UNL     1      -1.163  -0.747  24.605  0.00  0.00    +0.097 C 
ATOM     17  N   UNL     1      -0.592  -0.304  24.207  0.00  0.00    -0.257 N 
ATOM     18  C   UNL     1      -0.725   0.496  24.052  0.00  0.00    +0.156 C 
ATOM     19  C   UNL     1      -1.429   0.852  24.297  0.00  0.00    +0.051 C 
ATOM     20  C   UNL     1      -0.067   0.791  23.652  0.00  0.00    +0.254 C 
ATOM     21  O   UNL     1       0.034   1.567  23.390  0.00  0.00    -0.272 OA
ATOM     22  N   UNL     1       0.472   0.174  23.559  0.00  0.00    -0.191 N 
ATOM     23  C   UNL     1       0.147  -0.502  23.902  0.00  0.00    +0.317 C 
ATOM     24  O   UNL     1       0.501  -1.247  23.934  0.00  0.00    -0.252 OA
ENDROOT
BRANCH  22  25
ATOM     25  C   UNL     1       1.207   0.224  23.188  0.00  0.00    +0.062 A 
ATOM     26  C   UNL     1       1.824   0.639  23.548  0.00  0.00    +0.016 A 
ATOM     27  C   UNL     1       2.559   0.689  23.177  0.00  0.00    +0.013 A 
ATOM     28  C   UNL     1       2.678   0.325  22.446  0.00  0.00    +0.058 A 
ATOM     29 CL   UNL     1       3.413   0.375  22.075  0.00  0.00    -0.082 Cl
ATOM     30  C   UNL     1       2.062  -0.089  22.086  0.00  0.00    +0.013 A 
ATOM     31  C   UNL     1       1.327  -0.140  22.457  0.00  0.00    +0.016 A 
ENDBRANCH  22  25
BRANCH  14  13
ATOM     11  C   UNL     1      -3.333   0.834  24.413  0.00  0.00    +0.268 C 
ATOM     12  O   UNL     1      -3.262   0.546  23.643  0.00  0.00    -0.268 OA
ATOM     13  N   UNL     1      -2.702   0.765  24.939  0.00  0.00    -0.203 NA
BRANCH  11  10
ATOM      3  C   UNL     1      -4.223   1.952  24.402  0.00  0.00    +0.144 A 
ATOM      4  C   UNL     1      -4.926   2.308  24.646  0.00  0.00    +0.043 A 
ATOM      5  C   UNL     1      -5.443   1.902  25.145  0.00  0.00    +0.028 A 
ATOM      8  C   UNL     1      -5.256   1.140  25.400  0.00  0.00    +0.006 A 
ATOM      9  C   UNL     1      -4.553   0.784  25.155  0.00  0.00    +0.008 A 
ATOM     10  C   UNL     1      -4.037   1.190  24.657  0.00  0.00    +0.089 A 
BRANCH   3   2
ATOM      1  C   UNL     1      -3.893   3.118  23.645  0.00  0.00    +0.252 C 
ATOM      2  O   UNL     1      -3.706   2.358  23.903  0.00  0.00    -0.471 OA
ENDBRANCH   3   2
BRANCH   5   6
ATOM      6  S   UNL     1      -6.145   2.258  25.389  0.00  0.00    -0.113 S 
ATOM      7  C   UNL     1      -6.315   2.330  26.193  0.00  0.00    +0.074 C 
ENDBRANCH   5   6
ENDBRANCH  11  10
ENDBRANCH  14  13
TORSDOF 5
ENDMDL
MODEL 2
REMARK VINA RESULT:      -8.1      3.210      4.376
REMARK  Name = 
REMARK  5 active torsions:
REMARK  status: ('A' for Active; 'I' for Inactive)
REMARK    1  A    between atoms: O_2  and  C_3
REMARK    2  A    between atoms: C_5  and  S_6
REMARK    3  A    between atoms: C_10  and  C_11
REMARK    4  A    between atoms: N_13  and  C_14
REMARK    5  A    between atoms: N_22  and  C_25
REMARK                            x       y       z     vdW  Elec       q    Type
REMARK                         _______ _______ _______ _____ _____    ______ ____
ROOT
ATOM     14  C   UNL     1      -1.627   0.376  24.954  0.00  0.00    +0.099 C 
ATOM     15  C   UNL     1      -1.018   0.390  25.510  0.00  0.00    +0.043 C 
ATOM     16  C   UNL     1      -0.698   1.110  25.752  0.00  0.00    +0.097 C 
ATOM     17  N   UNL     1      -0.986   1.817  25.439  0.00  0.00    -0.257 N 
ATOM     18  C   UNL     1      -1.595   1.803  24.883  0.00  0.00    +0.156 C 
ATOM     19  C   UNL     1      -1.916   1.082  24.640  0.00  0.00    +0.051 C 
ATOM     20  C   UNL     1      -1.767   2.581  24.672  0.00  0.00    +0.254 C 
ATOM     21  O   UNL     1      -2.341   2.823  24.131  0.00  0.00    -0.272 OA
ATOM     22  N   UNL     1      -1.263   3.077  25.098  0.00  0.00    -0.191 N 
ATOM     23  C   UNL     1      -0.781   2.604  25.571  0.00  0.00    +0.317 C 
ATOM     24  O   UNL     1      -0.196   2.873  26.088  0.00  0.00    -0.252 OA
ENDROOT
BRANCH  22  25
ATOM     25  C   UNL     1      -1.245   3.901  25.057  0.00  0.00    +0.062 A 
ATOM     26  C   UNL     1      -1.835   4.346  25.425  0.00  0.00    +0.016 A 
ATOM     27  C   UNL     1      -1.817   5.170  25.384  0.00  0.00    +0.013 A 
ATOM     28  C   UNL     1      -1.209   5.549  24.975  0.00  0.00    +0.058 A 
ATOM     29 CL   UNL     1      -1.190   6.372  24.934  0.00  0.00    -0.082 Cl
ATOM     30  C   UNL     1      -0.619   5.105  24.607  0.00  0.00    +0.013 A 
ATOM     31  C   UNL     1      -0.637   4.281  24.648  0.00  0.00    +0.016 A 
ENDBRANCH  22  25
BRANCH  14  13
ATOM     11  C   UNL     1      -2.599  -0.660  25.108  0.00  0.00    +0.268 C 
ATOM     12  O   UNL     1      -2.930  -0.255  25.746  0.00  0.00    -0.268 OA
ATOM     13  N   UNL     1      -1.948  -0.345  24.711  0.00  0.00    -0.203 NA
BRANCH  11  10
ATOM      3  C   UNL     1      -3.678  -1.407  24.540  0.00  0.00    +0.144 A 
ATOM      4  C   UNL     1      -3.998  -2.127  24.298  0.00  0.00    +0.043 A 
ATOM      5  C   UNL     1      -3.561  -2.822  24.380  0.00  0.00    +0.028 A 
ATOM      8  C   UNL     1      -2.803  -2.796  24.704  0.00  0.00    +0.006 A 
ATOM      9  C   UNL     1      -2.482  -2.075  24.947  0.00  0.00    +0.008 A 
ATOM     10  C   UNL     1      -2.920  -1.381  24.865  0.00  0.00    +0.089 A 
BRANCH   3   2
ATOM      1  C   UNL     1      -4.862  -0.733  24.110  0.00  0.00    +0.252 C 
ATOM      2  O   UNL     1      -4.115  -0.712  24.459  0.00  0.00    -0.471 OA
ENDBRANCH   3   2
BRANCH   5   6
ATOM      6  S   UNL     1      -3.881  -3.542  24.137  0.00  0.00    -0.113 S 
ATOM      7  C   UNL     1      -3.525  -3.968  23.527  0.00  0.00    +0.074 C 
ENDBRANCH   5   6
ENDBRANCH  11  10
ENDBRANCH  14  13
TORSDOF 5
ENDMDL
MODEL 3
REMARK VINA RESULT:      -7.8      3.109      4.859
REMARK  Name = 
REMARK  5 active torsions:
REMARK  status: ('A' for Active; 'I' for Inactive)
REMARK    1  A    between atoms: O_2  and  C_3
REMARK    2  A    between atoms: C_5  and  S_6
REMARK    3  A    between atoms: C_10  and  C_11
REMARK    4  A    between atoms: N_13  and  C_14
REMARK    5  A    between atoms: N_22  and  C_25
REMARK                            x       y       z     vdW  Elec       q    Type
REMARK                         _______ _______ _______ _____ _____    ______ ____
ROOT
ATOM     14  C   UNL     1      -3.327   1.988  24.633  0.00  0.00    +0.099 C 
ATOM     15  C   UNL     1      -4.113   1.978  24.882  0.00  0.00    +0.043 C 
ATOM     16  C   UNL     1      -4.519   1.262  24.938  0.00  0.00    +0.097 C 
ATOM     17  N   UNL     1      -4.139   0.555  24.745  0.00  0.00    -0.257 N 
ATOM     18  C   UNL     1      -3.352   0.565  24.495  0.00  0.00    +0.156 C 
ATOM     19  C   UNL     1      -2.946   1.282  24.439  0.00  0.00    +0.051 C 
ATOM     20  C   UNL     1      -3.123  -0.212  24.343  0.00  0.00    +0.254 C 
ATOM     21  O   UNL     1      -2.379  -0.456  24.081  0.00  0.00    -0.272 OA
ATOM     22  N   UNL     1      -3.768  -0.703  24.498  0.00  0.00    -0.191 N 
ATOM     23  C   UNL     1      -4.395  -0.228  24.746  0.00  0.00    +0.317 C 
ATOM     24  O   UNL     1      -5.148  -0.491  24.959  0.00  0.00    -0.252 OA
ENDROOT
BRANCH  22  25
ATOM     25  C   UNL     1      -3.782  -1.524  24.419  0.00  0.00    +0.062 A 
ATOM     26  C   UNL     1      -3.432  -2.000  24.994  0.00  0.00    +0.016 A 
ATOM     27  C   UNL     1      -3.447  -2.822  24.915  0.00  0.00    +0.013 A 
ATOM     28  C   UNL     1      -3.812  -3.166  24.260  0.00  0.00    +0.058 A 
ATOM     29 CL   UNL     1      -3.826  -3.987  24.181  0.00  0.00    -0.082 Cl
ATOM     30  C   UNL     1      -4.162  -2.690  23.685  0.00  0.00    +0.013 A 
ATOM     31  C   UNL     1      -4.147  -1.869  23.764  0.00  0.00    +0.016 A 
ENDBRANCH  22  25
BRANCH  14  13
ATOM     11  C   UNL     1      -2.355   2.902  25.144  0.00  0.00    +0.268 C 
ATOM     12  O   UNL     1      -2.196   2.385  25.766  0.00  0.00    -0.268 OA
ATOM     13  N   UNL     1      -2.920   2.704  24.577  0.00  0.00    -0.203 NA
BRANCH  11  10
ATOM      3  C   UNL     1      -1.156   3.627  24.860  0.00  0.00    +0.144 A 
ATOM      4  C   UNL     1      -0.750   4.342  24.804  0.00  0.00    +0.043 A 
ATOM      5  C   UNL     1      -1.137   5.051  24.976  0.00  0.00    +0.028 A 
ATOM      8  C   UNL     1      -1.930   5.043  25.203  0.00  0.00    +0.006 A 
ATOM      9  C   UNL     1      -2.336   4.326  25.259  0.00  0.00    +0.008 A 
ATOM     10  C   UNL     1      -1.949   3.619  25.088  0.00  0.00    +0.089 A 
BRANCH   3   2
ATOM      1  C   UNL     1       0.036   2.919  24.514  0.00  0.00    +0.252 C 
ATOM      2  O   UNL     1      -0.769   2.918  24.688  0.00  0.00    -0.471 OA
ENDBRANCH   3   2
BRANCH   5   6
ATOM      6  S   UNL     1      -0.731   5.766  24.920  0.00  0.00    -0.113 S 
ATOM      7  C   UNL     1      -1.146   6.466  24.780  0.00  0.00    +0.074 C 
ENDBRANCH   5   6
ENDBRANCH  11  10
ENDBRANCH  14  13
TORSDOF 5
ENDMDL
MODEL 4
REMARK VINA RESULT:      -7.6      3.062      6.321
REMARK  Name = 
REMARK  5 active torsions:
REMARK  status: ('A' for Active; 'I' for Inactive)
REMARK    1  A    between atoms: O_2  and  C_3
REMARK    2  A    between atoms: C_5  and  S_6
REMARK    3  A    between atoms: C_10  and  C_11
REMARK    4  A    between atoms: N_13  and  C_14
REMARK    5  A    between atoms: N_22  and  C_25
REMARK                            x       y       z     vdW  Elec       q    Type
REMARK                         _______ _______ _______ _____ _____    ______ ____
ROOT
ATOM     14  C   UNL     1      -0.814   2.445  24.420  0.00  0.00    +0.099 C 
ATOM     15  C   UNL     1      -0.616   2.942  25.049  0.00  0.00    +0.043 C 
ATOM     16  C   UNL     1      -1.210   3.308  25.487  0.00  0.00    +0.097 C 
ATOM     17  N   UNL     1      -2.003   3.179  25.298  0.00  0.00    -0.257 N 
ATOM     18  C   UNL     1      -2.201   2.682  24.670  0.00  0.00    +0.156 C 
ATOM     19  C   UNL     1      -1.606   2.315  24.230  0.00  0.00    +0.051 C 
ATOM     20  C   UNL     1      -3.023   2.658  24.612  0.00  0.00    +0.254 C 
ATOM     21  O   UNL     1      -3.459   2.228  24.059  0.00  0.00    -0.272 OA
ATOM     22  N   UNL     1      -3.334   3.140  25.205  0.00  0.00    -0.191 N 
ATOM     23  C   UNL     1      -2.703   3.461  25.628  0.00  0.00    +0.317 C 
ATOM     24  O   UNL     1      -2.762   3.976  26.271  0.00  0.00    -0.252 OA
ENDROOT
BRANCH  22  25
ATOM     25  C   UNL     1      -4.134   3.277  25.349  0.00  0.00    +0.062 A 
ATOM     26  C   UNL     1      -4.474   3.999  25.139  0.00  0.00    +0.016 A 
ATOM     27  C   UNL     1      -5.275   4.136  25.283  0.00  0.00    +0.013 A 
ATOM     28  C   UNL     1      -5.736   3.550  25.637  0.00  0.00    +0.058 A 
ATOM     29 CL   UNL     1      -6.537   3.687  25.781  0.00  0.00    -0.082 Cl
ATOM     30  C   UNL     1      -5.397   2.829  25.847  0.00  0.00    +0.013 A 
ATOM     31  C   UNL     1      -4.596   2.692  25.703  0.00  0.00    +0.016 A 
ENDBRANCH  22  25
BRANCH  14  13
ATOM     11  C   UNL     1       0.120   1.376  24.252  0.00  0.00    +0.268 C 
ATOM     12  O   UNL     1      -0.136   1.041  24.961  0.00  0.00    -0.268 OA
ATOM     13  N   UNL     1      -0.219   2.078  23.981  0.00  0.00    -0.203 NA
BRANCH  11  10
ATOM      3  C   UNL     1       0.606   0.240  23.533  0.00  0.00    +0.144 A 
ATOM      4  C   UNL     1       1.200  -0.126  23.094  0.00  0.00    +0.043 A 
ATOM      5  C   UNL     1       1.904   0.275  22.935  0.00  0.00    +0.028 A 
ATOM      8  C   UNL     1       2.012   1.044  23.214  0.00  0.00    +0.006 A 
ATOM      9  C   UNL     1       1.417   1.411  23.654  0.00  0.00    +0.008 A 
ATOM     10  C   UNL     1       0.715   1.009  23.812  0.00  0.00    +0.089 A 
BRANCH   3   2
ATOM      1  C   UNL     1      -0.139  -0.978  23.588  0.00  0.00    +0.252 C 
ATOM      2  O   UNL     1      -0.097  -0.161  23.692  0.00  0.00    -0.471 OA
ENDBRANCH   3   2
BRANCH   5   6
ATOM      6  S   UNL     1       2.498  -0.091  22.496  0.00  0.00    -0.113 S 
ATOM      7  C   UNL     1       3.246   0.254  22.444  0.00  0.00    +0.074 C 
ENDBRANCH   5   6
ENDBRANCH  11  10
ENDBRANCH  14  13
TORSDOF 5
ENDMDL
MODEL 5
REMARK VINA RESULT:      -7.6      2.779      6.142
REMARK  Name = 
REMARK  5 active torsions:
REMARK  status: ('A' for Active; 'I' for Inactive)
REMARK    1  A    between atoms: O_2  and  C_3
REMARK    2  A    between atoms: C_5  and  S_6
REMARK    3  A    between atoms: C_10  and  C_11
REMARK    4  A    between atoms: N_13  and  C_14
REMARK    5  A    between atoms: N_22  and  C_25
REMARK                            x       y       z     vdW  Elec       q    Type
REMARK                         _______ _______ _______ _____ _____    ______ ____
ROOT
ATOM     14  C   UNL     1      -0.418   0.694  24.234  0.00  0.00    +0.099 C 
ATOM     15  C   UNL     1      -0.543   0.101  24.794  0.00  0.00    +0.043 C 
ATOM     16  C   UNL     1      -1.290   0.001  25.128  0.00  0.00    +0.097 C 
ATOM     17  N   UNL     1      -1.913   0.493  24.903  0.00  0.00    -0.257 N 
ATOM     18  C   UNL     1      -1.788   1.085  24.342  0.00  0.00    +0.156 C 
ATOM     19  C   UNL     1      -1.040   1.186  24.007  0.00  0.00    +0.051 C 
ATOM     20  C   UNL     1      -2.501   1.483  24.228  0.00  0.00    +0.254 C 
ATOM     21  O   UNL     1      -2.627   2.117  23.714  0.00  0.00    -0.272 OA
ATOM     22  N   UNL     1      -3.067   1.137  24.718  0.00  0.00    -0.191 N 
ATOM     23  C   UNL     1      -2.703   0.526  25.135  0.00  0.00    +0.317 C 
ATOM     24  O   UNL     1      -3.067   0.032  25.687  0.00  0.00    -0.252 OA
ENDROOT
BRANCH  22  25
ATOM     25  C   UNL     1      -3.858   1.363  24.781  0.00  0.00    +0.062 A 
ATOM     26  C   UNL     1      -4.054   2.094  25.113  0.00  0.00    +0.016 A 
ATOM     27  C   UNL     1      -4.845   2.320  25.175  0.00  0.00    +0.013 A 
ATOM     28  C   UNL     1      -5.440   1.816  24.906  0.00  0.00    +0.058 A 
ATOM     29 CL   UNL     1      -6.231   2.042  24.968  0.00  0.00    -0.082 Cl
ATOM     30  C   UNL     1      -5.245   1.087  24.574  0.00  0.00    +0.013 A 
ATOM     31  C   UNL     1      -4.454   0.861  24.512  0.00  0.00    +0.016 A 
ENDBRANCH  22  25
BRANCH  14  13
ATOM     11  C   UNL     1       0.703   0.160  23.526  0.00  0.00    +0.268 C 
ATOM     12  O   UNL     1       0.329  -0.575  23.488  0.00  0.00    -0.268 OA
ATOM     13  N   UNL     1       0.330   0.794  23.899  0.00  0.00    -0.203 NA
BRANCH  11  10
ATOM      3  C   UNL     1       1.619  -0.066  22.452  0.00  0.00    +0.144 A 
ATOM      4  C   UNL     1       2.366   0.035  22.118  0.00  0.00    +0.043 A 
ATOM      5  C   UNL     1       2.946   0.461  22.522  0.00  0.00    +0.028 A 
ATOM      8  C   UNL     1       2.777   0.787  23.261  0.00  0.00    +0.006 A 
ATOM      9  C   UNL     1       2.029   0.687  23.596  0.00  0.00    +0.008 A 
ATOM     10  C   UNL     1       1.451   0.260  23.191  0.00  0.00    +0.089 A 
BRANCH   3   2
ATOM      1  C   UNL     1       1.133  -0.659  21.246  0.00  0.00    +0.252 C 
ATOM      2  O   UNL     1       1.040  -0.492  22.048  0.00  0.00    -0.471 OA
ENDBRANCH   3   2
BRANCH   5   6
ATOM      6  S   UNL     1       3.693   0.562  22.188  0.00  0.00    -0.113 S 
ATOM      7  C   UNL     1       4.339   0.744  22.668  0.00  0.00    +0.074 C 
ENDBRANCH   5   6
ENDBRANCH  11  10
ENDBRANCH  14  13
TORSDOF 5
ENDMDL
MODEL 6
REMARK VINA RESULT:      -5.9     15.170     16.493
REMARK  Name = 
REMARK  5 active torsions:
REMARK  status: ('A' for Active; 'I' for Inactive)
REMARK    1  A    between atoms: O_2  and  C_3
REMARK    2  A    between atoms: C_5  and  S_6
REMARK    3  A    between atoms: C_10  and  C_11
REMARK    4  A    between atoms: N_13  and  C_14
REMARK    5  A    between atoms: N_22  and  C_25
REMARK                            x       y       z     vdW  Elec       q    Type
REMARK                         _______ _______ _______ _____ _____    ______ ____
ROOT
ATOM     14  C   UNL     1      -6.596 -10.448  13.867  0.00  0.00    +0.099 C 
ATOM     15  C   UNL     1      -7.270 -10.532  13.397  0.00  0.00    +0.043 C 
ATOM     16  C   UNL     1      -8.014 -10.368  13.712  0.00  0.00    +0.097 C 
ATOM     17  N   UNL     1      -8.086 -10.120  14.495  0.00  0.00    -0.257 N 
ATOM     18  C   UNL     1      -7.413 -10.036  14.965  0.00  0.00    +0.156 C 
ATOM     19  C   UNL     1      -6.667 -10.200  14.650  0.00  0.00    +0.051 C 
ATOM     20  C   UNL     1      -7.653  -9.784  15.712  0.00  0.00    +0.254 C 
ATOM     21  O   UNL     1      -7.158  -9.631  16.354  0.00  0.00    -0.272 OA
ATOM     22  N   UNL     1      -8.475  -9.713  15.705  0.00  0.00    -0.191 N 
ATOM     23  C   UNL     1      -8.742  -9.920  14.953  0.00  0.00    +0.317 C 
ATOM     24  O   UNL     1      -9.528  -9.927  14.703  0.00  0.00    -0.252 OA
ENDROOT
BRANCH  22  25
ATOM     25  C   UNL     1      -8.946  -9.475  16.339  0.00  0.00    +0.062 A 
ATOM     26  C   UNL     1      -9.236 -10.036  16.871  0.00  0.00    +0.016 A 
ATOM     27  C   UNL     1      -9.708  -9.798  17.505  0.00  0.00    +0.013 A 
ATOM     28  C   UNL     1      -9.889  -9.000  17.607  0.00  0.00    +0.058 A 
ATOM     29 CL   UNL     1     -10.361  -8.762  18.241  0.00  0.00    -0.082 Cl
ATOM     30  C   UNL     1      -9.600  -8.439  17.076  0.00  0.00    +0.013 A 
ATOM     31  C   UNL     1      -9.128  -8.677  16.442  0.00  0.00    +0.016 A 
ENDBRANCH  22  25
BRANCH  14  13
ATOM     11  C   UNL     1      -5.448 -10.032  13.125  0.00  0.00    +0.268 C 
ATOM     12  O   UNL     1      -5.789  -9.290  13.011  0.00  0.00    -0.268 OA
ATOM     13  N   UNL     1      -5.851 -10.611  13.552  0.00  0.00    -0.203 NA
BRANCH  11  10
ATOM      3  C   UNL     1      -4.553 -10.061  12.010  0.00  0.00    +0.144 A 
ATOM      4  C   UNL     1      -3.808 -10.224  11.697  0.00  0.00    +0.043 A 
ATOM      5  C   UNL     1      -3.212 -10.523  12.182  0.00  0.00    +0.028 A 
ATOM      8  C   UNL     1      -3.361 -10.659  12.982  0.00  0.00    +0.006 A 
ATOM      9  C   UNL     1      -4.107 -10.495  13.297  0.00  0.00    +0.008 A 
ATOM     10  C   UNL     1      -4.702 -10.196  12.810  0.00  0.00    +0.089 A 
BRANCH   3   2
ATOM      1  C   UNL     1      -5.009  -9.650  10.720  0.00  0.00    +0.252 C 
ATOM      2  O   UNL     1      -5.149  -9.761  11.525  0.00  0.00    -0.471 OA
ENDBRANCH   3   2
BRANCH   5   6
ATOM      6  S   UNL     1      -2.467 -10.687  11.869  0.00  0.00    -0.113 S 
ATOM      7  C   UNL     1      -1.789 -10.409  12.247  0.00  0.00    +0.074 C 
ENDBRANCH   5   6
ENDBRANCH  11  10
ENDBRANCH  14  13
TORSDOF 5
ENDMDL
MODEL 7
REMARK VINA RESULT:      -5.7     17.030     18.244
REMARK  Name = 
REMARK  5 active torsions:
REMARK  status: ('A' for Active; 'I' for Inactive)
REMARK    1  A    between atoms: O_2  and  C_3
REMARK    2  A    between atoms: C_5  and  S_6
REMARK    3  A    between atoms: C_10  and  C_11
REMARK    4  A    between atoms: N_13  and  C_14
REMARK    5  A    between atoms: N_22  and  C_25
REMARK                            x       y       z     vdW  Elec       q    Type
REMARK                         _______ _______ _______ _____ _____    ______ ____
ROOT
ATOM     14  C   UNL     1      -4.586 -10.468  10.739  0.00  0.00    +0.099 C 
ATOM     15  C   UNL     1      -4.307 -10.553   9.967  0.00  0.00    +0.043 C 
ATOM     16  C   UNL     1      -4.796 -10.370   9.330  0.00  0.00    +0.097 C 
ATOM     17  N   UNL     1      -5.566 -10.102   9.462  0.00  0.00    -0.257 N 
ATOM     18  C   UNL     1      -5.845 -10.018  10.234  0.00  0.00    +0.156 C 
ATOM     19  C   UNL     1      -5.355 -10.201  10.873  0.00  0.00    +0.051 C 
ATOM     20  C   UNL     1      -6.622  -9.745  10.196  0.00  0.00    +0.254 C 
ATOM     21  O   UNL     1      -7.112  -9.584  10.840  0.00  0.00    -0.272 OA
ATOM     22  N   UNL     1      -6.823  -9.660   9.400  0.00  0.00    -0.191 N 
ATOM     23  C   UNL     1      -6.170  -9.881   8.948  0.00  0.00    +0.317 C 
ATOM     24  O   UNL     1      -6.129  -9.882   8.124  0.00  0.00    -0.252 OA
ENDROOT
BRANCH  22  25
ATOM     25  C   UNL     1      -7.550  -9.400   9.109  0.00  0.00    +0.062 A 
ATOM     26  C   UNL     1      -8.069  -9.937   8.756  0.00  0.00    +0.016 A 
ATOM     27  C   UNL     1      -8.796  -9.677   8.464  0.00  0.00    +0.013 A 
ATOM     28  C   UNL     1      -9.003  -8.880   8.526  0.00  0.00    +0.058 A 
ATOM     29 CL   UNL     1      -9.730  -8.620   8.235  0.00  0.00    -0.082 Cl
ATOM     30  C   UNL     1      -8.485  -8.345   8.879  0.00  0.00    +0.013 A 
ATOM     31  C   UNL     1      -7.759  -8.605   9.170  0.00  0.00    +0.016 A 
ENDBRANCH  22  25
BRANCH  14  13
ATOM     11  C   UNL     1      -3.689 -10.050  11.770  0.00  0.00    +0.268 C 
ATOM     12  O   UNL     1      -3.772  -9.267  11.524  0.00  0.00    -0.268 OA
ATOM     13  N   UNL     1      -4.096 -10.651  11.378  0.00  0.00    -0.203 NA
BRANCH  11  10
ATOM      3  C   UNL     1      -2.380 -10.184  12.328  0.00  0.00    +0.144 A 
ATOM      4  C   UNL     1      -1.891 -10.367  12.966  0.00  0.00    +0.043 A 
ATOM      5  C   UNL     1      -2.220 -10.599  13.686  0.00  0.00    +0.028 A 
ATOM      8  C   UNL     1      -3.040 -10.648  13.767  0.00  0.00    +0.006 A 
ATOM      9  C   UNL     1      -3.530 -10.465  13.128  0.00  0.00    +0.008 A 
ATOM     10  C   UNL     1      -3.199 -10.233  12.409  0.00  0.00    +0.089 A 
BRANCH   3   2
ATOM      1  C   UNL     1      -1.260  -9.719  11.571  0.00  0.00    +0.252 C 
ATOM      2  O   UNL     1      -2.050  -9.952  11.608  0.00  0.00    -0.471 OA
ENDBRANCH   3   2
BRANCH   5   6
ATOM      6  S   UNL     1      -1.731 -10.781  14.324  0.00  0.00    -0.113 S 
ATOM      7  C   UNL     1      -1.866 -10.435  15.061  0.00  0.00    +0.074 C 
ENDBRANCH   5   6
ENDBRANCH  11  10
ENDBRANCH  14  13
TORSDOF 5
ENDMDL
MODEL 8
REMARK VINA RESULT:      -5.6     15.842     16.887
REMARK  Name = 
REMARK  5 active torsions:
REMARK  status: ('A' for Active; 'I' for Inactive)
REMARK    1  A    between atoms: O_2  and  C_3
REMARK    2  A    between atoms: C_5  and  S_6
REMARK    3  A    between atoms: C_10  and  C_11
REMARK    4  A    between atoms: N_13  and  C_14
REMARK    5  A    between atoms: N_22  and  C_25
REMARK                            x       y       z     vdW  Elec       q    Type
REMARK                         _______ _______ _______ _____ _____    ______ ____
ROOT
ATOM     14  C   UNL     1      -7.397  -9.898  13.065  0.00  0.00    +0.099 C 
ATOM     15  C   UNL     1      -6.814 -10.241  13.537  0.00  0.00    +0.043 C 
ATOM     16  C   UNL     1      -6.920 -10.291  14.353  0.00  0.00    +0.097 C 
ATOM     17  N   UNL     1      -7.609  -9.998  14.699  0.00  0.00    -0.257 N 
ATOM     18  C   UNL     1      -8.193  -9.655  14.227  0.00  0.00    +0.156 C 
ATOM     19  C   UNL     1      -8.087  -9.605  13.410  0.00  0.00    +0.051 C 
ATOM     20  C   UNL     1      -8.810  -9.415  14.719  0.00  0.00    +0.254 C 
ATOM     21  O   UNL     1      -9.507  -9.046  14.477  0.00  0.00    -0.272 OA
ATOM     22  N   UNL     1      -8.608  -9.610  15.494  0.00  0.00    -0.191 N 
ATOM     23  C   UNL     1      -7.866  -9.970  15.481  0.00  0.00    +0.317 C 
ATOM     24  O   UNL     1      -7.453 -10.253  16.137  0.00  0.00    -0.252 OA
ENDROOT
BRANCH  22  25
ATOM     25  C   UNL     1      -9.067  -9.470  16.165  0.00  0.00    +0.062 A 
ATOM     26  C   UNL     1      -9.620 -10.031  16.412  0.00  0.00    +0.016 A 
ATOM     27  C   UNL     1     -10.079  -9.891  17.083  0.00  0.00    +0.013 A 
ATOM     28  C   UNL     1      -9.986  -9.189  17.507  0.00  0.00    +0.058 A 
ATOM     29 CL   UNL     1     -10.445  -9.048  18.177  0.00  0.00    -0.082 Cl
ATOM     30  C   UNL     1      -9.434  -8.628  17.260  0.00  0.00    +0.013 A 
ATOM     31  C   UNL     1      -8.975  -8.768  16.589  0.00  0.00    +0.016 A 
ENDBRANCH  22  25
BRANCH  14  13
ATOM     11  C   UNL     1      -6.860  -9.223  11.926  0.00  0.00    +0.268 C 
ATOM     12  O   UNL     1      -6.535  -8.648  12.420  0.00  0.00    -0.268 OA
ATOM     13  N   UNL     1      -7.292  -9.848  12.248  0.00  0.00    -0.203 NA
BRANCH  11  10
ATOM      3  C   UNL     1      -5.993  -9.173  10.790  0.00  0.00    +0.144 A 
ATOM      4  C   UNL     1      -5.888  -9.123   9.974  0.00  0.00    +0.043 A 
ATOM      5  C   UNL     1      -6.543  -9.073   9.475  0.00  0.00    +0.028 A 
ATOM      8  C   UNL     1      -7.304  -9.072   9.793  0.00  0.00    +0.006 A 
ATOM      9  C   UNL     1      -7.410  -9.122  10.611  0.00  0.00    +0.008 A 
ATOM     10  C   UNL     1      -6.755  -9.173  11.109  0.00  0.00    +0.089 A 
BRANCH   3   2
ATOM      1  C   UNL     1      -4.578  -9.251  10.971  0.00  0.00    +0.252 C 
ATOM      2  O   UNL     1      -5.338  -9.224  11.289  0.00  0.00    -0.471 OA
ENDBRANCH   3   2
BRANCH   5   6
ATOM      6  S   UNL     1      -6.438  -9.023   8.659  0.00  0.00    -0.113 S 
ATOM      7  C   UNL     1      -7.056  -8.763   8.178  0.00  0.00    +0.074 C 
ENDBRANCH   5   6
ENDBRANCH  11  10
ENDBRANCH  14  13
TORSDOF 5
ENDMDL
MODEL 9
REMARK VINA RESULT:      -4.9     15.131     16.152
REMARK  Name = 
REMARK  5 active torsions:
REMARK  status: ('A' for Active; 'I' for Inactive)
REMARK    1  A    between atoms: O_2  and  C_3
REMARK    2  A    between atoms: C_5  and  S_6
REMARK    3  A    between atoms: C_10  and  C_11
REMARK    4  A    between atoms: N_13  and  C_14
REMARK    5  A    between atoms: N_22  and  C_25
REMARK                            x       y       z     vdW  Elec       q    Type
REMARK                         _______ _______ _______ _____ _____    ______ ____
ROOT
ATOM     14  C   UNL     1      -6.302 -10.202  13.460  0.00  0.00    +0.099 C 
ATOM     15  C   UNL     1      -7.076 -10.481  13.516  0.00  0.00    +0.043 C 
ATOM     16  C   UNL     1      -7.417 -10.606  14.256  0.00  0.00    +0.097 C 
ATOM     17  N   UNL     1      -6.985 -10.451  14.942  0.00  0.00    -0.257 N 
ATOM     18  C   UNL     1      -6.211 -10.172  14.886  0.00  0.00    +0.156 C 
ATOM     19  C   UNL     1      -5.869 -10.047  14.145  0.00  0.00    +0.051 C 
ATOM     20  C   UNL     1      -5.921 -10.069  15.651  0.00  0.00    +0.254 C 
ATOM     21  O   UNL     1      -5.168  -9.798  15.853  0.00  0.00    -0.272 OA
ATOM     22  N   UNL     1      -6.516 -10.285  16.180  0.00  0.00    -0.191 N 
ATOM     23  C   UNL     1      -7.173 -10.521  15.741  0.00  0.00    +0.317 C 
ATOM     24  O   UNL     1      -7.894 -10.781  16.048  0.00  0.00    -0.252 OA
ENDROOT
BRANCH  22  25
ATOM     25  C   UNL     1      -6.464 -10.268  17.003  0.00  0.00    +0.062 A 
ATOM     26  C   UNL     1      -5.949 -10.781  17.395  0.00  0.00    +0.016 A 
ATOM     27  C   UNL     1      -5.897 -10.764  18.218  0.00  0.00    +0.013 A 
ATOM     28  C   UNL     1      -6.358 -10.233  18.649  0.00  0.00    +0.058 A 
ATOM     29 CL   UNL     1      -6.306 -10.216  19.473  0.00  0.00    -0.082 Cl
ATOM     30  C   UNL     1      -6.872  -9.721  18.259  0.00  0.00    +0.013 A 
ATOM     31  C   UNL     1      -6.925  -9.738  17.436  0.00  0.00    +0.016 A 
ENDBRANCH  22  25
BRANCH  14  13
ATOM     11  C   UNL     1      -6.124  -9.385  12.301  0.00  0.00    +0.268 C 
ATOM     12  O   UNL     1      -6.630  -8.818  12.623  0.00  0.00    -0.268 OA
ATOM     13  N   UNL     1      -5.960 -10.077  12.719  0.00  0.00    -0.203 NA
BRANCH  11  10
ATOM      3  C   UNL     1      -6.257  -9.066  10.914  0.00  0.00    +0.144 A 
ATOM      4  C   UNL     1      -5.915  -8.941  10.174  0.00  0.00    +0.043 A 
ATOM      5  C   UNL     1      -5.099  -9.011  10.079  0.00  0.00    +0.028 A 
ATOM      8  C   UNL     1      -4.624  -9.205  10.726  0.00  0.00    +0.006 A 
ATOM      9  C   UNL     1      -4.966  -9.329  11.467  0.00  0.00    +0.008 A 
ATOM     10  C   UNL     1      -5.782  -9.260  11.560  0.00  0.00    +0.089 A 
BRANCH   3   2
ATOM      1  C   UNL     1      -7.560  -8.905  10.350  0.00  0.00    +0.252 C 
ATOM      2  O   UNL     1      -7.074  -8.997  11.009  0.00  0.00    -0.471 OA
ENDBRANCH   3   2
BRANCH   5   6
ATOM      6  S   UNL     1      -4.757  -8.886   9.340  0.00  0.00    -0.113 S 
ATOM      7  C   UNL     1      -3.936  -8.908   9.254  0.00  0.00    +0.074 C 
ENDBRANCH   5   6
ENDBRANCH  11  10
ENDBRANCH  14  13
TORSDOF 5
ENDMDL
