MODEL 1
REMARK VINA RESULT:      -8.6      0.000      0.000
REMARK  Name = 
REMARK  9 active torsions:
REMARK  status: ('A' for Active; 'I' for Inactive)
REMARK    1  A    between atoms: O_2  and  C_3
REMARK    2  A    between atoms: C_6  and  C_11
REMARK    3  A    between atoms: C_8  and  O_9
REMARK    4  A    between atoms: C_15  and  C_17
REMARK    5  A    between atoms: C_24  and  C_25
REMARK    6  A    between atoms: C_25  and  O_26
REMARK    7  A    between atoms: O_26  and  C_27
REMARK    8  A    between atoms: N_29  and  C_30
REMARK    9  A    between atoms: C_33  and  C_36
REMARK                            x       y       z     vdW  Elec       q    Type
REMARK                         _______ _______ _______ _____ _____    ______ ____
ROOT
ATOM     17  C   UNL     1      -1.759   1.675  23.778  0.00  0.00    +0.056 C 
ATOM     18  C   UNL     1      -1.286   2.273  23.623  0.00  0.00    +0.078 C 
ATOM     19  N   UNL     1      -1.055   1.494  23.766  0.00  0.00    -0.270 NA
ATOM     20  C   UNL     1      -1.928   0.940  23.941  0.00  0.00    +0.072 C 
ATOM     21  C   UNL     1      -2.223   0.373  24.077  0.00  0.00    +0.018 C 
ATOM     22  C   UNL     1      -1.525   0.913  23.918  0.00  0.00    +0.010 C 
ATOM     23  C   UNL     1      -0.733   0.536  23.940  0.00  0.00    +0.020 C 
ATOM     24  C   UNL     1      -0.235   1.095  23.791  0.00  0.00    +0.102 C 
ENDROOT
BRANCH  17  15
ATOM     11  C   UNL     1      -3.817   2.003  24.246  0.00  0.00    +0.102 A 
ATOM     12  N   UNL     1      -3.815   2.139  23.432  0.00  0.00    -0.170 NA
ATOM     13  N   UNL     1      -3.044   2.032  23.158  0.00  0.00    -0.253 N 
ATOM     14  C   UNL     1      -2.792   2.113  22.377  0.00  0.00    +0.153 C 
ATOM     15  C   UNL     1      -2.570   1.831  23.802  0.00  0.00    +0.058 A 
ATOM     16  C   UNL     1      -3.047   1.813  24.475  0.00  0.00    +0.035 A 
BRANCH  11   6
ATOM      3  C   UNL     1      -5.786   2.144  25.739  0.00  0.00    +0.172 A 
ATOM      4  C   UNL     1      -5.541   1.412  25.448  0.00  0.00    +0.040 A 
ATOM      5  C   UNL     1      -4.884   1.365  24.950  0.00  0.00    +0.005 A 
ATOM      6  C   UNL     1      -4.473   2.050  24.744  0.00  0.00    +0.023 A 
ATOM      7  C   UNL     1      -4.718   2.782  25.035  0.00  0.00    +0.042 A 
ATOM      8  C   UNL     1      -5.375   2.828  25.533  0.00  0.00    +0.172 A 
BRANCH   3   2
ATOM      1  C   UNL     1      -6.635   1.553  26.725  0.00  0.00    +0.253 C 
ATOM      2  O   UNL     1      -6.442   2.190  26.237  0.00  0.00    -0.468 OA
ENDBRANCH   3   2
BRANCH   8   9
ATOM      9  O   UNL     1      -5.621   3.560  25.825  0.00  0.00    -0.468 OA
ATOM     10  C   UNL     1      -5.239   4.250  25.582  0.00  0.00    +0.253 C 
ENDBRANCH   8   9
ENDBRANCH  11   6
ENDBRANCH  17  15
BRANCH  24  25
ATOM     25  C   UNL     1       0.570   1.248  23.704  0.00  0.00    +0.226 C 
BRANCH  25  26
ATOM     26  O   UNL     1       1.030   0.769  23.214  0.00  0.00    -0.432 OA
BRANCH  26  27
ATOM     27  C   UNL     1       1.847   0.732  23.321  0.00  0.00    +0.425 C 
ATOM     28  O   UNL     1       2.208   1.196  23.900  0.00  0.00    -0.224 OA
ATOM     29  N   UNL     1       2.303   0.231  22.850  0.00  0.00    -0.142 NA
BRANCH  29  30
ATOM     30  C   UNL     1       3.120   0.194  22.957  0.00  0.00    +0.077 A 
ATOM     31  C   UNL     1       3.599   0.815  22.700  0.00  0.00    +0.017 A 
ATOM     32  C   UNL     1       4.416   0.778  22.808  0.00  0.00    +0.004 A 
ATOM     33  C   UNL     1       4.755   0.120  23.173  0.00  0.00    +0.035 A 
ATOM     34  C   UNL     1       4.276  -0.500  23.430  0.00  0.00    +0.004 A 
ATOM     35  C   UNL     1       3.459  -0.463  23.323  0.00  0.00    +0.017 A 
BRANCH  33  36
ATOM     36  C   UNL     1       5.572   0.084  23.280  0.00  0.00    +0.173 C 
ATOM     37  C   UNL     1       5.909   0.365  23.979  0.00  0.00    +0.077 C 
ATOM     38  O   UNL     1       6.050  -0.233  22.688  0.00  0.00    -0.291 OA
ENDBRANCH  33  36
ENDBRANCH  29  30
ENDBRANCH  26  27
ENDBRANCH  25  26
ENDBRANCH  24  25
TORSDOF 9
ENDMDL
MODEL 2
REMARK VINA RESULT:      -8.4      0.672      1.320
REMARK  Name = 
REMARK  9 active torsions:
REMARK  status: ('A' for Active; 'I' for Inactive)
REMARK    1  A    between atoms: O_2  and  C_3
REMARK    2  A    between atoms: C_6  and  C_11
REMARK    3  A    between atoms: C_8  and  O_9
REMARK    4  A    between atoms: C_15  and  C_17
REMARK    5  A    between atoms: C_24  and  C_25
REMARK    6  A    between atoms: C_25  and  O_26
REMARK    7  A    between atoms: O_26  and  C_27
REMARK    8  A    between atoms: N_29  and  C_30
REMARK    9  A    between atoms: C_33  and  C_36
REMARK                            x       y       z     vdW  Elec       q    Type
REMARK                         _______ _______ _______ _____ _____    ______ ____
ROOT
ATOM     17  C   UNL     1      -1.968   0.909  24.147  0.00  0.00    +0.056 C 
ATOM     18  C   UNL     1      -1.573   0.440  24.626  0.00  0.00    +0.078 C 
ATOM     19  N   UNL     1      -1.276   0.807  23.949  0.00  0.00    -0.270 NA
ATOM     20  C   UNL     1      -2.058   1.367  23.532  0.00  0.00    +0.072 C 
ATOM     21  C   UNL     1      -2.285   1.767  23.068  0.00  0.00    +0.018 C 
ATOM     22  C   UNL     1      -1.669   1.265  23.484  0.00  0.00    +0.010 C 
ATOM     23  C   UNL     1      -0.873   1.246  23.114  0.00  0.00    +0.020 C 
ATOM     24  C   UNL     1      -0.451   0.791  23.559  0.00  0.00    +0.102 C 
ENDROOT
BRANCH  17  15
ATOM     11  C   UNL     1      -3.880   1.668  24.719  0.00  0.00    +0.102 A 
ATOM     12  N   UNL     1      -4.074   0.896  24.501  0.00  0.00    -0.170 NA
ATOM     13  N   UNL     1      -3.382   0.518  24.260  0.00  0.00    -0.253 N 
ATOM     14  C   UNL     1      -3.321  -0.261  23.996  0.00  0.00    +0.153 C 
ATOM     15  C   UNL     1      -2.760   1.056  24.330  0.00  0.00    +0.058 A 
ATOM     16  C   UNL     1      -3.068   1.767  24.614  0.00  0.00    +0.035 A 
BRANCH  11   6
ATOM      3  C   UNL     1      -5.460   3.384  25.548  0.00  0.00    +0.172 A 
ATOM      4  C   UNL     1      -4.796   3.610  25.113  0.00  0.00    +0.040 A 
ATOM      5  C   UNL     1      -4.270   3.038  24.837  0.00  0.00    +0.005 A 
ATOM      6  C   UNL     1      -4.406   2.240  24.995  0.00  0.00    +0.023 A 
ATOM      7  C   UNL     1      -5.070   2.014  25.430  0.00  0.00    +0.042 A 
ATOM      8  C   UNL     1      -5.597   2.587  25.707  0.00  0.00    +0.172 A 
BRANCH   3   2
ATOM      1  C   UNL     1      -5.925   4.735  25.558  0.00  0.00    +0.253 C 
ATOM      2  O   UNL     1      -5.986   3.956  25.824  0.00  0.00    -0.468 OA
ENDBRANCH   3   2
BRANCH   8   9
ATOM      9  O   UNL     1      -6.261   2.361  26.142  0.00  0.00    -0.468 OA
ATOM     10  C   UNL     1      -6.309   1.600  26.456  0.00  0.00    +0.253 C 
ENDBRANCH   8   9
ENDBRANCH  11   6
ENDBRANCH  17  15
BRANCH  24  25
ATOM     25  C   UNL     1       0.305   0.474  23.639  0.00  0.00    +0.226 C 
BRANCH  25  26
ATOM     26  O   UNL     1       0.853   0.555  23.028  0.00  0.00    -0.432 OA
BRANCH  26  27
ATOM     27  C   UNL     1       1.661   0.551  23.194  0.00  0.00    +0.425 C 
ATOM     28  O   UNL     1       1.944   0.924  23.874  0.00  0.00    -0.224 OA
ATOM     29  N   UNL     1       2.187   0.175  22.682  0.00  0.00    -0.142 NA
BRANCH  29  30
ATOM     30  C   UNL     1       2.995   0.172  22.848  0.00  0.00    +0.077 A 
ATOM     31  C   UNL     1       3.455   0.833  22.673  0.00  0.00    +0.017 A 
ATOM     32  C   UNL     1       4.263   0.830  22.839  0.00  0.00    +0.004 A 
ATOM     33  C   UNL     1       4.611   0.165  23.182  0.00  0.00    +0.035 A 
ATOM     34  C   UNL     1       4.151  -0.497  23.358  0.00  0.00    +0.004 A 
ATOM     35  C   UNL     1       3.342  -0.493  23.191  0.00  0.00    +0.017 A 
BRANCH  33  36
ATOM     36  C   UNL     1       5.419   0.162  23.349  0.00  0.00    +0.173 C 
ATOM     37  C   UNL     1       5.697   0.496  24.050  0.00  0.00    +0.077 C 
ATOM     38  O   UNL     1       5.948  -0.176  22.813  0.00  0.00    -0.291 OA
ENDBRANCH  33  36
ENDBRANCH  29  30
ENDBRANCH  26  27
ENDBRANCH  25  26
ENDBRANCH  24  25
TORSDOF 9
ENDMDL
MODEL 3
REMARK VINA RESULT:      -6.5      1.190      8.152
REMARK  Name = 
REMARK  9 active torsions:
REMARK  status: ('A' for Active; 'I' for Inactive)
REMARK    1  A    between atoms: O_2  and  C_3
REMARK    2  A    between atoms: C_6  and  C_11
REMARK    3  A    between atoms: C_8  and  O_9
REMARK    4  A    between atoms: C_15  and  C_17
REMARK    5  A    between atoms: C_24  and  C_25
REMARK    6  A    between atoms: C_25  and  O_26
REMARK    7  A    between atoms: O_26  and  C_27
REMARK    8  A    between atoms: N_29  and  C_30
REMARK    9  A    between atoms: C_33  and  C_36
REMARK                            x       y       z     vdW  Elec       q    Type
REMARK                         _______ _______ _______ _____ _____    ______ ____
ROOT
ATOM     17  C   UNL     1       0.581   0.161  23.369  0.00  0.00    +0.056 C 
ATOM     18  C   UNL     1       0.109  -0.458  23.354  0.00  0.00    +0.078 C 
ATOM     19  N   UNL     1      -0.068   0.283  23.673  0.00  0.00    -0.270 NA
ATOM     20  C   UNL     1       0.776   0.890  23.534  0.00  0.00    +0.072 C 
ATOM     21  C   UNL     1       1.080   1.464  23.602  0.00  0.00    +0.018 C 
ATOM     22  C   UNL     1       0.400   0.884  23.685  0.00  0.00    +0.010 C 
ATOM     23  C   UNL     1      -0.322   1.190  24.080  0.00  0.00    +0.020 C 
ATOM     24  C   UNL     1      -0.815   0.607  24.085  0.00  0.00    +0.102 C 
ENDROOT
BRANCH  17  15
ATOM     11  C   UNL     1       2.656   0.015  22.887  0.00  0.00    +0.102 A 
ATOM     12  N   UNL     1       2.311  -0.143  22.155  0.00  0.00    -0.170 NA
ATOM     13  N   UNL     1       1.492  -0.108  22.246  0.00  0.00    -0.253 N 
ATOM     14  C   UNL     1       0.932  -0.230  21.653  0.00  0.00    +0.153 C 
ATOM     15  C   UNL     1       1.331   0.072  23.035  0.00  0.00    +0.058 A 
ATOM     16  C   UNL     1       2.051   0.148  23.432  0.00  0.00    +0.035 A 
BRANCH  11   6
ATOM      3  C   UNL     1       5.084   0.076  23.368  0.00  0.00    +0.172 A 
ATOM      4  C   UNL     1       4.718   0.722  23.006  0.00  0.00    +0.040 A 
ATOM      5  C   UNL     1       3.909   0.701  22.846  0.00  0.00    +0.005 A 
ATOM      6  C   UNL     1       3.465   0.036  23.047  0.00  0.00    +0.023 A 
ATOM      7  C   UNL     1       3.831  -0.610  23.409  0.00  0.00    +0.042 A 
ATOM      8  C   UNL     1       4.640  -0.589  23.570  0.00  0.00    +0.172 A 
BRANCH   3   2
ATOM      1  C   UNL     1       6.238   0.790  23.813  0.00  0.00    +0.253 C 
ATOM      2  O   UNL     1       5.892   0.097  23.528  0.00  0.00    -0.468 OA
ENDBRANCH   3   2
BRANCH   8   9
ATOM      9  O   UNL     1       5.006  -1.234  23.932  0.00  0.00    -0.468 OA
ATOM     10  C   UNL     1       4.641  -1.974  23.922  0.00  0.00    +0.253 C 
ENDBRANCH   8   9
ENDBRANCH  11   6
ENDBRANCH  17  15
BRANCH  24  25
ATOM     25  C   UNL     1      -1.575   0.396  24.323  0.00  0.00    +0.226 C 
BRANCH  25  26
ATOM     26  O   UNL     1      -2.231   0.720  23.943  0.00  0.00    -0.432 OA
BRANCH  26  27
ATOM     27  C   UNL     1      -2.871   0.996  24.384  0.00  0.00    +0.425 C 
ATOM     28  O   UNL     1      -3.019   0.685  25.134  0.00  0.00    -0.224 OA
ATOM     29  N   UNL     1      -3.363   1.583  24.077  0.00  0.00    -0.142 NA
BRANCH  29  30
ATOM     30  C   UNL     1      -4.002   1.858  24.520  0.00  0.00    +0.077 A 
ATOM     31  C   UNL     1      -4.707   1.430  24.536  0.00  0.00    +0.017 A 
ATOM     32  C   UNL     1      -5.347   1.706  24.979  0.00  0.00    +0.004 A 
ATOM     33  C   UNL     1      -5.282   2.409  25.405  0.00  0.00    +0.035 A 
ATOM     34  C   UNL     1      -4.577   2.837  25.389  0.00  0.00    +0.004 A 
ATOM     35  C   UNL     1      -3.937   2.562  24.946  0.00  0.00    +0.017 A 
BRANCH  33  36
ATOM     36  C   UNL     1      -5.921   2.684  25.847  0.00  0.00    +0.173 C 
ATOM     37  C   UNL     1      -6.393   2.152  26.266  0.00  0.00    +0.077 C 
ATOM     38  O   UNL     1      -6.089   3.491  25.870  0.00  0.00    -0.291 OA
ENDBRANCH  33  36
ENDBRANCH  29  30
ENDBRANCH  26  27
ENDBRANCH  25  26
ENDBRANCH  24  25
TORSDOF 9
ENDMDL
