MODEL 1
REMARK VINA RESULT:     -10.9      0.000      0.000
REMARK  Name = 
REMARK  2 active torsions:
REMARK  status: ('A' for Active; 'I' for Inactive)
REMARK    1  A    between atoms: C_5  and  C_8
REMARK    2  A    between atoms: N_27  and  C_28
REMARK                            x       y       z     vdW  Elec       q    Type
REMARK                         _______ _______ _______ _____ _____    ______ ____
ROOT
ATOM      8  C   UNL     1      -3.027   2.108  24.868  0.00  0.00    +0.000 A 
ATOM      9  C   UNL     1      -2.678   2.722  25.293  0.00  0.00    +0.001 A 
ATOM     10  C   UNL     1      -1.858   2.817  25.283  0.00  0.00    +0.017 A 
ATOM     11  C   UNL     1      -1.388   2.298  24.848  0.00  0.00    +0.078 A 
ATOM     12  N   UNL     1      -0.588   2.490  24.912  0.00  0.00    -0.178 NA
ATOM     13  C   UNL     1       0.060   2.115  24.567  0.00  0.00    +0.265 C 
ATOM     14  O   UNL     1       0.797   2.443  24.739  0.00  0.00    -0.271 OA
ATOM     15  C   UNL     1       0.070   1.455  24.072  0.00  0.00    +0.174 C 
ATOM     16  C   UNL     1       0.838   1.257  23.847  0.00  0.00    +0.124 C 
ATOM     17  N   UNL     1       0.970   0.611  23.351  0.00  0.00    -0.259 N 
ATOM     18  C   UNL     1       0.332   0.163  23.080  0.00  0.00    +0.117 C 
ATOM     19  C   UNL     1      -0.436   0.361  23.304  0.00  0.00    +0.116 C 
ATOM     20  N   UNL     1      -0.568   1.007  23.801  0.00  0.00    -0.266 N 
ATOM     21  C   UNL     1      -1.371   1.109  23.956  0.00  0.00    +0.251 C 
ATOM     22  O   UNL     1      -1.877   0.564  23.599  0.00  0.00    -0.270 OA
ATOM     23  C   UNL     1      -1.737   1.684  24.423  0.00  0.00    +0.069 A 
ATOM     24  C   UNL     1      -2.555   1.588  24.433  0.00  0.00    +0.006 A 
ATOM     25  C   UNL     1       1.738   0.413  23.127  0.00  0.00    +0.323 C 
ATOM     26  O   UNL     1       1.870  -0.233  22.630  0.00  0.00    -0.251 OA
ATOM     27  N   UNL     1       2.376   0.861  23.398  0.00  0.00    -0.190 NA
ENDROOT
BRANCH   8   5
ATOM      1 CL   UNL     1      -6.304   1.725  24.906  0.00  0.00    -0.082 Cl
ATOM      2  C   UNL     1      -5.485   1.821  24.897  0.00  0.00    +0.058 A 
ATOM      3  C   UNL     1      -5.151   2.485  24.537  0.00  0.00    +0.011 A 
ATOM      4  C   UNL     1      -4.331   2.580  24.528  0.00  0.00    +0.001 A 
ATOM      5  C   UNL     1      -3.845   2.012  24.878  0.00  0.00    +0.000 A 
ATOM      6  C   UNL     1      -4.180   1.348  25.237  0.00  0.00    +0.001 A 
ATOM      7  C   UNL     1      -5.000   1.253  25.247  0.00  0.00    +0.011 A 
ENDBRANCH   8   5
BRANCH  27  28
ATOM     28  C   UNL     1       3.144   0.663  23.174  0.00  0.00    +0.097 C 
ATOM     29  C   UNL     1       3.539   1.116  22.609  0.00  0.00    +0.022 C 
ATOM     30  C   UNL     1       4.307   0.918  22.384  0.00  0.00    +0.002 C 
ATOM     31  C   UNL     1       4.682   0.266  22.725  0.00  0.00    +0.000 C 
ATOM     32  C   UNL     1       4.288  -0.187  23.290  0.00  0.00    +0.002 C 
ATOM     33  C   UNL     1       3.519   0.011  23.515  0.00  0.00    +0.022 C 
ENDBRANCH  27  28
TORSDOF 2
ENDMDL
MODEL 2
REMARK VINA RESULT:      -9.8      2.337      6.580
REMARK  Name = 
REMARK  2 active torsions:
REMARK  status: ('A' for Active; 'I' for Inactive)
REMARK    1  A    between atoms: C_5  and  C_8
REMARK    2  A    between atoms: N_27  and  C_28
REMARK                            x       y       z     vdW  Elec       q    Type
REMARK                         _______ _______ _______ _____ _____    ______ ____
ROOT
ATOM      8  C   UNL     1       0.983   0.136  23.370  0.00  0.00    +0.000 A 
ATOM      9  C   UNL     1       0.776  -0.597  23.684  0.00  0.00    +0.001 A 
ATOM     10  C   UNL     1       0.029  -0.708  24.016  0.00  0.00    +0.017 A 
ATOM     11  C   UNL     1      -0.511  -0.085  24.034  0.00  0.00    +0.078 A 
ATOM     12  N   UNL     1      -1.221  -0.311  24.387  0.00  0.00    -0.178 NA
ATOM     13  C   UNL     1      -1.899   0.141  24.515  0.00  0.00    +0.265 C 
ATOM     14  O   UNL     1      -2.524  -0.248  24.886  0.00  0.00    -0.271 OA
ATOM     15  C   UNL     1      -2.035   0.931  24.319  0.00  0.00    +0.174 C 
ATOM     16  C   UNL     1      -2.792   1.172  24.544  0.00  0.00    +0.124 C 
ATOM     17  N   UNL     1      -3.039   1.945  24.399  0.00  0.00    -0.259 N 
ATOM     18  C   UNL     1      -2.530   2.478  24.028  0.00  0.00    +0.117 C 
ATOM     19  C   UNL     1      -1.774   2.237  23.803  0.00  0.00    +0.116 C 
ATOM     20  N   UNL     1      -1.526   1.464  23.949  0.00  0.00    -0.266 N 
ATOM     21  C   UNL     1      -0.756   1.339  23.682  0.00  0.00    +0.251 C 
ATOM     22  O   UNL     1      -0.389   1.989  23.331  0.00  0.00    -0.270 OA
ATOM     23  C   UNL     1      -0.304   0.649  23.720  0.00  0.00    +0.069 A 
ATOM     24  C   UNL     1       0.443   0.760  23.388  0.00  0.00    +0.006 A 
ATOM     25  C   UNL     1      -3.795   2.186  24.623  0.00  0.00    +0.323 C 
ATOM     26  O   UNL     1      -4.043   2.959  24.478  0.00  0.00    -0.251 OA
ATOM     27  N   UNL     1      -4.305   1.652  24.994  0.00  0.00    -0.190 NA
ENDROOT
BRANCH   8   5
ATOM      1 CL   UNL     1       3.971   0.580  22.040  0.00  0.00    -0.082 Cl
ATOM      2  C   UNL     1       3.224   0.469  22.373  0.00  0.00    +0.058 A 
ATOM      3  C   UNL     1       2.680  -0.033  22.007  0.00  0.00    +0.011 A 
ATOM      4  C   UNL     1       1.933  -0.144  22.340  0.00  0.00    +0.001 A 
ATOM      5  C   UNL     1       1.730   0.247  23.038  0.00  0.00    +0.000 A 
ATOM      6  C   UNL     1       2.274   0.749  23.403  0.00  0.00    +0.001 A 
ATOM      7  C   UNL     1       3.021   0.860  23.070  0.00  0.00    +0.011 A 
ENDBRANCH   8   5
BRANCH  27  28
ATOM     28  C   UNL     1      -5.061   1.893  25.219  0.00  0.00    +0.097 C 
ATOM     29  C   UNL     1      -5.161   2.377  25.880  0.00  0.00    +0.022 C 
ATOM     30  C   UNL     1      -5.917   2.617  26.105  0.00  0.00    +0.002 C 
ATOM     31  C   UNL     1      -6.574   2.374  25.669  0.00  0.00    +0.000 C 
ATOM     32  C   UNL     1      -6.474   1.890  25.009  0.00  0.00    +0.002 C 
ATOM     33  C   UNL     1      -5.718   1.649  24.784  0.00  0.00    +0.022 C 
ENDBRANCH  27  28
TORSDOF 2
ENDMDL
MODEL 3
REMARK VINA RESULT:      -9.2     15.093     16.266
REMARK  Name = 
REMARK  2 active torsions:
REMARK  status: ('A' for Active; 'I' for Inactive)
REMARK    1  A    between atoms: C_5  and  C_8
REMARK    2  A    between atoms: N_27  and  C_28
REMARK                            x       y       z     vdW  Elec       q    Type
REMARK                         _______ _______ _______ _____ _____    ______ ____
ROOT
ATOM      8  C   UNL     1      -4.909 -10.601  16.838  0.00  0.00    +0.000 A 
ATOM      9  C   UNL     1      -4.106 -10.781  16.794  0.00  0.00    +0.001 A 
ATOM     10  C   UNL     1      -3.720 -10.772  16.065  0.00  0.00    +0.017 A 
ATOM     11  C   UNL     1      -4.137 -10.582  15.380  0.00  0.00    +0.078 A 
ATOM     12  N   UNL     1      -3.650 -10.604  14.714  0.00  0.00    -0.178 NA
ATOM     13  C   UNL     1      -3.846 -10.452  13.928  0.00  0.00    +0.265 C 
ATOM     14  O   UNL     1      -3.230 -10.521  13.385  0.00  0.00    -0.271 OA
ATOM     15  C   UNL     1      -4.579 -10.239  13.612  0.00  0.00    +0.174 C 
ATOM     16  C   UNL     1      -4.537 -10.137  12.795  0.00  0.00    +0.124 C 
ATOM     17  N   UNL     1      -5.211  -9.923  12.370  0.00  0.00    -0.259 N 
ATOM     18  C   UNL     1      -5.927  -9.811  12.764  0.00  0.00    +0.117 C 
ATOM     19  C   UNL     1      -5.969  -9.912  13.581  0.00  0.00    +0.116 C 
ATOM     20  N   UNL     1      -5.295 -10.126  14.005  0.00  0.00    -0.266 N 
ATOM     21  C   UNL     1      -5.456 -10.198  14.811  0.00  0.00    +0.251 C 
ATOM     22  O   UNL     1      -6.236 -10.048  15.035  0.00  0.00    -0.270 OA
ATOM     23  C   UNL     1      -4.940 -10.401  15.423  0.00  0.00    +0.069 A 
ATOM     24  C   UNL     1      -5.327 -10.411  16.151  0.00  0.00    +0.006 A 
ATOM     25  C   UNL     1      -5.169  -9.822  11.553  0.00  0.00    +0.323 C 
ATOM     26  O   UNL     1      -5.843  -9.608  11.128  0.00  0.00    -0.251 OA
ATOM     27  N   UNL     1      -4.452  -9.935  11.159  0.00  0.00    -0.190 NA
ENDROOT
BRANCH   8   5
ATOM      1 CL   UNL     1      -6.455 -10.638  19.753  0.00  0.00    -0.082 Cl
ATOM      2  C   UNL     1      -6.069 -10.629  19.024  0.00  0.00    +0.058 A 
ATOM      3  C   UNL     1      -5.253 -10.749  18.988  0.00  0.00    +0.011 A 
ATOM      4  C   UNL     1      -4.866 -10.739  18.259  0.00  0.00    +0.001 A 
ATOM      5  C   UNL     1      -5.296 -10.610  17.566  0.00  0.00    +0.000 A 
ATOM      6  C   UNL     1      -6.112 -10.490  17.603  0.00  0.00    +0.001 A 
ATOM      7  C   UNL     1      -6.498 -10.500  18.332  0.00  0.00    +0.011 A 
ENDBRANCH   8   5
BRANCH  27  28
ATOM     28  C   UNL     1      -4.410  -9.833  10.341  0.00  0.00    +0.097 C 
ATOM     29  C   UNL     1      -4.155  -9.115  10.027  0.00  0.00    +0.022 C 
ATOM     30  C   UNL     1      -4.113  -9.013   9.210  0.00  0.00    +0.002 C 
ATOM     31  C   UNL     1      -4.326  -9.631   8.706  0.00  0.00    +0.000 C 
ATOM     32  C   UNL     1      -4.581 -10.349   9.020  0.00  0.00    +0.002 C 
ATOM     33  C   UNL     1      -4.623 -10.451   9.837  0.00  0.00    +0.022 C 
ENDBRANCH  27  28
TORSDOF 2
ENDMDL
MODEL 4
REMARK VINA RESULT:      -7.8     15.141     16.101
REMARK  Name = 
REMARK  2 active torsions:
REMARK  status: ('A' for Active; 'I' for Inactive)
REMARK    1  A    between atoms: C_5  and  C_8
REMARK    2  A    between atoms: N_27  and  C_28
REMARK                            x       y       z     vdW  Elec       q    Type
REMARK                         _______ _______ _______ _____ _____    ______ ____
ROOT
ATOM      8  C   UNL     1      -7.740 -10.031  16.988  0.00  0.00    +0.000 A 
ATOM      9  C   UNL     1      -7.003 -10.034  17.358  0.00  0.00    +0.001 A 
ATOM     10  C   UNL     1      -6.313 -10.036  16.904  0.00  0.00    +0.017 A 
ATOM     11  C   UNL     1      -6.362 -10.034  16.081  0.00  0.00    +0.078 A 
ATOM     12  N   UNL     1      -5.613 -10.036  15.736  0.00  0.00    -0.178 NA
ATOM     13  C   UNL     1      -5.416 -10.035  14.934  0.00  0.00    +0.265 C 
ATOM     14  O   UNL     1      -4.609 -10.037  14.764  0.00  0.00    -0.271 OA
ATOM     15  C   UNL     1      -5.919 -10.032  14.280  0.00  0.00    +0.174 C 
ATOM     16  C   UNL     1      -5.496 -10.032  13.573  0.00  0.00    +0.124 C 
ATOM     17  N   UNL     1      -5.896 -10.029  12.852  0.00  0.00    -0.259 N 
ATOM     18  C   UNL     1      -6.721 -10.026  12.839  0.00  0.00    +0.117 C 
ATOM     19  C   UNL     1      -7.145 -10.026  13.546  0.00  0.00    +0.116 C 
ATOM     20  N   UNL     1      -6.744 -10.029  14.267  0.00  0.00    -0.266 N 
ATOM     21  C   UNL     1      -7.269 -10.028  14.904  0.00  0.00    +0.251 C 
ATOM     22  O   UNL     1      -8.070 -10.025  14.707  0.00  0.00    -0.270 OA
ATOM     23  C   UNL     1      -7.099 -10.031  15.711  0.00  0.00    +0.069 A 
ATOM     24  C   UNL     1      -7.788 -10.029  16.164  0.00  0.00    +0.006 A 
ATOM     25  C   UNL     1      -5.472 -10.029  12.144  0.00  0.00    +0.323 C 
ATOM     26  O   UNL     1      -5.873 -10.026  11.423  0.00  0.00    -0.251 OA
ATOM     27  N   UNL     1      -4.647 -10.032  12.158  0.00  0.00    -0.190 NA
ENDROOT
BRANCH   8   5
ATOM      1 CL   UNL     1     -10.497 -10.026  18.802  0.00  0.00    -0.082 Cl
ATOM      2  C   UNL     1      -9.808 -10.027  18.348  0.00  0.00    +0.058 A 
ATOM      3  C   UNL     1      -9.354 -10.715  18.288  0.00  0.00    +0.011 A 
ATOM      4  C   UNL     1      -8.665 -10.715  17.835  0.00  0.00    +0.001 A 
ATOM      5  C   UNL     1      -8.429 -10.029  17.441  0.00  0.00    +0.000 A 
ATOM      6  C   UNL     1      -8.883  -9.343  17.502  0.00  0.00    +0.001 A 
ATOM      7  C   UNL     1      -9.572  -9.342  17.955  0.00  0.00    +0.011 A 
ENDBRANCH   8   5
BRANCH  27  28
ATOM     28  C   UNL     1      -4.223 -10.032  11.450  0.00  0.00    +0.097 C 
ATOM     29  C   UNL     1      -4.031  -9.318  11.084  0.00  0.00    +0.022 C 
ATOM     30  C   UNL     1      -3.607  -9.319  10.377  0.00  0.00    +0.002 C 
ATOM     31  C   UNL     1      -3.374 -10.033  10.035  0.00  0.00    +0.000 C 
ATOM     32  C   UNL     1      -3.566 -10.746  10.401  0.00  0.00    +0.002 C 
ATOM     33  C   UNL     1      -3.990 -10.746  11.108  0.00  0.00    +0.022 C 
ENDBRANCH  27  28
TORSDOF 2
ENDMDL
MODEL 5
REMARK VINA RESULT:      -7.5     15.306     16.823
REMARK  Name = 
REMARK  2 active torsions:
REMARK  status: ('A' for Active; 'I' for Inactive)
REMARK    1  A    between atoms: C_5  and  C_8
REMARK    2  A    between atoms: N_27  and  C_28
REMARK                            x       y       z     vdW  Elec       q    Type
REMARK                         _______ _______ _______ _____ _____    ______ ____
ROOT
ATOM      8  C   UNL     1      -4.744 -10.164  11.654  0.00  0.00    +0.000 A 
ATOM      9  C   UNL     1      -3.980 -10.390  11.866  0.00  0.00    +0.001 A 
ATOM     10  C   UNL     1      -3.796 -10.529  12.659  0.00  0.00    +0.017 A 
ATOM     11  C   UNL     1      -4.377 -10.442  13.238  0.00  0.00    +0.078 A 
ATOM     12  N   UNL     1      -4.079 -10.607  13.989  0.00  0.00    -0.178 NA
ATOM     13  C   UNL     1      -4.472 -10.586  14.714  0.00  0.00    +0.265 C 
ATOM     14  O   UNL     1      -4.017 -10.781  15.374  0.00  0.00    -0.271 OA
ATOM     15  C   UNL     1      -5.261 -10.395  14.867  0.00  0.00    +0.174 C 
ATOM     16  C   UNL     1      -5.432 -10.442  15.672  0.00  0.00    +0.124 C 
ATOM     17  N   UNL     1      -6.192 -10.273  15.943  0.00  0.00    -0.259 N 
ATOM     18  C   UNL     1      -6.781 -10.056  15.408  0.00  0.00    +0.117 C 
ATOM     19  C   UNL     1      -6.610 -10.009  14.603  0.00  0.00    +0.116 C 
ATOM     20  N   UNL     1      -5.850 -10.179  14.332  0.00  0.00    -0.266 N 
ATOM     21  C   UNL     1      -5.797 -10.099  13.513  0.00  0.00    +0.251 C 
ATOM     22  O   UNL     1      -6.491  -9.872  13.129  0.00  0.00    -0.270 OA
ATOM     23  C   UNL     1      -5.141 -10.216  13.025  0.00  0.00    +0.069 A 
ATOM     24  C   UNL     1      -5.325 -10.077  12.234  0.00  0.00    +0.006 A 
ATOM     25  C   UNL     1      -6.364 -10.320  16.749  0.00  0.00    +0.323 C 
ATOM     26  O   UNL     1      -7.124 -10.150  17.020  0.00  0.00    -0.251 OA
ATOM     27  N   UNL     1      -5.774 -10.537  17.284  0.00  0.00    -0.190 NA
ENDROOT
BRANCH   8   5
ATOM      1 CL   UNL     1      -5.481  -9.606   8.486  0.00  0.00    -0.082 Cl
ATOM      2  C   UNL     1      -5.297  -9.746   9.278  0.00  0.00    +0.058 A 
ATOM      3  C   UNL     1      -4.965  -9.145   9.736  0.00  0.00    +0.011 A 
ATOM      4  C   UNL     1      -4.781  -9.285  10.528  0.00  0.00    +0.001 A 
ATOM      5  C   UNL     1      -4.928 -10.025  10.862  0.00  0.00    +0.000 A 
ATOM      6  C   UNL     1      -5.261 -10.625  10.403  0.00  0.00    +0.001 A 
ATOM      7  C   UNL     1      -5.445 -10.485   9.611  0.00  0.00    +0.011 A 
ENDBRANCH   8   5
BRANCH  27  28
ATOM     28  C   UNL     1      -5.945 -10.584  18.090  0.00  0.00    +0.097 C 
ATOM     29  C   UNL     1      -6.725 -10.677  18.341  0.00  0.00    +0.022 C 
ATOM     30  C   UNL     1      -6.896 -10.724  19.146  0.00  0.00    +0.002 C 
ATOM     31  C   UNL     1      -6.287 -10.678  19.701  0.00  0.00    +0.000 C 
ATOM     32  C   UNL     1      -5.507 -10.584  19.450  0.00  0.00    +0.002 C 
ATOM     33  C   UNL     1      -5.336 -10.537  18.645  0.00  0.00    +0.022 C 
ENDBRANCH  27  28
TORSDOF 2
ENDMDL
MODEL 6
REMARK VINA RESULT:      -7.1     15.775     17.547
REMARK  Name = 
REMARK  2 active torsions:
REMARK  status: ('A' for Active; 'I' for Inactive)
REMARK    1  A    between atoms: C_5  and  C_8
REMARK    2  A    between atoms: N_27  and  C_28
REMARK                            x       y       z     vdW  Elec       q    Type
REMARK                         _______ _______ _______ _____ _____    ______ ____
ROOT
ATOM      8  C   UNL     1      -5.132  -9.834  11.786  0.00  0.00    +0.000 A 
ATOM      9  C   UNL     1      -4.556 -10.030  12.343  0.00  0.00    +0.001 A 
ATOM     10  C   UNL     1      -4.765 -10.128  13.135  0.00  0.00    +0.017 A 
ATOM     11  C   UNL     1      -5.549 -10.028  13.370  0.00  0.00    +0.078 A 
ATOM     12  N   UNL     1      -5.638 -10.150  14.181  0.00  0.00    -0.178 NA
ATOM     13  C   UNL     1      -6.325 -10.105  14.636  0.00  0.00    +0.265 C 
ATOM     14  O   UNL     1      -6.232 -10.258  15.441  0.00  0.00    -0.271 OA
ATOM     15  C   UNL     1      -7.093  -9.927  14.392  0.00  0.00    +0.174 C 
ATOM     16  C   UNL     1      -7.621  -9.940  15.025  0.00  0.00    +0.124 C 
ATOM     17  N   UNL     1      -8.420  -9.777  14.899  0.00  0.00    -0.259 N 
ATOM     18  C   UNL     1      -8.690  -9.600  14.140  0.00  0.00    +0.117 C 
ATOM     19  C   UNL     1      -8.162  -9.587  13.507  0.00  0.00    +0.116 C 
ATOM     20  N   UNL     1      -7.363  -9.750  13.633  0.00  0.00    -0.266 N 
ATOM     21  C   UNL     1      -6.932  -9.708  12.931  0.00  0.00    +0.251 C 
ATOM     22  O   UNL     1      -7.366  -9.516  12.256  0.00  0.00    -0.270 OA
ATOM     23  C   UNL     1      -6.124  -9.831  12.814  0.00  0.00    +0.069 A 
ATOM     24  C   UNL     1      -5.917  -9.734  12.022  0.00  0.00    +0.006 A 
ATOM     25  C   UNL     1      -8.949  -9.790  15.532  0.00  0.00    +0.323 C 
ATOM     26  O   UNL     1      -9.748  -9.627  15.407  0.00  0.00    -0.251 OA
ATOM     27  N   UNL     1      -8.678  -9.967  16.292  0.00  0.00    -0.190 NA
ENDROOT
BRANCH   8   5
ATOM      1 CL   UNL     1      -4.299  -9.443   8.616  0.00  0.00    -0.082 Cl
ATOM      2  C   UNL     1      -4.507  -9.541   9.409  0.00  0.00    +0.058 A 
ATOM      3  C   UNL     1      -4.477  -8.898   9.926  0.00  0.00    +0.011 A 
ATOM      4  C   UNL     1      -4.685  -8.996  10.718  0.00  0.00    +0.001 A 
ATOM      5  C   UNL     1      -4.924  -9.736  10.994  0.00  0.00    +0.000 A 
ATOM      6  C   UNL     1      -4.954 -10.379  10.476  0.00  0.00    +0.001 A 
ATOM      7  C   UNL     1      -4.746 -10.281   9.684  0.00  0.00    +0.011 A 
ENDBRANCH   8   5
BRANCH  27  28
ATOM     28  C   UNL     1      -9.207  -9.980  16.925  0.00  0.00    +0.097 C 
ATOM     29  C   UNL     1      -9.375  -9.286  17.337  0.00  0.00    +0.022 C 
ATOM     30  C   UNL     1      -9.904  -9.299  17.970  0.00  0.00    +0.002 C 
ATOM     31  C   UNL     1     -10.264 -10.007  18.192  0.00  0.00    +0.000 C 
ATOM     32  C   UNL     1     -10.096 -10.702  17.780  0.00  0.00    +0.002 C 
ATOM     33  C   UNL     1      -9.567 -10.689  17.147  0.00  0.00    +0.022 C 
ENDBRANCH  27  28
TORSDOF 2
ENDMDL
