MODEL 1
REMARK VINA RESULT:     -11.0      0.000      0.000
REMARK  Name = 
REMARK  6 active torsions:
REMARK  status: ('A' for Active; 'I' for Inactive)
REMARK    1  A    between atoms: C_2  and  C_3
REMARK    2  A    between atoms: C_2  and  C_25
REMARK    3  A    between atoms: C_10  and  N_11
REMARK    4  A    between atoms: C_12  and  C_14
REMARK    5  A    between atoms: N_27  and  C_28
REMARK    6  A    between atoms: C_28  and  C_29
REMARK                            x       y       z     vdW  Elec       q    Type
REMARK                         _______ _______ _______ _____ _____    ______ ____
ROOT
ATOM      3  C   UNL     1      -4.495   2.786  24.596  0.00  0.00    +0.039 C 
ATOM      4  C   UNL     1      -5.142   2.728  25.106  0.00  0.00    +0.003 C 
ATOM      5  C   UNL     1      -5.398   1.988  25.365  0.00  0.00    +0.000 C 
ATOM      6  C   UNL     1      -5.008   1.306  25.116  0.00  0.00    +0.002 C 
ATOM      7  C   UNL     1      -5.654   1.249  25.625  0.00  0.00    +0.000 C 
ATOM      8  C   UNL     1      -5.264   0.566  25.375  0.00  0.00    +0.002 C 
ATOM      9  C   UNL     1      -4.874  -0.116  25.125  0.00  0.00    +0.022 C 
ATOM     10  C   UNL     1      -4.227  -0.059  24.615  0.00  0.00    +0.096 C 
ATOM     20  C   UNL     1      -3.971   0.681  24.356  0.00  0.00    +0.022 C 
ATOM     21  C   UNL     1      -3.325   0.738  23.847  0.00  0.00    +0.002 C 
ATOM     22  C   UNL     1      -4.361   1.364  24.606  0.00  0.00    +0.032 C 
ATOM     23  C   UNL     1      -4.105   2.103  24.346  0.00  0.00    +0.152 C 
ATOM     24  O   UNL     1      -3.459   2.161  23.837  0.00  0.00    -0.223 OA
ENDROOT
BRANCH  10  11
ATOM     11  N   UNL     1      -3.837  -0.742  24.366  0.00  0.00    -0.202 NA
ATOM     12  C   UNL     1      -3.578  -1.295  24.919  0.00  0.00    +0.284 C 
ATOM     13  O   UNL     1      -3.709  -1.166  25.724  0.00  0.00    -0.267 OA
BRANCH  12  14
ATOM     14  C   UNL     1      -3.189  -1.978  24.669  0.00  0.00    +0.155 A 
ATOM     15  C   UNL     1      -3.622  -2.634  24.421  0.00  0.00    +0.123 A 
ATOM     16  N   UNL     1      -3.233  -3.317  24.172  0.00  0.00    -0.239 NA
ATOM     17  C   UNL     1      -2.408  -3.344  24.170  0.00  0.00    +0.120 A 
ATOM     18  C   UNL     1      -1.973  -2.687  24.419  0.00  0.00    +0.120 A 
ATOM     19  N   UNL     1      -2.364  -2.005  24.668  0.00  0.00    -0.236 NA
ENDBRANCH  12  14
ENDBRANCH  10  11
BRANCH   3   2
ATOM      1  C   UNL     1      -4.420   3.783  23.574  0.00  0.00    +0.010 C 
ATOM      2  C   UNL     1      -4.239   3.526  24.337  0.00  0.00    +0.081 C 
BRANCH   2  25
ATOM     25  C   UNL     1      -3.802   4.011  24.841  0.00  0.00    +0.241 C 
ATOM     26  O   UNL     1      -4.181   4.429  25.444  0.00  0.00    -0.273 OA
ATOM     27  N   UNL     1      -2.985   4.078  24.744  0.00  0.00    -0.199 NA
BRANCH  27  28
ATOM     28  C   UNL     1      -2.548   4.562  25.248  0.00  0.00    +0.160 C 
BRANCH  28  29
ATOM     29  C   UNL     1      -1.730   4.616  25.162  0.00  0.00    +0.081 A 
ATOM     30  N   UNL     1      -1.251   3.969  25.343  0.00  0.00    -0.246 NA
ATOM     31  C   UNL     1      -0.433   4.024  25.256  0.00  0.00    +0.099 A 
ATOM     32  C   UNL     1      -0.092   4.726  24.989  0.00  0.00    +0.021 A 
ATOM     33  C   UNL     1      -0.571   5.374  24.807  0.00  0.00    +0.003 A 
ATOM     34  C   UNL     1      -1.390   5.319  24.894  0.00  0.00    +0.017 A 
ENDBRANCH  28  29
ENDBRANCH  27  28
ENDBRANCH   2  25
ENDBRANCH   3   2
TORSDOF 6
ENDMDL
MODEL 2
REMARK VINA RESULT:     -10.2      3.577      5.477
REMARK  Name = 
REMARK  6 active torsions:
REMARK  status: ('A' for Active; 'I' for Inactive)
REMARK    1  A    between atoms: C_2  and  C_3
REMARK    2  A    between atoms: C_2  and  C_25
REMARK    3  A    between atoms: C_10  and  N_11
REMARK    4  A    between atoms: C_12  and  C_14
REMARK    5  A    between atoms: N_27  and  C_28
REMARK    6  A    between atoms: C_28  and  C_29
REMARK                            x       y       z     vdW  Elec       q    Type
REMARK                         _______ _______ _______ _____ _____    ______ ____
ROOT
ATOM      3  C   UNL     1      -0.049   0.690  23.994  0.00  0.00    +0.039 C 
ATOM      4  C   UNL     1       0.367   1.401  24.054  0.00  0.00    +0.003 C 
ATOM      5  C   UNL     1      -0.018   2.082  24.313  0.00  0.00    +0.000 C 
ATOM      6  C   UNL     1      -0.817   2.055  24.512  0.00  0.00    +0.002 C 
ATOM      7  C   UNL     1      -0.402   2.764  24.572  0.00  0.00    +0.000 C 
ATOM      8  C   UNL     1      -1.203   2.737  24.771  0.00  0.00    +0.002 C 
ATOM      9  C   UNL     1      -2.002   2.709  24.970  0.00  0.00    +0.022 C 
ATOM     10  C   UNL     1      -2.418   1.998  24.910  0.00  0.00    +0.096 C 
ATOM     20  C   UNL     1      -2.034   1.317  24.651  0.00  0.00    +0.022 C 
ATOM     21  C   UNL     1      -2.449   0.606  24.591  0.00  0.00    +0.002 C 
ATOM     22  C   UNL     1      -1.233   1.344  24.452  0.00  0.00    +0.032 C 
ATOM     23  C   UNL     1      -0.849   0.662  24.193  0.00  0.00    +0.152 C 
ATOM     24  O   UNL     1      -1.265  -0.048  24.133  0.00  0.00    -0.223 OA
ENDROOT
BRANCH  10  11
ATOM     11  N   UNL     1      -3.219   1.971  25.109  0.00  0.00    -0.202 NA
ATOM     12  C   UNL     1      -3.711   2.608  24.930  0.00  0.00    +0.284 C 
ATOM     13  O   UNL     1      -3.403   3.273  24.550  0.00  0.00    -0.267 OA
BRANCH  12  14
ATOM     14  C   UNL     1      -4.511   2.580  25.129  0.00  0.00    +0.155 A 
ATOM     15  C   UNL     1      -4.796   3.032  25.757  0.00  0.00    +0.123 A 
ATOM     16  N   UNL     1      -5.596   3.005  25.956  0.00  0.00    -0.239 NA
ATOM     17  C   UNL     1      -6.112   2.525  25.526  0.00  0.00    +0.120 A 
ATOM     18  C   UNL     1      -5.827   2.073  24.897  0.00  0.00    +0.120 A 
ATOM     19  N   UNL     1      -5.026   2.101  24.699  0.00  0.00    -0.236 NA
ENDBRANCH  12  14
ENDBRANCH  10  11
BRANCH   3   2
ATOM      1  C   UNL     1       0.191  -0.716  24.105  0.00  0.00    +0.010 C 
ATOM      2  C   UNL     1       0.336   0.008  23.735  0.00  0.00    +0.081 C 
BRANCH   2  25
ATOM     25  C   UNL     1       0.866   0.049  23.104  0.00  0.00    +0.241 C 
ATOM     26  O   UNL     1       0.584   0.086  22.329  0.00  0.00    -0.273 OA
ATOM     27  N   UNL     1       1.679   0.052  23.248  0.00  0.00    -0.199 NA
BRANCH  27  28
ATOM     28  C   UNL     1       2.209   0.093  22.618  0.00  0.00    +0.160 C 
BRANCH  28  29
ATOM     29  C   UNL     1       3.017   0.179  22.763  0.00  0.00    +0.081 A 
ATOM     30  N   UNL     1       3.450  -0.449  23.077  0.00  0.00    -0.246 NA
ATOM     31  C   UNL     1       4.257  -0.362  23.221  0.00  0.00    +0.099 A 
ATOM     32  C   UNL     1       4.632   0.353  23.052  0.00  0.00    +0.021 A 
ATOM     33  C   UNL     1       4.199   0.981  22.738  0.00  0.00    +0.003 A 
ATOM     34  C   UNL     1       3.391   0.894  22.593  0.00  0.00    +0.017 A 
ENDBRANCH  28  29
ENDBRANCH  27  28
ENDBRANCH   2  25
ENDBRANCH   3   2
TORSDOF 6
ENDMDL
MODEL 3
REMARK VINA RESULT:      -9.8      1.027      5.277
REMARK  Name = 
REMARK  6 active torsions:
REMARK  status: ('A' for Active; 'I' for Inactive)
REMARK    1  A    between atoms: C_2  and  C_3
REMARK    2  A    between atoms: C_2  and  C_25
REMARK    3  A    between atoms: C_10  and  N_11
REMARK    4  A    between atoms: C_12  and  C_14
REMARK    5  A    between atoms: N_27  and  C_28
REMARK    6  A    between atoms: C_28  and  C_29
REMARK                            x       y       z     vdW  Elec       q    Type
REMARK                         _______ _______ _______ _____ _____    ______ ____
ROOT
ATOM      3  C   UNL     1      -4.293   0.277  24.525  0.00  0.00    +0.039 C 
ATOM      4  C   UNL     1      -4.977   0.453  24.953  0.00  0.00    +0.003 C 
ATOM      5  C   UNL     1      -5.101   1.218  25.235  0.00  0.00    +0.000 C 
ATOM      6  C   UNL     1      -4.542   1.806  25.091  0.00  0.00    +0.002 C 
ATOM      7  C   UNL     1      -5.224   1.983  25.517  0.00  0.00    +0.000 C 
ATOM      8  C   UNL     1      -4.665   2.572  25.373  0.00  0.00    +0.002 C 
ATOM      9  C   UNL     1      -4.106   3.160  25.228  0.00  0.00    +0.022 C 
ATOM     10  C   UNL     1      -3.422   2.984  24.800  0.00  0.00    +0.096 C 
ATOM     20  C   UNL     1      -3.298   2.219  24.518  0.00  0.00    +0.022 C 
ATOM     21  C   UNL     1      -2.615   2.042  24.091  0.00  0.00    +0.002 C 
ATOM     22  C   UNL     1      -3.857   1.630  24.663  0.00  0.00    +0.032 C 
ATOM     23  C   UNL     1      -3.734   0.865  24.381  0.00  0.00    +0.152 C 
ATOM     24  O   UNL     1      -3.051   0.688  23.953  0.00  0.00    -0.223 OA
ENDROOT
BRANCH  10  11
ATOM     11  N   UNL     1      -2.862   3.573  24.656  0.00  0.00    -0.202 NA
ATOM     12  C   UNL     1      -2.481   3.944  25.286  0.00  0.00    +0.284 C 
ATOM     13  O   UNL     1      -2.659   3.726  26.062  0.00  0.00    -0.267 OA
BRANCH  12  14
ATOM     14  C   UNL     1      -1.922   4.533  25.141  0.00  0.00    +0.155 A 
ATOM     15  C   UNL     1      -2.140   5.327  25.177  0.00  0.00    +0.123 A 
ATOM     16  N   UNL     1      -1.581   5.917  25.032  0.00  0.00    -0.239 NA
ATOM     17  C   UNL     1      -0.802   5.711  24.852  0.00  0.00    +0.120 A 
ATOM     18  C   UNL     1      -0.584   4.915  24.816  0.00  0.00    +0.120 A 
ATOM     19  N   UNL     1      -1.144   4.327  24.961  0.00  0.00    -0.236 NA
ENDBRANCH  12  14
ENDBRANCH  10  11
BRANCH   3   2
ATOM      1  C   UNL     1      -4.402  -0.690  23.477  0.00  0.00    +0.010 C 
ATOM      2  C   UNL     1      -4.170  -0.489  24.243  0.00  0.00    +0.081 C 
BRANCH   2  25
ATOM     25  C   UNL     1      -3.814  -1.054  24.727  0.00  0.00    +0.241 C 
ATOM     26  O   UNL     1      -4.238  -1.391  25.350  0.00  0.00    -0.273 OA
ATOM     27  N   UNL     1      -3.032  -1.283  24.589  0.00  0.00    -0.199 NA
BRANCH  27  28
ATOM     28  C   UNL     1      -2.677  -1.847  25.073  0.00  0.00    +0.160 C 
BRANCH  28  29
ATOM     29  C   UNL     1      -1.856  -1.925  25.082  0.00  0.00    +0.081 A 
ATOM     30  N   UNL     1      -1.400  -1.440  25.569  0.00  0.00    -0.246 NA
ATOM     31  C   UNL     1      -0.579  -1.518  25.578  0.00  0.00    +0.099 A 
ATOM     32  C   UNL     1      -0.213  -2.082  25.099  0.00  0.00    +0.021 A 
ATOM     33  C   UNL     1      -0.669  -2.567  24.611  0.00  0.00    +0.003 A 
ATOM     34  C   UNL     1      -1.491  -2.489  24.603  0.00  0.00    +0.017 A 
ENDBRANCH  28  29
ENDBRANCH  27  28
ENDBRANCH   2  25
ENDBRANCH   3   2
TORSDOF 6
ENDMDL
MODEL 4
REMARK VINA RESULT:      -9.5      3.377      4.881
REMARK  Name = 
REMARK  6 active torsions:
REMARK  status: ('A' for Active; 'I' for Inactive)
REMARK    1  A    between atoms: C_2  and  C_3
REMARK    2  A    between atoms: C_2  and  C_25
REMARK    3  A    between atoms: C_10  and  N_11
REMARK    4  A    between atoms: C_12  and  C_14
REMARK    5  A    between atoms: N_27  and  C_28
REMARK    6  A    between atoms: C_28  and  C_29
REMARK                            x       y       z     vdW  Elec       q    Type
REMARK                         _______ _______ _______ _____ _____    ______ ____
ROOT
ATOM      3  C   UNL     1      -1.706   2.291  25.104  0.00  0.00    +0.039 C 
ATOM      4  C   UNL     1      -2.066   1.559  25.232  0.00  0.00    +0.003 C 
ATOM      5  C   UNL     1      -1.680   0.865  25.011  0.00  0.00    +0.000 C 
ATOM      6  C   UNL     1      -0.934   0.901  24.662  0.00  0.00    +0.002 C 
ATOM      7  C   UNL     1      -1.294   0.171  24.790  0.00  0.00    +0.000 C 
ATOM      8  C   UNL     1      -0.548   0.207  24.441  0.00  0.00    +0.002 C 
ATOM      9  C   UNL     1       0.198   0.243  24.092  0.00  0.00    +0.022 C 
ATOM     10  C   UNL     1       0.559   0.975  23.964  0.00  0.00    +0.096 C 
ATOM     20  C   UNL     1       0.173   1.669  24.185  0.00  0.00    +0.022 C 
ATOM     21  C   UNL     1       0.534   2.400  24.057  0.00  0.00    +0.002 C 
ATOM     22  C   UNL     1      -0.574   1.633  24.534  0.00  0.00    +0.032 C 
ATOM     23  C   UNL     1      -0.960   2.327  24.755  0.00  0.00    +0.152 C 
ATOM     24  O   UNL     1      -0.599   3.058  24.627  0.00  0.00    -0.223 OA
ENDROOT
BRANCH  10  11
ATOM     11  N   UNL     1       1.306   1.010  23.614  0.00  0.00    -0.202 NA
ATOM     12  C   UNL     1       1.578   0.382  23.156  0.00  0.00    +0.284 C 
ATOM     13  O   UNL     1       1.102  -0.285  23.045  0.00  0.00    -0.267 OA
BRANCH  12  14
ATOM     14  C   UNL     1       2.324   0.417  22.806  0.00  0.00    +0.155 A 
ATOM     15  C   UNL     1       2.454   0.065  22.073  0.00  0.00    +0.123 A 
ATOM     16  N   UNL     1       3.201   0.100  21.723  0.00  0.00    -0.239 NA
ATOM     17  C   UNL     1       3.818   0.489  22.109  0.00  0.00    +0.120 A 
ATOM     18  C   UNL     1       3.688   0.843  22.844  0.00  0.00    +0.120 A 
ATOM     19  N   UNL     1       2.941   0.806  23.192  0.00  0.00    -0.236 NA
ENDBRANCH  12  14
ENDBRANCH  10  11
BRANCH   3   2
ATOM      1  C   UNL     1      -1.771   3.470  25.911  0.00  0.00    +0.010 C 
ATOM      2  C   UNL     1      -2.092   2.986  25.325  0.00  0.00    +0.081 C 
BRANCH   2  25
ATOM     25  C   UNL     1      -2.802   3.196  24.961  0.00  0.00    +0.241 C 
ATOM     26  O   UNL     1      -2.792   3.634  24.261  0.00  0.00    -0.273 OA
ATOM     27  N   UNL     1      -3.522   2.969  25.295  0.00  0.00    -0.199 NA
BRANCH  27  28
ATOM     28  C   UNL     1      -4.230   3.180  24.931  0.00  0.00    +0.160 C 
BRANCH  28  29
ATOM     29  C   UNL     1      -4.934   2.811  25.153  0.00  0.00    +0.081 A 
ATOM     30  N   UNL     1      -5.316   3.036  25.848  0.00  0.00    -0.246 NA
ATOM     31  C   UNL     1      -6.020   2.667  26.069  0.00  0.00    +0.099 A 
ATOM     32  C   UNL     1      -6.342   2.074  25.595  0.00  0.00    +0.021 A 
ATOM     33  C   UNL     1      -5.960   1.849  24.899  0.00  0.00    +0.003 A 
ATOM     34  C   UNL     1      -5.255   2.218  24.678  0.00  0.00    +0.017 A 
ENDBRANCH  28  29
ENDBRANCH  27  28
ENDBRANCH   2  25
ENDBRANCH   3   2
TORSDOF 6
ENDMDL
MODEL 5
REMARK VINA RESULT:      -9.5      2.717      4.840
REMARK  Name = 
REMARK  6 active torsions:
REMARK  status: ('A' for Active; 'I' for Inactive)
REMARK    1  A    between atoms: C_2  and  C_3
REMARK    2  A    between atoms: C_2  and  C_25
REMARK    3  A    between atoms: C_10  and  N_11
REMARK    4  A    between atoms: C_12  and  C_14
REMARK    5  A    between atoms: N_27  and  C_28
REMARK    6  A    between atoms: C_28  and  C_29
REMARK                            x       y       z     vdW  Elec       q    Type
REMARK                         _______ _______ _______ _____ _____    ______ ____
ROOT
ATOM      3  C   UNL     1      -2.834   2.519  24.650  0.00  0.00    +0.039 C 
ATOM      4  C   UNL     1      -2.645   2.878  25.370  0.00  0.00    +0.003 C 
ATOM      5  C   UNL     1      -1.857   2.948  25.602  0.00  0.00    +0.000 C 
ATOM      6  C   UNL     1      -1.257   2.659  25.115  0.00  0.00    +0.002 C 
ATOM      7  C   UNL     1      -1.069   3.017  25.834  0.00  0.00    +0.000 C 
ATOM      8  C   UNL     1      -0.468   2.729  25.347  0.00  0.00    +0.002 C 
ATOM      9  C   UNL     1       0.132   2.441  24.861  0.00  0.00    +0.022 C 
ATOM     10  C   UNL     1      -0.057   2.082  24.141  0.00  0.00    +0.096 C 
ATOM     20  C   UNL     1      -0.845   2.013  23.909  0.00  0.00    +0.022 C 
ATOM     21  C   UNL     1      -1.033   1.654  23.190  0.00  0.00    +0.002 C 
ATOM     22  C   UNL     1      -1.446   2.301  24.396  0.00  0.00    +0.032 C 
ATOM     23  C   UNL     1      -2.234   2.231  24.164  0.00  0.00    +0.152 C 
ATOM     24  O   UNL     1      -2.422   1.873  23.445  0.00  0.00    -0.223 OA
ENDROOT
BRANCH  10  11
ATOM     11  N   UNL     1       0.544   1.794  23.654  0.00  0.00    -0.202 NA
ATOM     12  C   UNL     1       0.995   1.147  23.895  0.00  0.00    +0.284 C 
ATOM     13  O   UNL     1       0.846   0.787  24.623  0.00  0.00    -0.267 OA
BRANCH  12  14
ATOM     14  C   UNL     1       1.596   0.859  23.408  0.00  0.00    +0.155 A 
ATOM     15  C   UNL     1       1.459   0.204  22.927  0.00  0.00    +0.123 A 
ATOM     16  N   UNL     1       2.060  -0.084  22.440  0.00  0.00    -0.239 NA
ATOM     17  C   UNL     1       2.799   0.283  22.436  0.00  0.00    +0.120 A 
ATOM     18  C   UNL     1       2.937   0.939  22.918  0.00  0.00    +0.120 A 
ATOM     19  N   UNL     1       2.335   1.226  23.404  0.00  0.00    -0.236 NA
ENDBRANCH  12  14
ENDBRANCH  10  11
BRANCH   3   2
ATOM      1  C   UNL     1      -3.934   2.962  23.851  0.00  0.00    +0.010 C 
ATOM      2  C   UNL     1      -3.623   2.450  24.418  0.00  0.00    +0.081 C 
BRANCH   2  25
ATOM     25  C   UNL     1      -4.101   1.868  24.755  0.00  0.00    +0.241 C 
ATOM     26  O   UNL     1      -4.682   2.078  25.303  0.00  0.00    -0.273 OA
ATOM     27  N   UNL     1      -3.999   1.077  24.544  0.00  0.00    -0.199 NA
BRANCH  27  28
ATOM     28  C   UNL     1      -4.477   0.496  24.880  0.00  0.00    +0.160 C 
BRANCH  28  29
ATOM     29  C   UNL     1      -4.276  -0.301  24.802  0.00  0.00    +0.081 A 
ATOM     30  N   UNL     1      -4.473  -0.710  24.114  0.00  0.00    -0.246 NA
ATOM     31  C   UNL     1      -4.272  -1.506  24.036  0.00  0.00    +0.099 A 
ATOM     32  C   UNL     1      -3.874  -1.893  24.646  0.00  0.00    +0.021 A 
ATOM     33  C   UNL     1      -3.677  -1.484  25.335  0.00  0.00    +0.003 A 
ATOM     34  C   UNL     1      -3.878  -0.687  25.413  0.00  0.00    +0.017 A 
ENDBRANCH  28  29
ENDBRANCH  27  28
ENDBRANCH   2  25
ENDBRANCH   3   2
TORSDOF 6
ENDMDL
MODEL 6
REMARK VINA RESULT:      -9.5      2.620      4.993
REMARK  Name = 
REMARK  6 active torsions:
REMARK  status: ('A' for Active; 'I' for Inactive)
REMARK    1  A    between atoms: C_2  and  C_3
REMARK    2  A    between atoms: C_2  and  C_25
REMARK    3  A    between atoms: C_10  and  N_11
REMARK    4  A    between atoms: C_12  and  C_14
REMARK    5  A    between atoms: N_27  and  C_28
REMARK    6  A    between atoms: C_28  and  C_29
REMARK                            x       y       z     vdW  Elec       q    Type
REMARK                         _______ _______ _______ _____ _____    ______ ____
ROOT
ATOM      3  C   UNL     1      -1.728  -1.081  24.687  0.00  0.00    +0.039 C 
ATOM      4  C   UNL     1      -2.251  -1.672  24.442  0.00  0.00    +0.003 C 
ATOM      5  C   UNL     1      -3.062  -1.527  24.435  0.00  0.00    +0.000 C 
ATOM      6  C   UNL     1      -3.352  -0.793  24.673  0.00  0.00    +0.002 C 
ATOM      7  C   UNL     1      -3.874  -1.383  24.429  0.00  0.00    +0.000 C 
ATOM      8  C   UNL     1      -4.165  -0.648  24.667  0.00  0.00    +0.002 C 
ATOM      9  C   UNL     1      -4.455   0.086  24.905  0.00  0.00    +0.022 C 
ATOM     10  C   UNL     1      -3.932   0.677  25.150  0.00  0.00    +0.096 C 
ATOM     20  C   UNL     1      -3.121   0.532  25.156  0.00  0.00    +0.022 C 
ATOM     21  C   UNL     1      -2.598   1.122  25.401  0.00  0.00    +0.002 C 
ATOM     22  C   UNL     1      -2.830  -0.203  24.918  0.00  0.00    +0.032 C 
ATOM     23  C   UNL     1      -2.018  -0.347  24.925  0.00  0.00    +0.152 C 
ATOM     24  O   UNL     1      -1.496   0.243  25.170  0.00  0.00    -0.223 OA
ENDROOT
BRANCH  10  11
ATOM     11  N   UNL     1      -4.223   1.411  25.388  0.00  0.00    -0.202 NA
ATOM     12  C   UNL     1      -4.824   1.777  24.958  0.00  0.00    +0.284 C 
ATOM     13  O   UNL     1      -5.135   1.407  24.288  0.00  0.00    -0.267 OA
BRANCH  12  14
ATOM     14  C   UNL     1      -5.115   2.511  25.196  0.00  0.00    +0.155 A 
ATOM     15  C   UNL     1      -5.758   2.554  25.709  0.00  0.00    +0.123 A 
ATOM     16  N   UNL     1      -6.049   3.289  25.947  0.00  0.00    -0.239 NA
ATOM     17  C   UNL     1      -5.695   3.981  25.671  0.00  0.00    +0.120 A 
ATOM     18  C   UNL     1      -5.051   3.939  25.157  0.00  0.00    +0.120 A 
ATOM     19  N   UNL     1      -4.761   3.204  24.920  0.00  0.00    -0.236 NA
ENDBRANCH  12  14
ENDBRANCH  10  11
BRANCH   3   2
ATOM      1  C   UNL     1      -0.531  -1.395  25.404  0.00  0.00    +0.010 C 
ATOM      2  C   UNL     1      -0.916  -1.227  24.693  0.00  0.00    +0.081 C 
BRANCH   2  25
ATOM     25  C   UNL     1      -0.488  -1.203  23.989  0.00  0.00    +0.241 C 
ATOM     26  O   UNL     1      -0.639  -1.758  23.395  0.00  0.00    -0.273 OA
ATOM     27  N   UNL     1       0.092  -0.626  23.876  0.00  0.00    -0.199 NA
BRANCH  27  28
ATOM     28  C   UNL     1       0.520  -0.603  23.172  0.00  0.00    +0.160 C 
BRANCH  28  29
ATOM     29  C   UNL     1       1.173  -0.105  23.102  0.00  0.00    +0.081 A 
ATOM     30  N   UNL     1       1.157   0.647  23.441  0.00  0.00    -0.246 NA
ATOM     31  C   UNL     1       1.811   1.145  23.371  0.00  0.00    +0.099 A 
ATOM     32  C   UNL     1       2.481   0.891  22.961  0.00  0.00    +0.021 A 
ATOM     33  C   UNL     1       2.497   0.139  22.622  0.00  0.00    +0.003 A 
ATOM     34  C   UNL     1       1.842  -0.359  22.692  0.00  0.00    +0.017 A 
ENDBRANCH  28  29
ENDBRANCH  27  28
ENDBRANCH   2  25
ENDBRANCH   3   2
TORSDOF 6
ENDMDL
MODEL 7
REMARK VINA RESULT:      -9.5      2.822      4.359
REMARK  Name = 
REMARK  6 active torsions:
REMARK  status: ('A' for Active; 'I' for Inactive)
REMARK    1  A    between atoms: C_2  and  C_3
REMARK    2  A    between atoms: C_2  and  C_25
REMARK    3  A    between atoms: C_10  and  N_11
REMARK    4  A    between atoms: C_12  and  C_14
REMARK    5  A    between atoms: N_27  and  C_28
REMARK    6  A    between atoms: C_28  and  C_29
REMARK                            x       y       z     vdW  Elec       q    Type
REMARK                         _______ _______ _______ _____ _____    ______ ____
ROOT
ATOM      3  C   UNL     1      -3.250  -0.154  24.700  0.00  0.00    +0.039 C 
ATOM      4  C   UNL     1      -3.141  -0.717  25.294  0.00  0.00    +0.003 C 
ATOM      5  C   UNL     1      -2.381  -0.979  25.479  0.00  0.00    +0.000 C 
ATOM      6  C   UNL     1      -1.731  -0.677  25.072  0.00  0.00    +0.002 C 
ATOM      7  C   UNL     1      -1.621  -1.240  25.664  0.00  0.00    +0.000 C 
ATOM      8  C   UNL     1      -0.970  -0.939  25.257  0.00  0.00    +0.002 C 
ATOM      9  C   UNL     1      -0.319  -0.637  24.850  0.00  0.00    +0.022 C 
ATOM     10  C   UNL     1      -0.429  -0.074  24.256  0.00  0.00    +0.096 C 
ATOM     20  C   UNL     1      -1.188   0.187  24.071  0.00  0.00    +0.022 C 
ATOM     21  C   UNL     1      -1.298   0.750  23.477  0.00  0.00    +0.002 C 
ATOM     22  C   UNL     1      -1.840  -0.114  24.478  0.00  0.00    +0.032 C 
ATOM     23  C   UNL     1      -2.600   0.147  24.293  0.00  0.00    +0.152 C 
ATOM     24  O   UNL     1      -2.709   0.710  23.699  0.00  0.00    -0.223 OA
ENDROOT
BRANCH  10  11
ATOM     11  N   UNL     1       0.223   0.227  23.849  0.00  0.00    -0.202 NA
ATOM     12  C   UNL     1       0.802  -0.284  23.560  0.00  0.00    +0.284 C 
ATOM     13  O   UNL     1       0.730  -1.098  23.679  0.00  0.00    -0.267 OA
BRANCH  12  14
ATOM     14  C   UNL     1       1.453   0.018  23.153  0.00  0.00    +0.155 A 
ATOM     15  C   UNL     1       1.695  -0.331  22.446  0.00  0.00    +0.123 A 
ATOM     16  N   UNL     1       2.347  -0.029  22.039  0.00  0.00    -0.239 NA
ATOM     17  C   UNL     1       2.756   0.621  22.340  0.00  0.00    +0.120 A 
ATOM     18  C   UNL     1       2.514   0.970  23.048  0.00  0.00    +0.120 A 
ATOM     19  N   UNL     1       1.862   0.668  23.454  0.00  0.00    -0.236 NA
ENDBRANCH  12  14
ENDBRANCH  10  11
BRANCH   3   2
ATOM      1  C   UNL     1      -4.338  -0.061  23.776  0.00  0.00    +0.010 C 
ATOM      2  C   UNL     1      -4.011   0.107  24.515  0.00  0.00    +0.081 C 
BRANCH   2  25
ATOM     25  C   UNL     1      -4.445   0.537  25.069  0.00  0.00    +0.241 C 
ATOM     26  O   UNL     1      -4.805   0.149  25.703  0.00  0.00    -0.273 OA
ATOM     27  N   UNL     1      -4.520   1.356  24.990  0.00  0.00    -0.199 NA
BRANCH  27  28
ATOM     28  C   UNL     1      -4.954   1.785  25.544  0.00  0.00    +0.160 C 
BRANCH  28  29
ATOM     29  C   UNL     1      -4.942   2.610  25.528  0.00  0.00    +0.081 A 
ATOM     30  N   UNL     1      -4.226   3.014  25.583  0.00  0.00    -0.246 NA
ATOM     31  C   UNL     1      -4.215   3.838  25.567  0.00  0.00    +0.099 A 
ATOM     32  C   UNL     1      -4.921   4.259  25.496  0.00  0.00    +0.021 A 
ATOM     33  C   UNL     1      -5.638   3.855  25.441  0.00  0.00    +0.003 A 
ATOM     34  C   UNL     1      -5.649   3.029  25.457  0.00  0.00    +0.017 A 
ENDBRANCH  28  29
ENDBRANCH  27  28
ENDBRANCH   2  25
ENDBRANCH   3   2
TORSDOF 6
ENDMDL
MODEL 8
REMARK VINA RESULT:      -9.3      1.938      5.736
REMARK  Name = 
REMARK  6 active torsions:
REMARK  status: ('A' for Active; 'I' for Inactive)
REMARK    1  A    between atoms: C_2  and  C_3
REMARK    2  A    between atoms: C_2  and  C_25
REMARK    3  A    between atoms: C_10  and  N_11
REMARK    4  A    between atoms: C_12  and  C_14
REMARK    5  A    between atoms: N_27  and  C_28
REMARK    6  A    between atoms: C_28  and  C_29
REMARK                            x       y       z     vdW  Elec       q    Type
REMARK                         _______ _______ _______ _____ _____    ______ ____
ROOT
ATOM      3  C   UNL     1      -0.630   0.900  24.452  0.00  0.00    +0.039 C 
ATOM      4  C   UNL     1      -0.086   1.245  24.969  0.00  0.00    +0.003 C 
ATOM      5  C   UNL     1      -0.294   1.920  25.394  0.00  0.00    +0.000 C 
ATOM      6  C   UNL     1      -1.044   2.250  25.303  0.00  0.00    +0.002 C 
ATOM      7  C   UNL     1      -0.502   2.595  25.819  0.00  0.00    +0.000 C 
ATOM      8  C   UNL     1      -1.253   2.926  25.728  0.00  0.00    +0.002 C 
ATOM      9  C   UNL     1      -2.002   3.256  25.638  0.00  0.00    +0.022 C 
ATOM     10  C   UNL     1      -2.546   2.910  25.121  0.00  0.00    +0.096 C 
ATOM     20  C   UNL     1      -2.338   2.235  24.696  0.00  0.00    +0.022 C 
ATOM     21  C   UNL     1      -2.881   1.890  24.179  0.00  0.00    +0.002 C 
ATOM     22  C   UNL     1      -1.588   1.905  24.786  0.00  0.00    +0.032 C 
ATOM     23  C   UNL     1      -1.380   1.230  24.361  0.00  0.00    +0.152 C 
ATOM     24  O   UNL     1      -1.923   0.884  23.845  0.00  0.00    -0.223 OA
ENDROOT
BRANCH  10  11
ATOM     11  N   UNL     1      -3.297   3.241  25.030  0.00  0.00    -0.202 NA
ATOM     12  C   UNL     1      -3.761   3.397  25.693  0.00  0.00    +0.284 C 
ATOM     13  O   UNL     1      -3.476   3.223  26.448  0.00  0.00    -0.267 OA
BRANCH  12  14
ATOM     14  C   UNL     1      -4.512   3.728  25.602  0.00  0.00    +0.155 A 
ATOM     15  C   UNL     1      -5.180   3.307  25.839  0.00  0.00    +0.123 A 
ATOM     16  N   UNL     1      -5.931   3.638  25.748  0.00  0.00    -0.239 NA
ATOM     17  C   UNL     1      -6.012   4.391  25.421  0.00  0.00    +0.120 A 
ATOM     18  C   UNL     1      -5.343   4.813  25.184  0.00  0.00    +0.120 A 
ATOM     19  N   UNL     1      -4.594   4.481  25.275  0.00  0.00    -0.236 NA
ENDBRANCH  12  14
ENDBRANCH  10  11
BRANCH   3   2
ATOM      1  C   UNL     1      -0.148   0.291  23.251  0.00  0.00    +0.010 C 
ATOM      2  C   UNL     1      -0.421   0.224  24.026  0.00  0.00    +0.081 C 
BRANCH   2  25
ATOM     25  C   UNL     1      -0.486  -0.520  24.377  0.00  0.00    +0.241 C 
ATOM     26  O   UNL     1       0.163  -0.852  24.765  0.00  0.00    -0.273 OA
ATOM     27  N   UNL     1      -1.200  -0.933  24.341  0.00  0.00    -0.199 NA
BRANCH  27  28
ATOM     28  C   UNL     1      -1.265  -1.676  24.691  0.00  0.00    +0.160 C 
BRANCH  28  29
ATOM     29  C   UNL     1      -1.998  -2.053  24.727  0.00  0.00    +0.081 A 
ATOM     30  N   UNL     1      -2.209  -2.602  24.149  0.00  0.00    -0.246 NA
ATOM     31  C   UNL     1      -2.941  -2.979  24.185  0.00  0.00    +0.099 A 
ATOM     32  C   UNL     1      -3.464  -2.807  24.800  0.00  0.00    +0.021 A 
ATOM     33  C   UNL     1      -3.253  -2.258  25.379  0.00  0.00    +0.003 A 
ATOM     34  C   UNL     1      -2.519  -1.881  25.343  0.00  0.00    +0.017 A 
ENDBRANCH  28  29
ENDBRANCH  27  28
ENDBRANCH   2  25
ENDBRANCH   3   2
TORSDOF 6
ENDMDL
MODEL 9
REMARK VINA RESULT:      -9.0      2.045      3.523
REMARK  Name = 
REMARK  6 active torsions:
REMARK  status: ('A' for Active; 'I' for Inactive)
REMARK    1  A    between atoms: C_2  and  C_3
REMARK    2  A    between atoms: C_2  and  C_25
REMARK    3  A    between atoms: C_10  and  N_11
REMARK    4  A    between atoms: C_12  and  C_14
REMARK    5  A    between atoms: N_27  and  C_28
REMARK    6  A    between atoms: C_28  and  C_29
REMARK                            x       y       z     vdW  Elec       q    Type
REMARK                         _______ _______ _______ _____ _____    ______ ____
ROOT
ATOM      3  C   UNL     1      -0.203   2.097  25.275  0.00  0.00    +0.039 C 
ATOM      4  C   UNL     1       0.296   2.114  24.617  0.00  0.00    +0.003 C 
ATOM      5  C   UNL     1       0.328   1.466  24.108  0.00  0.00    +0.000 C 
ATOM      6  C   UNL     1      -0.137   0.801  24.256  0.00  0.00    +0.002 C 
ATOM      7  C   UNL     1       0.361   0.818  23.599  0.00  0.00    +0.000 C 
ATOM      8  C   UNL     1      -0.104   0.153  23.747  0.00  0.00    +0.002 C 
ATOM      9  C   UNL     1      -0.569  -0.512  23.894  0.00  0.00    +0.022 C 
ATOM     10  C   UNL     1      -1.068  -0.529  24.552  0.00  0.00    +0.096 C 
ATOM     20  C   UNL     1      -1.101   0.119  25.061  0.00  0.00    +0.022 C 
ATOM     21  C   UNL     1      -1.599   0.102  25.719  0.00  0.00    +0.002 C 
ATOM     22  C   UNL     1      -0.635   0.785  24.914  0.00  0.00    +0.032 C 
ATOM     23  C   UNL     1      -0.668   1.432  25.423  0.00  0.00    +0.152 C 
ATOM     24  O   UNL     1      -1.167   1.415  26.080  0.00  0.00    -0.223 OA
ENDROOT
BRANCH  10  11
ATOM     11  N   UNL     1      -1.533  -1.194  24.700  0.00  0.00    -0.202 NA
ATOM     12  C   UNL     1      -2.168  -1.372  24.205  0.00  0.00    +0.284 C 
ATOM     13  O   UNL     1      -2.339  -0.883  23.562  0.00  0.00    -0.267 OA
BRANCH  12  14
ATOM     14  C   UNL     1      -2.634  -2.037  24.353  0.00  0.00    +0.155 A 
ATOM     15  C   UNL     1      -3.455  -1.970  24.377  0.00  0.00    +0.123 A 
ATOM     16  N   UNL     1      -3.920  -2.635  24.525  0.00  0.00    -0.239 NA
ATOM     17  C   UNL     1      -3.563  -3.368  24.647  0.00  0.00    +0.120 A 
ATOM     18  C   UNL     1      -2.740  -3.436  24.623  0.00  0.00    +0.120 A 
ATOM     19  N   UNL     1      -2.276  -2.771  24.475  0.00  0.00    -0.236 NA
ENDBRANCH  12  14
ENDBRANCH  10  11
BRANCH   3   2
ATOM      1  C   UNL     1       0.168   2.728  26.504  0.00  0.00    +0.010 C 
ATOM      2  C   UNL     1      -0.236   2.745  25.784  0.00  0.00    +0.081 C 
BRANCH   2  25
ATOM     25  C   UNL     1      -0.673   3.413  25.574  0.00  0.00    +0.241 C 
ATOM     26  O   UNL     1      -0.298   4.056  25.218  0.00  0.00    -0.273 OA
ATOM     27  N   UNL     1      -1.485   3.437  25.720  0.00  0.00    -0.199 NA
BRANCH  27  28
ATOM     28  C   UNL     1      -1.922   4.103  25.510  0.00  0.00    +0.160 C 
BRANCH  28  29
ATOM     29  C   UNL     1      -2.741   4.051  25.425  0.00  0.00    +0.081 A 
ATOM     30  N   UNL     1      -3.075   3.976  24.674  0.00  0.00    -0.246 NA
ATOM     31  C   UNL     1      -3.893   3.924  24.590  0.00  0.00    +0.099 A 
ATOM     32  C   UNL     1      -4.379   3.946  25.257  0.00  0.00    +0.021 A 
ATOM     33  C   UNL     1      -4.045   4.020  26.008  0.00  0.00    +0.003 A 
ATOM     34  C   UNL     1      -3.226   4.073  26.092  0.00  0.00    +0.017 A 
ENDBRANCH  28  29
ENDBRANCH  27  28
ENDBRANCH   2  25
ENDBRANCH   3   2
TORSDOF 6
ENDMDL
MODEL 10
REMARK VINA RESULT:      -8.9      2.138      6.380
REMARK  Name = 
REMARK  6 active torsions:
REMARK  status: ('A' for Active; 'I' for Inactive)
REMARK    1  A    between atoms: C_2  and  C_3
REMARK    2  A    between atoms: C_2  and  C_25
REMARK    3  A    between atoms: C_10  and  N_11
REMARK    4  A    between atoms: C_12  and  C_14
REMARK    5  A    between atoms: N_27  and  C_28
REMARK    6  A    between atoms: C_28  and  C_29
REMARK                            x       y       z     vdW  Elec       q    Type
REMARK                         _______ _______ _______ _____ _____    ______ ____
ROOT
ATOM      3  C   UNL     1      -0.491  -0.951  24.846  0.00  0.00    +0.039 C 
ATOM      4  C   UNL     1      -0.082  -1.025  24.132  0.00  0.00    +0.003 C 
ATOM      5  C   UNL     1       0.140  -0.350  23.713  0.00  0.00    +0.000 C 
ATOM      6  C   UNL     1      -0.047   0.397  24.006  0.00  0.00    +0.002 C 
ATOM      7  C   UNL     1       0.362   0.324  23.294  0.00  0.00    +0.000 C 
ATOM      8  C   UNL     1       0.175   1.073  23.587  0.00  0.00    +0.002 C 
ATOM      9  C   UNL     1      -0.012   1.820  23.880  0.00  0.00    +0.022 C 
ATOM     10  C   UNL     1      -0.422   1.894  24.594  0.00  0.00    +0.096 C 
ATOM     20  C   UNL     1      -0.643   1.219  25.013  0.00  0.00    +0.022 C 
ATOM     21  C   UNL     1      -1.052   1.292  25.725  0.00  0.00    +0.002 C 
ATOM     22  C   UNL     1      -0.456   0.471  24.720  0.00  0.00    +0.032 C 
ATOM     23  C   UNL     1      -0.678  -0.204  25.139  0.00  0.00    +0.152 C 
ATOM     24  O   UNL     1      -1.087  -0.131  25.851  0.00  0.00    -0.223 OA
ENDROOT
BRANCH  10  11
ATOM     11  N   UNL     1      -0.608   2.642  24.887  0.00  0.00    -0.202 NA
ATOM     12  C   UNL     1      -1.024   3.177  24.418  0.00  0.00    +0.284 C 
ATOM     13  O   UNL     1      -1.255   2.964  23.653  0.00  0.00    -0.267 OA
BRANCH  12  14
ATOM     14  C   UNL     1      -1.211   3.926  24.710  0.00  0.00    +0.155 A 
ATOM     15  C   UNL     1      -0.653   4.532  24.682  0.00  0.00    +0.123 A 
ATOM     16  N   UNL     1      -0.840   5.280  24.975  0.00  0.00    -0.239 NA
ATOM     17  C   UNL     1      -1.586   5.422  25.297  0.00  0.00    +0.120 A 
ATOM     18  C   UNL     1      -2.145   4.815  25.326  0.00  0.00    +0.120 A 
ATOM     19  N   UNL     1      -1.957   4.068  25.033  0.00  0.00    -0.236 NA
ENDBRANCH  12  14
ENDBRANCH  10  11
BRANCH   3   2
ATOM      1  C   UNL     1      -0.376  -1.786  26.001  0.00  0.00    +0.010 C 
ATOM      2  C   UNL     1      -0.713  -1.627  25.265  0.00  0.00    +0.081 C 
BRANCH   2  25
ATOM     25  C   UNL     1      -1.272  -2.143  24.947  0.00  0.00    +0.241 C 
ATOM     26  O   UNL     1      -1.028  -2.840  24.578  0.00  0.00    -0.273 OA
ATOM     27  N   UNL     1      -2.077  -1.964  24.998  0.00  0.00    -0.199 NA
BRANCH  27  28
ATOM     28  C   UNL     1      -2.635  -2.480  24.681  0.00  0.00    +0.160 C 
BRANCH  28  29
ATOM     29  C   UNL     1      -3.359  -2.190  24.412  0.00  0.00    +0.081 A 
ATOM     30  N   UNL     1      -3.665  -1.489  24.723  0.00  0.00    -0.246 NA
ATOM     31  C   UNL     1      -4.389  -1.201  24.453  0.00  0.00    +0.099 A 
ATOM     32  C   UNL     1      -4.808  -1.612  23.873  0.00  0.00    +0.021 A 
ATOM     33  C   UNL     1      -4.502  -2.312  23.563  0.00  0.00    +0.003 A 
ATOM     34  C   UNL     1      -3.777  -2.602  23.832  0.00  0.00    +0.017 A 
ENDBRANCH  28  29
ENDBRANCH  27  28
ENDBRANCH   2  25
ENDBRANCH   3   2
TORSDOF 6
ENDMDL
