MODEL 1
REMARK VINA RESULT:     -10.9      0.000      0.000
REMARK  Name = 
REMARK  4 active torsions:
REMARK  status: ('A' for Active; 'I' for Inactive)
REMARK    1  A    between atoms: C_5  and  N_8
REMARK    2  A    between atoms: C_12  and  C_13
REMARK    3  A    between atoms: C_15  and  C_18
REMARK    4  A    between atoms: C_21  and  N_24
REMARK                            x       y       z     vdW  Elec       q    Type
REMARK                         _______ _______ _______ _____ _____    ______ ____
ROOT
ATOM     13  C   UNL     1      -2.057   2.615  24.291  0.00  0.00    +0.251 A 
ATOM     14  N   UNL     1      -2.204   1.888  24.655  0.00  0.00    -0.190 NA
ATOM     15  C   UNL     1      -2.480   1.367  24.079  0.00  0.00    +0.205 A 
ATOM     16  N   UNL     1      -2.504   1.770  23.360  0.00  0.00    -0.056 NA
ATOM     17  O   UNL     1      -2.242   2.540  23.491  0.00  0.00    -0.336 OA
ENDROOT
BRANCH  15  18
ATOM     18  C   UNL     1      -2.695   0.579  24.200  0.00  0.00    +0.058 A 
ATOM     19  C   UNL     1      -3.477   0.343  24.084  0.00  0.00    +0.008 A 
ATOM     20  C   UNL     1      -3.692  -0.445  24.206  0.00  0.00    +0.038 A 
ATOM     21  C   UNL     1      -3.125  -0.995  24.444  0.00  0.00    +0.149 A 
ATOM     22  N   UNL     1      -2.343  -0.758  24.561  0.00  0.00    -0.226 NA
ATOM     23  C   UNL     1      -2.128   0.029  24.439  0.00  0.00    +0.104 A 
BRANCH  21  24
ATOM     24  N   UNL     1      -3.340  -1.782  24.566  0.00  0.00    -0.271 N 
ATOM     25  C   UNL     1      -3.728  -2.269  24.024  0.00  0.00    +0.104 A 
ATOM     26  C   UNL     1      -3.833  -3.008  24.374  0.00  0.00    +0.120 A 
ATOM     27  N   UNL     1      -3.509  -2.980  25.132  0.00  0.00    -0.222 NA
ATOM     28  C   UNL     1      -3.204  -2.221  25.251  0.00  0.00    +0.184 A 
ENDBRANCH  21  24
ENDBRANCH  15  18
BRANCH  13  12
ATOM      8  N   UNL     1      -2.229   3.849  25.069  0.00  0.00    -0.268 NA
ATOM      9  C   UNL     1      -1.723   4.437  25.352  0.00  0.00    +0.072 C 
ATOM     10  C   UNL     1      -0.955   4.244  25.121  0.00  0.00    +0.019 C 
ATOM     11  C   UNL     1      -0.986   3.538  24.695  0.00  0.00    +0.027 C 
ATOM     12  C   UNL     1      -1.774   3.294  24.663  0.00  0.00    +0.138 C 
BRANCH   8   5
ATOM      1  C   UNL     1      -5.501   3.742  25.487  0.00  0.00    +0.090 C 
ATOM      2  N   UNL     1      -4.682   3.769  25.383  0.00  0.00    -0.271 NA
ATOM      3  C   UNL     1      -4.181   3.516  25.987  0.00  0.00    +0.074 C 
ATOM      4  C   UNL     1      -3.363   3.543  25.883  0.00  0.00    +0.033 C 
ATOM      5  C   UNL     1      -3.046   3.823  25.173  0.00  0.00    +0.061 C 
ATOM      6  C   UNL     1      -3.549   4.075  24.570  0.00  0.00    +0.033 C 
ATOM      7  C   UNL     1      -4.366   4.049  24.674  0.00  0.00    +0.074 C 
ENDBRANCH   8   5
ENDBRANCH  13  12
TORSDOF 4
ENDMDL
MODEL 2
REMARK VINA RESULT:     -10.8      1.000      2.293
REMARK  Name = 
REMARK  4 active torsions:
REMARK  status: ('A' for Active; 'I' for Inactive)
REMARK    1  A    between atoms: C_5  and  N_8
REMARK    2  A    between atoms: C_12  and  C_13
REMARK    3  A    between atoms: C_15  and  C_18
REMARK    4  A    between atoms: C_21  and  N_24
REMARK                            x       y       z     vdW  Elec       q    Type
REMARK                         _______ _______ _______ _____ _____    ______ ____
ROOT
ATOM     13  C   UNL     1      -3.238   2.709  24.865  0.00  0.00    +0.251 A 
ATOM     14  N   UNL     1      -3.267   1.916  25.091  0.00  0.00    -0.190 NA
ATOM     15  C   UNL     1      -3.440   1.467  24.421  0.00  0.00    +0.205 A 
ATOM     16  N   UNL     1      -3.518   1.982  23.782  0.00  0.00    -0.056 NA
ATOM     17  O   UNL     1      -3.393   2.749  24.056  0.00  0.00    -0.336 OA
ENDROOT
BRANCH  15  18
ATOM     18  C   UNL     1      -3.521   0.646  24.395  0.00  0.00    +0.058 A 
ATOM     19  C   UNL     1      -4.237   0.296  24.610  0.00  0.00    +0.008 A 
ATOM     20  C   UNL     1      -4.318  -0.525  24.584  0.00  0.00    +0.038 A 
ATOM     21  C   UNL     1      -3.684  -0.995  24.344  0.00  0.00    +0.149 A 
ATOM     22  N   UNL     1      -2.969  -0.645  24.130  0.00  0.00    -0.226 NA
ATOM     23  C   UNL     1      -2.887   0.176  24.155  0.00  0.00    +0.104 A 
BRANCH  21  24
ATOM     24  N   UNL     1      -3.765  -1.816  24.318  0.00  0.00    -0.271 N 
ATOM     25  C   UNL     1      -3.378  -2.358  24.806  0.00  0.00    +0.104 A 
ATOM     26  C   UNL     1      -3.621  -3.116  24.590  0.00  0.00    +0.120 A 
ATOM     27  N   UNL     1      -4.159  -3.043  23.968  0.00  0.00    -0.222 NA
ATOM     28  C   UNL     1      -4.248  -2.239  23.800  0.00  0.00    +0.184 A 
ENDBRANCH  21  24
ENDBRANCH  15  18
BRANCH  13  12
ATOM      8  N   UNL     1      -2.334   3.631  25.566  0.00  0.00    -0.268 NA
ATOM      9  C   UNL     1      -2.434   4.276  26.072  0.00  0.00    +0.072 C 
ATOM     10  C   UNL     1      -3.244   4.391  26.180  0.00  0.00    +0.019 C 
ATOM     11  C   UNL     1      -3.644   3.818  25.741  0.00  0.00    +0.027 C 
ATOM     12  C   UNL     1      -3.081   3.349  25.362  0.00  0.00    +0.138 C 
BRANCH   8   5
ATOM      1  C   UNL     1       0.553   2.402  24.542  0.00  0.00    +0.090 C 
ATOM      2  N   UNL     1      -0.170   2.710  24.799  0.00  0.00    -0.271 NA
ATOM      3  C   UNL     1      -0.578   3.250  24.327  0.00  0.00    +0.074 C 
ATOM      4  C   UNL     1      -1.299   3.557  24.583  0.00  0.00    +0.033 C 
ATOM      5  C   UNL     1      -1.613   3.324  25.310  0.00  0.00    +0.061 C 
ATOM      6  C   UNL     1      -1.204   2.784  25.781  0.00  0.00    +0.033 C 
ATOM      7  C   UNL     1      -0.482   2.477  25.525  0.00  0.00    +0.074 C 
ENDBRANCH   8   5
ENDBRANCH  13  12
TORSDOF 4
ENDMDL
MODEL 3
REMARK VINA RESULT:     -10.6      0.943      2.130
REMARK  Name = 
REMARK  4 active torsions:
REMARK  status: ('A' for Active; 'I' for Inactive)
REMARK    1  A    between atoms: C_5  and  N_8
REMARK    2  A    between atoms: C_12  and  C_13
REMARK    3  A    between atoms: C_15  and  C_18
REMARK    4  A    between atoms: C_21  and  N_24
REMARK                            x       y       z     vdW  Elec       q    Type
REMARK                         _______ _______ _______ _____ _____    ______ ____
ROOT
ATOM     13  C   UNL     1      -4.313   2.400  24.646  0.00  0.00    +0.251 A 
ATOM     14  N   UNL     1      -4.174   1.636  24.927  0.00  0.00    -0.190 NA
ATOM     15  C   UNL     1      -3.849   1.193  24.312  0.00  0.00    +0.205 A 
ATOM     16  N   UNL     1      -3.787   1.682  23.651  0.00  0.00    -0.056 NA
ATOM     17  O   UNL     1      -4.073   2.427  23.857  0.00  0.00    -0.336 OA
ENDROOT
BRANCH  15  18
ATOM     18  C   UNL     1      -3.626   0.400  24.352  0.00  0.00    +0.058 A 
ATOM     19  C   UNL     1      -4.184  -0.193  24.220  0.00  0.00    +0.008 A 
ATOM     20  C   UNL     1      -3.961  -0.987  24.260  0.00  0.00    +0.038 A 
ATOM     21  C   UNL     1      -3.179  -1.187  24.431  0.00  0.00    +0.149 A 
ATOM     22  N   UNL     1      -2.620  -0.594  24.562  0.00  0.00    -0.226 NA
ATOM     23  C   UNL     1      -2.844   0.199  24.523  0.00  0.00    +0.104 A 
BRANCH  21  24
ATOM     24  N   UNL     1      -2.955  -1.980  24.470  0.00  0.00    -0.271 N 
ATOM     25  C   UNL     1      -3.464  -2.624  24.559  0.00  0.00    +0.104 A 
ATOM     26  C   UNL     1      -3.007  -3.311  24.571  0.00  0.00    +0.120 A 
ATOM     27  N   UNL     1      -2.216  -3.091  24.491  0.00  0.00    -0.222 NA
ATOM     28  C   UNL     1      -2.184  -2.269  24.429  0.00  0.00    +0.184 A 
ENDBRANCH  21  24
ENDBRANCH  15  18
BRANCH  13  12
ATOM      8  N   UNL     1      -4.214   3.650  25.410  0.00  0.00    -0.268 NA
ATOM      9  C   UNL     1      -4.752   4.146  25.791  0.00  0.00    +0.072 C 
ATOM     10  C   UNL     1      -5.506   3.826  25.694  0.00  0.00    +0.019 C 
ATOM     11  C   UNL     1      -5.434   3.132  25.253  0.00  0.00    +0.027 C 
ATOM     12  C   UNL     1      -4.634   3.024  25.077  0.00  0.00    +0.138 C 
BRANCH   8   5
ATOM      1  C   UNL     1      -0.947   4.096  25.246  0.00  0.00    +0.090 C 
ATOM      2  N   UNL     1      -1.765   3.985  25.287  0.00  0.00    -0.271 NA
ATOM      3  C   UNL     1      -2.097   3.604  25.940  0.00  0.00    +0.074 C 
ATOM      4  C   UNL     1      -2.913   3.493  25.981  0.00  0.00    +0.033 C 
ATOM      5  C   UNL     1      -3.398   3.762  25.369  0.00  0.00    +0.061 C 
ATOM      6  C   UNL     1      -3.065   4.142  24.717  0.00  0.00    +0.033 C 
ATOM      7  C   UNL     1      -2.248   4.253  24.676  0.00  0.00    +0.074 C 
ENDBRANCH   8   5
ENDBRANCH  13  12
TORSDOF 4
ENDMDL
MODEL 4
REMARK VINA RESULT:     -10.1      2.599      4.678
REMARK  Name = 
REMARK  4 active torsions:
REMARK  status: ('A' for Active; 'I' for Inactive)
REMARK    1  A    between atoms: C_5  and  N_8
REMARK    2  A    between atoms: C_12  and  C_13
REMARK    3  A    between atoms: C_15  and  C_18
REMARK    4  A    between atoms: C_21  and  N_24
REMARK                            x       y       z     vdW  Elec       q    Type
REMARK                         _______ _______ _______ _____ _____    ______ ____
ROOT
ATOM     13  C   UNL     1      -2.497   0.726  24.909  0.00  0.00    +0.251 A 
ATOM     14  N   UNL     1      -1.962   0.702  24.281  0.00  0.00    -0.190 NA
ATOM     15  C   UNL     1      -1.221   0.503  24.584  0.00  0.00    +0.205 A 
ATOM     16  N   UNL     1      -1.297   0.404  25.398  0.00  0.00    -0.056 NA
ATOM     17  O   UNL     1      -2.085   0.541  25.600  0.00  0.00    -0.336 OA
ENDROOT
BRANCH  15  18
ATOM     18  C   UNL     1      -0.526   0.418  24.147  0.00  0.00    +0.058 A 
ATOM     19  C   UNL     1      -0.264  -0.334  23.931  0.00  0.00    +0.008 A 
ATOM     20  C   UNL     1       0.431  -0.419  23.495  0.00  0.00    +0.038 A 
ATOM     21  C   UNL     1       0.864   0.248  23.275  0.00  0.00    +0.149 A 
ATOM     22  N   UNL     1       0.603   1.000  23.491  0.00  0.00    -0.226 NA
ATOM     23  C   UNL     1      -0.093   1.085  23.928  0.00  0.00    +0.104 A 
BRANCH  21  24
ATOM     24  N   UNL     1       1.560   0.163  22.839  0.00  0.00    -0.271 N 
ATOM     25  C   UNL     1       2.313   0.403  23.075  0.00  0.00    +0.104 A 
ATOM     26  C   UNL     1       2.843   0.211  22.472  0.00  0.00    +0.120 A 
ATOM     27  N   UNL     1       2.417  -0.147  21.863  0.00  0.00    -0.222 NA
ATOM     28  C   UNL     1       1.623  -0.177  22.090  0.00  0.00    +0.184 A 
ENDBRANCH  21  24
ENDBRANCH  15  18
BRANCH  13  12
ATOM      8  N   UNL     1      -3.914   0.356  24.795  0.00  0.00    -0.268 NA
ATOM      9  C   UNL     1      -4.625   0.772  24.755  0.00  0.00    +0.072 C 
ATOM     10  C   UNL     1      -4.450   1.578  24.792  0.00  0.00    +0.019 C 
ATOM     11  C   UNL     1      -3.631   1.658  24.854  0.00  0.00    +0.027 C 
ATOM     12  C   UNL     1      -3.300   0.903  24.856  0.00  0.00    +0.138 C 
BRANCH   8   5
ATOM      1  C   UNL     1      -3.584  -2.928  24.721  0.00  0.00    +0.090 C 
ATOM      2  N   UNL     1      -3.667  -2.106  24.740  0.00  0.00    -0.271 NA
ATOM      3  C   UNL     1      -3.766  -1.686  24.036  0.00  0.00    +0.074 C 
ATOM      4  C   UNL     1      -3.849  -0.866  24.055  0.00  0.00    +0.033 C 
ATOM      5  C   UNL     1      -3.831  -0.465  24.776  0.00  0.00    +0.061 C 
ATOM      6  C   UNL     1      -3.732  -0.886  25.479  0.00  0.00    +0.033 C 
ATOM      7  C   UNL     1      -3.649  -1.706  25.460  0.00  0.00    +0.074 C 
ENDBRANCH   8   5
ENDBRANCH  13  12
TORSDOF 4
ENDMDL
MODEL 5
REMARK VINA RESULT:      -9.7      1.850      5.280
REMARK  Name = 
REMARK  4 active torsions:
REMARK  status: ('A' for Active; 'I' for Inactive)
REMARK    1  A    between atoms: C_5  and  N_8
REMARK    2  A    between atoms: C_12  and  C_13
REMARK    3  A    between atoms: C_15  and  C_18
REMARK    4  A    between atoms: C_21  and  N_24
REMARK                            x       y       z     vdW  Elec       q    Type
REMARK                         _______ _______ _______ _____ _____    ______ ____
ROOT
ATOM     13  C   UNL     1      -3.540  -1.171  24.305  0.00  0.00    +0.251 A 
ATOM     14  N   UNL     1      -3.758  -0.538  24.789  0.00  0.00    -0.190 NA
ATOM     15  C   UNL     1      -3.981   0.090  24.303  0.00  0.00    +0.205 A 
ATOM     16  N   UNL     1      -3.901  -0.154  23.519  0.00  0.00    -0.056 NA
ATOM     17  O   UNL     1      -3.629  -0.932  23.521  0.00  0.00    -0.336 OA
ENDROOT
BRANCH  15  18
ATOM     18  C   UNL     1      -4.239   0.832  24.556  0.00  0.00    +0.058 A 
ATOM     19  C   UNL     1      -4.892   0.892  25.056  0.00  0.00    +0.008 A 
ATOM     20  C   UNL     1      -5.150   1.634  25.309  0.00  0.00    +0.038 A 
ATOM     21  C   UNL     1      -4.754   2.315  25.063  0.00  0.00    +0.149 A 
ATOM     22  N   UNL     1      -4.101   2.254  24.563  0.00  0.00    -0.226 NA
ATOM     23  C   UNL     1      -3.843   1.512  24.310  0.00  0.00    +0.104 A 
BRANCH  21  24
ATOM     24  N   UNL     1      -5.012   3.057  25.316  0.00  0.00    -0.271 N 
ATOM     25  C   UNL     1      -4.560   3.747  25.336  0.00  0.00    +0.104 A 
ATOM     26  C   UNL     1      -5.035   4.355  25.626  0.00  0.00    +0.120 A 
ATOM     27  N   UNL     1      -5.781   4.041  25.786  0.00  0.00    -0.222 NA
ATOM     28  C   UNL     1      -5.767   3.238  25.595  0.00  0.00    +0.184 A 
ENDBRANCH  21  24
ENDBRANCH  15  18
BRANCH  13  12
ATOM      8  N   UNL     1      -2.499  -2.119  24.723  0.00  0.00    -0.268 NA
ATOM      9  C   UNL     1      -2.490  -2.908  24.963  0.00  0.00    +0.072 C 
ATOM     10  C   UNL     1      -3.267  -3.187  24.950  0.00  0.00    +0.019 C 
ATOM     11  C   UNL     1      -3.755  -2.570  24.702  0.00  0.00    +0.027 C 
ATOM     12  C   UNL     1      -3.280  -1.910  24.562  0.00  0.00    +0.138 C 
BRANCH   8   5
ATOM      1  C   UNL     1       0.133  -0.146  24.454  0.00  0.00    +0.090 C 
ATOM      2  N   UNL     1      -0.525  -0.640  24.521  0.00  0.00    -0.271 NA
ATOM      3  C   UNL     1      -0.931  -0.690  25.238  0.00  0.00    +0.074 C 
ATOM      4  C   UNL     1      -1.589  -1.184  25.305  0.00  0.00    +0.033 C 
ATOM      5  C   UNL     1      -1.841  -1.626  24.656  0.00  0.00    +0.061 C 
ATOM      6  C   UNL     1      -1.435  -1.574  23.940  0.00  0.00    +0.033 C 
ATOM      7  C   UNL     1      -0.777  -1.081  23.872  0.00  0.00    +0.074 C 
ENDBRANCH   8   5
ENDBRANCH  13  12
TORSDOF 4
ENDMDL
MODEL 6
REMARK VINA RESULT:      -9.3      2.675      4.140
REMARK  Name = 
REMARK  4 active torsions:
REMARK  status: ('A' for Active; 'I' for Inactive)
REMARK    1  A    between atoms: C_5  and  N_8
REMARK    2  A    between atoms: C_12  and  C_13
REMARK    3  A    between atoms: C_15  and  C_18
REMARK    4  A    between atoms: C_21  and  N_24
REMARK                            x       y       z     vdW  Elec       q    Type
REMARK                         _______ _______ _______ _____ _____    ______ ____
ROOT
ATOM     13  C   UNL     1      -2.487   0.152  24.804  0.00  0.00    +0.251 A 
ATOM     14  N   UNL     1      -1.928   0.072  24.202  0.00  0.00    -0.190 NA
ATOM     15  C   UNL     1      -1.186   0.244  24.519  0.00  0.00    +0.205 A 
ATOM     16  N   UNL     1      -1.287   0.430  25.316  0.00  0.00    -0.056 NA
ATOM     17  O   UNL     1      -2.090   0.373  25.492  0.00  0.00    -0.336 OA
ENDROOT
BRANCH  15  18
ATOM     18  C   UNL     1      -0.469   0.231  24.110  0.00  0.00    +0.058 A 
ATOM     19  C   UNL     1      -0.101   0.940  23.902  0.00  0.00    +0.008 A 
ATOM     20  C   UNL     1       0.615   0.927  23.493  0.00  0.00    +0.038 A 
ATOM     21  C   UNL     1       0.963   0.207  23.292  0.00  0.00    +0.149 A 
ATOM     22  N   UNL     1       0.595  -0.501  23.500  0.00  0.00    -0.226 NA
ATOM     23  C   UNL     1      -0.121  -0.489  23.909  0.00  0.00    +0.104 A 
BRANCH  21  24
ATOM     24  N   UNL     1       1.680   0.195  22.883  0.00  0.00    -0.271 N 
ATOM     25  C   UNL     1       2.390   0.531  23.138  0.00  0.00    +0.104 A 
ATOM     26  C   UNL     1       2.961   0.388  22.560  0.00  0.00    +0.120 A 
ATOM     27  N   UNL     1       2.605  -0.037  21.949  0.00  0.00    -0.222 NA
ATOM     28  C   UNL     1       1.813  -0.156  22.149  0.00  0.00    +0.184 A 
ENDBRANCH  21  24
ENDBRANCH  15  18
BRANCH  13  12
ATOM      8  N   UNL     1      -3.866   0.616  24.601  0.00  0.00    -0.268 NA
ATOM      9  C   UNL     1      -4.605   0.252  24.563  0.00  0.00    +0.072 C 
ATOM     10  C   UNL     1      -4.495  -0.559  24.668  0.00  0.00    +0.019 C 
ATOM     11  C   UNL     1      -3.688  -0.695  24.771  0.00  0.00    +0.027 C 
ATOM     12  C   UNL     1      -3.299   0.032  24.730  0.00  0.00    +0.138 C 
BRANCH   8   5
ATOM      1  C   UNL     1      -3.280   3.850  24.293  0.00  0.00    +0.090 C 
ATOM      2  N   UNL     1      -3.427   3.041  24.370  0.00  0.00    -0.271 NA
ATOM      3  C   UNL     1      -3.562   2.716  25.116  0.00  0.00    +0.074 C 
ATOM      4  C   UNL     1      -3.708   1.908  25.193  0.00  0.00    +0.033 C 
ATOM      5  C   UNL     1      -3.720   1.424  24.524  0.00  0.00    +0.061 C 
ATOM      6  C   UNL     1      -3.584   1.750  23.779  0.00  0.00    +0.033 C 
ATOM      7  C   UNL     1      -3.438   2.558  23.702  0.00  0.00    +0.074 C 
ENDBRANCH   8   5
ENDBRANCH  13  12
TORSDOF 4
ENDMDL
