MODEL 1
REMARK VINA RESULT:     -10.5      0.000      0.000
REMARK  Name = 
REMARK  8 active torsions:
REMARK  status: ('A' for Active; 'I' for Inactive)
REMARK    1  A    between atoms: C_2  and  C_3
REMARK    2  A    between atoms: C_2  and  C_27
REMARK    3  A    between atoms: C_10  and  N_11
REMARK    4  A    between atoms: C_12  and  C_14
REMARK    5  A    between atoms: C_14  and  O_15
REMARK    6  A    between atoms: O_15  and  C_16
REMARK    7  A    between atoms: N_29  and  C_30
REMARK    8  A    between atoms: C_30  and  C_31
REMARK                            x       y       z     vdW  Elec       q    Type
REMARK                         _______ _______ _______ _____ _____    ______ ____
ROOT
ATOM      3  C   UNL     1      -2.922  -1.010  25.172  0.00  0.00    +0.039 C 
ATOM      4  C   UNL     1      -2.971  -1.777  24.868  0.00  0.00    +0.003 C 
ATOM      5  C   UNL     1      -2.326  -2.106  24.475  0.00  0.00    +0.000 C 
ATOM      6  C   UNL     1      -1.632  -1.671  24.384  0.00  0.00    +0.002 C 
ATOM      7  C   UNL     1      -1.681  -2.436  24.081  0.00  0.00    +0.000 C 
ATOM      8  C   UNL     1      -0.986  -2.000  23.990  0.00  0.00    +0.002 C 
ATOM      9  C   UNL     1      -0.292  -1.564  23.898  0.00  0.00    +0.022 C 
ATOM     10  C   UNL     1      -0.243  -0.798  24.202  0.00  0.00    +0.095 C 
ATOM     22  C   UNL     1      -0.888  -0.468  24.595  0.00  0.00    +0.022 C 
ATOM     23  C   UNL     1      -0.839   0.298  24.898  0.00  0.00    +0.002 C 
ATOM     24  C   UNL     1      -1.583  -0.904  24.687  0.00  0.00    +0.032 C 
ATOM     25  C   UNL     1      -2.228  -0.575  25.080  0.00  0.00    +0.152 C 
ATOM     26  O   UNL     1      -2.179   0.191  25.383  0.00  0.00    -0.223 OA
ENDROOT
BRANCH  10  11
ATOM     11  N   UNL     1       0.452  -0.362  24.110  0.00  0.00    -0.204 NA
ATOM     12  C   UNL     1       0.792  -0.280  23.364  0.00  0.00    +0.286 C 
ATOM     13  O   UNL     1       0.438  -0.635  22.707  0.00  0.00    -0.269 OA
BRANCH  12  14
ATOM     14  C   UNL     1       1.487   0.155  23.272  0.00  0.00    +0.291 C 
BRANCH  14  15
ATOM     15  O   UNL     1       2.058  -0.087  22.729  0.00  0.00    -0.466 OA
BRANCH  15  16
ATOM     16  C   UNL     1       2.838   0.171  22.806  0.00  0.00    +0.139 A 
ATOM     17  C   UNL     1       3.430  -0.364  23.015  0.00  0.00    +0.037 A 
ATOM     18  C   UNL     1       4.210  -0.106  23.093  0.00  0.00    +0.003 A 
ATOM     19  C   UNL     1       4.398   0.686  22.961  0.00  0.00    +0.000 A 
ATOM     20  C   UNL     1       3.805   1.222  22.752  0.00  0.00    +0.003 A 
ATOM     21  C   UNL     1       3.025   0.963  22.675  0.00  0.00    +0.037 A 
ENDBRANCH  15  16
ENDBRANCH  14  15
ENDBRANCH  12  14
ENDBRANCH  10  11
BRANCH   3   2
ATOM      1  C   UNL     1      -3.635  -0.755  26.385  0.00  0.00    +0.010 C 
ATOM      2  C   UNL     1      -3.568  -0.681  25.566  0.00  0.00    +0.081 C 
BRANCH   2  27
ATOM     27  C   UNL     1      -4.148  -0.277  25.140  0.00  0.00    +0.241 C 
ATOM     28  O   UNL     1      -4.545  -0.655  24.522  0.00  0.00    -0.273 OA
ATOM     29  N   UNL     1      -4.332   0.504  25.331  0.00  0.00    -0.199 NA
BRANCH  29  30
ATOM     30  C   UNL     1      -4.912   0.907  24.906  0.00  0.00    +0.160 C 
BRANCH  30  31
ATOM     31  C   UNL     1      -5.072   1.699  25.074  0.00  0.00    +0.081 A 
ATOM     32  N   UNL     1      -5.661   1.894  25.618  0.00  0.00    -0.246 NA
ATOM     33  C   UNL     1      -5.821   2.686  25.786  0.00  0.00    +0.099 A 
ATOM     34  C   UNL     1      -5.392   3.282  25.410  0.00  0.00    +0.021 A 
ATOM     35  C   UNL     1      -4.803   3.087  24.866  0.00  0.00    +0.003 A 
ATOM     36  C   UNL     1      -4.643   2.294  24.698  0.00  0.00    +0.017 A 
ENDBRANCH  30  31
ENDBRANCH  29  30
ENDBRANCH   2  27
ENDBRANCH   3   2
TORSDOF 8
ENDMDL
MODEL 2
REMARK VINA RESULT:     -10.3      1.922      3.491
REMARK  Name = 
REMARK  8 active torsions:
REMARK  status: ('A' for Active; 'I' for Inactive)
REMARK    1  A    between atoms: C_2  and  C_3
REMARK    2  A    between atoms: C_2  and  C_27
REMARK    3  A    between atoms: C_10  and  N_11
REMARK    4  A    between atoms: C_12  and  C_14
REMARK    5  A    between atoms: C_14  and  O_15
REMARK    6  A    between atoms: O_15  and  C_16
REMARK    7  A    between atoms: N_29  and  C_30
REMARK    8  A    between atoms: C_30  and  C_31
REMARK                            x       y       z     vdW  Elec       q    Type
REMARK                         _______ _______ _______ _____ _____    ______ ____
ROOT
ATOM      3  C   UNL     1      -3.433   2.668  24.722  0.00  0.00    +0.039 C 
ATOM      4  C   UNL     1      -3.341   3.142  25.393  0.00  0.00    +0.003 C 
ATOM      5  C   UNL     1      -2.590   3.400  25.615  0.00  0.00    +0.000 C 
ATOM      6  C   UNL     1      -1.931   3.186  25.167  0.00  0.00    +0.002 C 
ATOM      7  C   UNL     1      -1.839   3.658  25.836  0.00  0.00    +0.000 C 
ATOM      8  C   UNL     1      -1.180   3.444  25.389  0.00  0.00    +0.002 C 
ATOM      9  C   UNL     1      -0.521   3.231  24.942  0.00  0.00    +0.022 C 
ATOM     10  C   UNL     1      -0.613   2.758  24.271  0.00  0.00    +0.095 C 
ATOM     22  C   UNL     1      -1.364   2.499  24.049  0.00  0.00    +0.022 C 
ATOM     23  C   UNL     1      -1.456   2.027  23.379  0.00  0.00    +0.002 C 
ATOM     24  C   UNL     1      -2.024   2.713  24.496  0.00  0.00    +0.032 C 
ATOM     25  C   UNL     1      -2.774   2.455  24.275  0.00  0.00    +0.152 C 
ATOM     26  O   UNL     1      -2.867   1.982  23.605  0.00  0.00    -0.223 OA
ENDROOT
BRANCH  10  11
ATOM     11  N   UNL     1       0.046   2.544  23.823  0.00  0.00    -0.204 NA
ATOM     12  C   UNL     1       0.653   2.103  24.166  0.00  0.00    +0.286 C 
ATOM     13  O   UNL     1       0.600   1.875  24.958  0.00  0.00    -0.269 OA
BRANCH  12  14
ATOM     14  C   UNL     1       1.312   1.889  23.719  0.00  0.00    +0.291 C 
BRANCH  14  15
ATOM     15  O   UNL     1       1.677   1.161  23.843  0.00  0.00    -0.466 OA
BRANCH  15  16
ATOM     16  C   UNL     1       2.205   0.862  23.283  0.00  0.00    +0.139 A 
ATOM     17  C   UNL     1       2.957   1.190  23.209  0.00  0.00    +0.037 A 
ATOM     18  C   UNL     1       3.485   0.891  22.649  0.00  0.00    +0.003 A 
ATOM     19  C   UNL     1       3.259   0.263  22.164  0.00  0.00    +0.000 A 
ATOM     20  C   UNL     1       2.505  -0.066  22.238  0.00  0.00    +0.003 A 
ATOM     21  C   UNL     1       1.979   0.234  22.798  0.00  0.00    +0.037 A 
ENDBRANCH  15  16
ENDBRANCH  14  15
ENDBRANCH  12  14
ENDBRANCH  10  11
BRANCH   3   2
ATOM      1  C   UNL     1      -4.596   2.800  23.901  0.00  0.00    +0.010 C 
ATOM      2  C   UNL     1      -4.185   2.410  24.500  0.00  0.00    +0.081 C 
BRANCH   2  27
ATOM     27  C   UNL     1      -4.526   1.761  24.879  0.00  0.00    +0.241 C 
ATOM     28  O   UNL     1      -5.068   1.877  25.490  0.00  0.00    -0.273 OA
ATOM     29  N   UNL     1      -4.324   0.995  24.647  0.00  0.00    -0.199 NA
BRANCH  29  30
ATOM     30  C   UNL     1      -4.664   0.347  25.025  0.00  0.00    +0.160 C 
BRANCH  30  31
ATOM     31  C   UNL     1      -4.333  -0.404  24.936  0.00  0.00    +0.081 A 
ATOM     32  N   UNL     1      -3.879  -0.729  25.543  0.00  0.00    -0.246 NA
ATOM     33  C   UNL     1      -3.548  -1.479  25.453  0.00  0.00    +0.099 A 
ATOM     34  C   UNL     1      -3.672  -1.905  24.757  0.00  0.00    +0.021 A 
ATOM     35  C   UNL     1      -4.127  -1.580  24.151  0.00  0.00    +0.003 A 
ATOM     36  C   UNL     1      -4.458  -0.829  24.240  0.00  0.00    +0.017 A 
ENDBRANCH  30  31
ENDBRANCH  29  30
ENDBRANCH   2  27
ENDBRANCH   3   2
TORSDOF 8
ENDMDL
MODEL 3
REMARK VINA RESULT:     -10.1      1.674      2.306
REMARK  Name = 
REMARK  8 active torsions:
REMARK  status: ('A' for Active; 'I' for Inactive)
REMARK    1  A    between atoms: C_2  and  C_3
REMARK    2  A    between atoms: C_2  and  C_27
REMARK    3  A    between atoms: C_10  and  N_11
REMARK    4  A    between atoms: C_12  and  C_14
REMARK    5  A    between atoms: C_14  and  O_15
REMARK    6  A    between atoms: O_15  and  C_16
REMARK    7  A    between atoms: N_29  and  C_30
REMARK    8  A    between atoms: C_30  and  C_31
REMARK                            x       y       z     vdW  Elec       q    Type
REMARK                         _______ _______ _______ _____ _____    ______ ____
ROOT
ATOM      3  C   UNL     1      -1.693   1.965  24.827  0.00  0.00    +0.039 C 
ATOM      4  C   UNL     1      -2.077   1.235  24.802  0.00  0.00    +0.003 C 
ATOM      5  C   UNL     1      -1.673   0.565  24.541  0.00  0.00    +0.000 C 
ATOM      6  C   UNL     1      -0.885   0.625  24.306  0.00  0.00    +0.002 C 
ATOM      7  C   UNL     1      -1.268  -0.104  24.280  0.00  0.00    +0.000 C 
ATOM      8  C   UNL     1      -0.480  -0.044  24.045  0.00  0.00    +0.002 C 
ATOM      9  C   UNL     1       0.308   0.015  23.809  0.00  0.00    +0.022 C 
ATOM     10  C   UNL     1       0.692   0.746  23.834  0.00  0.00    +0.095 C 
ATOM     22  C   UNL     1       0.287   1.415  24.095  0.00  0.00    +0.022 C 
ATOM     23  C   UNL     1       0.671   2.145  24.120  0.00  0.00    +0.002 C 
ATOM     24  C   UNL     1      -0.501   1.356  24.331  0.00  0.00    +0.032 C 
ATOM     25  C   UNL     1      -0.906   2.025  24.592  0.00  0.00    +0.152 C 
ATOM     26  O   UNL     1      -0.522   2.755  24.617  0.00  0.00    -0.223 OA
ENDROOT
BRANCH  10  11
ATOM     11  N   UNL     1       1.480   0.806  23.598  0.00  0.00    -0.204 NA
ATOM     12  C   UNL     1       1.784   0.284  23.037  0.00  0.00    +0.286 C 
ATOM     13  O   UNL     1       1.299  -0.300  22.711  0.00  0.00    -0.269 OA
BRANCH  12  14
ATOM     14  C   UNL     1       2.573   0.343  22.801  0.00  0.00    +0.291 C 
BRANCH  14  15
ATOM     15  O   UNL     1       3.082  -0.298  22.899  0.00  0.00    -0.466 OA
BRANCH  15  16
ATOM     16  C   UNL     1       3.871  -0.171  23.106  0.00  0.00    +0.139 A 
ATOM     17  C   UNL     1       4.258   0.513  22.856  0.00  0.00    +0.037 A 
ATOM     18  C   UNL     1       5.047   0.640  23.063  0.00  0.00    +0.003 A 
ATOM     19  C   UNL     1       5.448   0.082  23.520  0.00  0.00    +0.000 A 
ATOM     20  C   UNL     1       5.060  -0.603  23.770  0.00  0.00    +0.003 A 
ATOM     21  C   UNL     1       4.272  -0.729  23.563  0.00  0.00    +0.037 A 
ENDBRANCH  15  16
ENDBRANCH  14  15
ENDBRANCH  12  14
ENDBRANCH  10  11
BRANCH   3   2
ATOM      1  C   UNL     1      -1.791   3.092  25.703  0.00  0.00    +0.010 C 
ATOM      2  C   UNL     1      -2.099   2.635  25.089  0.00  0.00    +0.081 C 
BRANCH   2  27
ATOM     27  C   UNL     1      -2.813   2.848  24.735  0.00  0.00    +0.241 C 
ATOM     28  O   UNL     1      -2.814   3.214  23.994  0.00  0.00    -0.273 OA
ATOM     29  N   UNL     1      -3.527   2.696  25.121  0.00  0.00    -0.199 NA
BRANCH  29  30
ATOM     30  C   UNL     1      -4.240   2.909  24.768  0.00  0.00    +0.160 C 
BRANCH  30  31
ATOM     31  C   UNL     1      -4.953   2.635  25.079  0.00  0.00    +0.081 A 
ATOM     32  N   UNL     1      -5.240   2.944  25.789  0.00  0.00    -0.246 NA
ATOM     33  C   UNL     1      -5.952   2.670  26.099  0.00  0.00    +0.099 A 
ATOM     34  C   UNL     1      -6.380   2.087  25.702  0.00  0.00    +0.021 A 
ATOM     35  C   UNL     1      -6.093   1.778  24.992  0.00  0.00    +0.003 A 
ATOM     36  C   UNL     1      -5.379   2.052  24.681  0.00  0.00    +0.017 A 
ENDBRANCH  30  31
ENDBRANCH  29  30
ENDBRANCH   2  27
ENDBRANCH   3   2
TORSDOF 8
ENDMDL
MODEL 4
REMARK VINA RESULT:      -9.7      2.777      5.651
REMARK  Name = 
REMARK  8 active torsions:
REMARK  status: ('A' for Active; 'I' for Inactive)
REMARK    1  A    between atoms: C_2  and  C_3
REMARK    2  A    between atoms: C_2  and  C_27
REMARK    3  A    between atoms: C_10  and  N_11
REMARK    4  A    between atoms: C_12  and  C_14
REMARK    5  A    between atoms: C_14  and  O_15
REMARK    6  A    between atoms: O_15  and  C_16
REMARK    7  A    between atoms: N_29  and  C_30
REMARK    8  A    between atoms: C_30  and  C_31
REMARK                            x       y       z     vdW  Elec       q    Type
REMARK                         _______ _______ _______ _____ _____    ______ ____
ROOT
ATOM      3  C   UNL     1      -3.914   3.600  24.803  0.00  0.00    +0.039 C 
ATOM      4  C   UNL     1      -4.530   3.772  25.326  0.00  0.00    +0.003 C 
ATOM      5  C   UNL     1      -5.045   3.175  25.566  0.00  0.00    +0.000 C 
ATOM      6  C   UNL     1      -4.946   2.406  25.285  0.00  0.00    +0.002 C 
ATOM      7  C   UNL     1      -5.560   2.578  25.806  0.00  0.00    +0.000 C 
ATOM      8  C   UNL     1      -5.462   1.809  25.525  0.00  0.00    +0.002 C 
ATOM      9  C   UNL     1      -5.362   1.040  25.244  0.00  0.00    +0.022 C 
ATOM     10  C   UNL     1      -4.747   0.868  24.721  0.00  0.00    +0.095 C 
ATOM     22  C   UNL     1      -4.231   1.465  24.481  0.00  0.00    +0.022 C 
ATOM     23  C   UNL     1      -3.616   1.293  23.959  0.00  0.00    +0.002 C 
ATOM     24  C   UNL     1      -4.330   2.234  24.762  0.00  0.00    +0.032 C 
ATOM     25  C   UNL     1      -3.815   2.831  24.522  0.00  0.00    +0.152 C 
ATOM     26  O   UNL     1      -3.200   2.659  24.000  0.00  0.00    -0.223 OA
ENDROOT
BRANCH  10  11
ATOM     11  N   UNL     1      -4.648   0.099  24.440  0.00  0.00    -0.204 NA
ATOM     12  C   UNL     1      -4.418  -0.503  24.955  0.00  0.00    +0.286 C 
ATOM     13  O   UNL     1      -4.287  -0.336  25.753  0.00  0.00    -0.269 OA
BRANCH  12  14
ATOM     14  C   UNL     1      -4.320  -1.272  24.673  0.00  0.00    +0.291 C 
BRANCH  14  15
ATOM     15  O   UNL     1      -3.877  -1.817  25.106  0.00  0.00    -0.466 OA
BRANCH  15  16
ATOM     16  C   UNL     1      -3.337  -2.309  24.723  0.00  0.00    +0.139 A 
ATOM     17  C   UNL     1      -3.605  -2.928  24.251  0.00  0.00    +0.037 A 
ATOM     18  C   UNL     1      -3.065  -3.420  23.867  0.00  0.00    +0.003 A 
ATOM     19  C   UNL     1      -2.255  -3.291  23.957  0.00  0.00    +0.000 A 
ATOM     20  C   UNL     1      -1.985  -2.670  24.430  0.00  0.00    +0.003 A 
ATOM     21  C   UNL     1      -2.527  -2.179  24.813  0.00  0.00    +0.037 A 
ENDBRANCH  15  16
ENDBRANCH  14  15
ENDBRANCH  12  14
ENDBRANCH  10  11
BRANCH   3   2
ATOM      1  C   UNL     1      -3.557   4.631  23.879  0.00  0.00    +0.010 C 
ATOM      2  C   UNL     1      -3.398   4.198  24.563  0.00  0.00    +0.081 C 
BRANCH   2  27
ATOM     27  C   UNL     1      -2.723   4.362  25.007  0.00  0.00    +0.241 C 
ATOM     28  O   UNL     1      -2.740   4.959  25.578  0.00  0.00    -0.273 OA
ATOM     29  N   UNL     1      -2.030   3.931  24.881  0.00  0.00    -0.199 NA
BRANCH  29  30
ATOM     30  C   UNL     1      -1.356   4.096  25.325  0.00  0.00    +0.160 C 
BRANCH  30  31
ATOM     31  C   UNL     1      -0.775   3.518  25.423  0.00  0.00    +0.081 A 
ATOM     32  N   UNL     1      -0.295   3.303  24.788  0.00  0.00    -0.246 NA
ATOM     33  C   UNL     1       0.285   2.726  24.887  0.00  0.00    +0.099 A 
ATOM     34  C   UNL     1       0.386   2.363  25.621  0.00  0.00    +0.021 A 
ATOM     35  C   UNL     1      -0.094   2.578  26.257  0.00  0.00    +0.003 A 
ATOM     36  C   UNL     1      -0.675   3.157  26.158  0.00  0.00    +0.017 A 
ENDBRANCH  30  31
ENDBRANCH  29  30
ENDBRANCH   2  27
ENDBRANCH   3   2
TORSDOF 8
ENDMDL
MODEL 5
REMARK VINA RESULT:      -9.5      2.627      4.477
REMARK  Name = 
REMARK  8 active torsions:
REMARK  status: ('A' for Active; 'I' for Inactive)
REMARK    1  A    between atoms: C_2  and  C_3
REMARK    2  A    between atoms: C_2  and  C_27
REMARK    3  A    between atoms: C_10  and  N_11
REMARK    4  A    between atoms: C_12  and  C_14
REMARK    5  A    between atoms: C_14  and  O_15
REMARK    6  A    between atoms: O_15  and  C_16
REMARK    7  A    between atoms: N_29  and  C_30
REMARK    8  A    between atoms: C_30  and  C_31
REMARK                            x       y       z     vdW  Elec       q    Type
REMARK                         _______ _______ _______ _____ _____    ______ ____
ROOT
ATOM      3  C   UNL     1      -2.005   3.435  25.254  0.00  0.00    +0.039 C 
ATOM      4  C   UNL     1      -1.404   3.628  25.787  0.00  0.00    +0.003 C 
ATOM      5  C   UNL     1      -0.842   3.062  25.996  0.00  0.00    +0.000 C 
ATOM      6  C   UNL     1      -0.879   2.305  25.673  0.00  0.00    +0.002 C 
ATOM      7  C   UNL     1      -0.280   2.497  26.205  0.00  0.00    +0.000 C 
ATOM      8  C   UNL     1      -0.317   1.738  25.883  0.00  0.00    +0.002 C 
ATOM      9  C   UNL     1      -0.354   0.981  25.560  0.00  0.00    +0.022 C 
ATOM     10  C   UNL     1      -0.955   0.788  25.027  0.00  0.00    +0.095 C 
ATOM     22  C   UNL     1      -1.517   1.354  24.817  0.00  0.00    +0.022 C 
ATOM     23  C   UNL     1      -2.117   1.161  24.285  0.00  0.00    +0.002 C 
ATOM     24  C   UNL     1      -1.480   2.112  25.140  0.00  0.00    +0.032 C 
ATOM     25  C   UNL     1      -2.042   2.678  24.931  0.00  0.00    +0.152 C 
ATOM     26  O   UNL     1      -2.642   2.486  24.398  0.00  0.00    -0.223 OA
ENDROOT
BRANCH  10  11
ATOM     11  N   UNL     1      -0.992   0.030  24.704  0.00  0.00    -0.204 NA
ATOM     12  C   UNL     1      -1.038  -0.628  25.199  0.00  0.00    +0.286 C 
ATOM     13  O   UNL     1      -1.049  -0.528  26.018  0.00  0.00    -0.269 OA
BRANCH  12  14
ATOM     14  C   UNL     1      -1.075  -1.387  24.876  0.00  0.00    +0.291 C 
BRANCH  14  15
ATOM     15  O   UNL     1      -1.495  -1.981  25.264  0.00  0.00    -0.466 OA
BRANCH  15  16
ATOM     16  C   UNL     1      -2.129  -2.351  24.889  0.00  0.00    +0.139 A 
ATOM     17  C   UNL     1      -2.004  -2.788  24.201  0.00  0.00    +0.037 A 
ATOM     18  C   UNL     1      -2.639  -3.159  23.825  0.00  0.00    +0.003 A 
ATOM     19  C   UNL     1      -3.399  -3.092  24.139  0.00  0.00    +0.000 A 
ATOM     20  C   UNL     1      -3.525  -2.655  24.828  0.00  0.00    +0.003 A 
ATOM     21  C   UNL     1      -2.890  -2.285  25.202  0.00  0.00    +0.037 A 
ENDBRANCH  15  16
ENDBRANCH  14  15
ENDBRANCH  12  14
ENDBRANCH  10  11
BRANCH   3   2
ATOM      1  C   UNL     1      -2.438   4.493  24.394  0.00  0.00    +0.010 C 
ATOM      2  C   UNL     1      -2.567   4.002  25.044  0.00  0.00    +0.081 C 
BRANCH   2  27
ATOM     27  C   UNL     1      -3.260   4.078  25.487  0.00  0.00    +0.241 C 
ATOM     28  O   UNL     1      -3.262   4.534  26.175  0.00  0.00    -0.273 OA
ATOM     29  N   UNL     1      -3.950   3.698  25.241  0.00  0.00    -0.199 NA
BRANCH  29  30
ATOM     30  C   UNL     1      -4.642   3.773  25.682  0.00  0.00    +0.160 C 
BRANCH  30  31
ATOM     31  C   UNL     1      -5.207   3.173  25.670  0.00  0.00    +0.081 A 
ATOM     32  N   UNL     1      -5.483   2.851  26.378  0.00  0.00    -0.246 NA
ATOM     33  C   UNL     1      -6.048   2.251  26.365  0.00  0.00    +0.099 A 
ATOM     34  C   UNL     1      -6.338   1.972  25.645  0.00  0.00    +0.021 A 
ATOM     35  C   UNL     1      -6.062   2.293  24.937  0.00  0.00    +0.003 A 
ATOM     36  C   UNL     1      -5.496   2.894  24.950  0.00  0.00    +0.017 A 
ENDBRANCH  30  31
ENDBRANCH  29  30
ENDBRANCH   2  27
ENDBRANCH   3   2
TORSDOF 8
ENDMDL
MODEL 6
REMARK VINA RESULT:      -9.4      2.762      5.272
REMARK  Name = 
REMARK  8 active torsions:
REMARK  status: ('A' for Active; 'I' for Inactive)
REMARK    1  A    between atoms: C_2  and  C_3
REMARK    2  A    between atoms: C_2  and  C_27
REMARK    3  A    between atoms: C_10  and  N_11
REMARK    4  A    between atoms: C_12  and  C_14
REMARK    5  A    between atoms: C_14  and  O_15
REMARK    6  A    between atoms: O_15  and  C_16
REMARK    7  A    between atoms: N_29  and  C_30
REMARK    8  A    between atoms: C_30  and  C_31
REMARK                            x       y       z     vdW  Elec       q    Type
REMARK                         _______ _______ _______ _____ _____    ______ ____
ROOT
ATOM      3  C   UNL     1      -4.391  -0.182  24.321  0.00  0.00    +0.039 C 
ATOM      4  C   UNL     1      -5.090  -0.194  24.761  0.00  0.00    +0.003 C 
ATOM      5  C   UNL     1      -5.372   0.499  25.106  0.00  0.00    +0.000 C 
ATOM      6  C   UNL     1      -4.957   1.205  25.012  0.00  0.00    +0.002 C 
ATOM      7  C   UNL     1      -5.655   1.193  25.450  0.00  0.00    +0.000 C 
ATOM      8  C   UNL     1      -5.239   1.900  25.357  0.00  0.00    +0.002 C 
ATOM      9  C   UNL     1      -4.824   2.606  25.263  0.00  0.00    +0.022 C 
ATOM     10  C   UNL     1      -4.125   2.618  24.824  0.00  0.00    +0.095 C 
ATOM     22  C   UNL     1      -3.843   1.925  24.479  0.00  0.00    +0.022 C 
ATOM     23  C   UNL     1      -3.144   1.937  24.040  0.00  0.00    +0.002 C 
ATOM     24  C   UNL     1      -4.258   1.218  24.572  0.00  0.00    +0.032 C 
ATOM     25  C   UNL     1      -3.976   0.524  24.228  0.00  0.00    +0.152 C 
ATOM     26  O   UNL     1      -3.277   0.537  23.789  0.00  0.00    -0.223 OA
ENDROOT
BRANCH  10  11
ATOM     11  N   UNL     1      -3.709   3.325  24.730  0.00  0.00    -0.204 NA
ATOM     12  C   UNL     1      -3.475   3.757  25.392  0.00  0.00    +0.286 C 
ATOM     13  O   UNL     1      -3.656   3.482  26.149  0.00  0.00    -0.269 OA
BRANCH  12  14
ATOM     14  C   UNL     1      -3.060   4.464  25.298  0.00  0.00    +0.291 C 
BRANCH  14  15
ATOM     15  O   UNL     1      -2.360   4.590  25.716  0.00  0.00    -0.466 OA
BRANCH  15  16
ATOM     16  C   UNL     1      -1.686   4.859  25.323  0.00  0.00    +0.139 A 
ATOM     17  C   UNL     1      -1.039   4.358  25.225  0.00  0.00    +0.037 A 
ATOM     18  C   UNL     1      -0.365   4.626  24.832  0.00  0.00    +0.003 A 
ATOM     19  C   UNL     1      -0.339   5.396  24.536  0.00  0.00    +0.000 A 
ATOM     20  C   UNL     1      -0.988   5.898  24.634  0.00  0.00    +0.003 A 
ATOM     21  C   UNL     1      -1.661   5.628  25.027  0.00  0.00    +0.037 A 
ENDBRANCH  15  16
ENDBRANCH  14  15
ENDBRANCH  12  14
ENDBRANCH  10  11
BRANCH   3   2
ATOM      1  C   UNL     1      -4.198  -1.002  23.166  0.00  0.00    +0.010 C 
ATOM      2  C   UNL     1      -4.109  -0.876  23.976  0.00  0.00    +0.081 C 
BRANCH   2  27
ATOM     27  C   UNL     1      -3.737  -1.446  24.443  0.00  0.00    +0.241 C 
ATOM     28  O   UNL     1      -4.189  -1.996  24.862  0.00  0.00    -0.273 OA
ATOM     29  N   UNL     1      -2.913  -1.467  24.491  0.00  0.00    -0.199 NA
BRANCH  29  30
ATOM     30  C   UNL     1      -2.541  -2.037  24.956  0.00  0.00    +0.160 C 
BRANCH  30  31
ATOM     31  C   UNL     1      -1.724  -2.013  25.065  0.00  0.00    +0.081 A 
ATOM     32  N   UNL     1      -1.238  -2.543  24.661  0.00  0.00    -0.246 NA
ATOM     33  C   UNL     1      -0.421  -2.518  24.770  0.00  0.00    +0.099 A 
ATOM     34  C   UNL     1      -0.089  -1.963  25.282  0.00  0.00    +0.021 A 
ATOM     35  C   UNL     1      -0.575  -1.433  25.686  0.00  0.00    +0.003 A 
ATOM     36  C   UNL     1      -1.393  -1.457  25.577  0.00  0.00    +0.017 A 
ENDBRANCH  30  31
ENDBRANCH  29  30
ENDBRANCH   2  27
ENDBRANCH   3   2
TORSDOF 8
ENDMDL
MODEL 7
REMARK VINA RESULT:      -9.3      1.137      6.843
REMARK  Name = 
REMARK  8 active torsions:
REMARK  status: ('A' for Active; 'I' for Inactive)
REMARK    1  A    between atoms: C_2  and  C_3
REMARK    2  A    between atoms: C_2  and  C_27
REMARK    3  A    between atoms: C_10  and  N_11
REMARK    4  A    between atoms: C_12  and  C_14
REMARK    5  A    between atoms: C_14  and  O_15
REMARK    6  A    between atoms: O_15  and  C_16
REMARK    7  A    between atoms: N_29  and  C_30
REMARK    8  A    between atoms: C_30  and  C_31
REMARK                            x       y       z     vdW  Elec       q    Type
REMARK                         _______ _______ _______ _____ _____    ______ ____
ROOT
ATOM      3  C   UNL     1       0.378   0.246  23.775  0.00  0.00    +0.039 C 
ATOM      4  C   UNL     1       0.438  -0.577  23.790  0.00  0.00    +0.003 C 
ATOM      5  C   UNL     1      -0.184  -1.031  24.085  0.00  0.00    +0.000 C 
ATOM      6  C   UNL     1      -0.867  -0.662  24.364  0.00  0.00    +0.002 C 
ATOM      7  C   UNL     1      -0.807  -1.484  24.379  0.00  0.00    +0.000 C 
ATOM      8  C   UNL     1      -1.490  -1.115  24.659  0.00  0.00    +0.002 C 
ATOM      9  C   UNL     1      -2.172  -0.747  24.939  0.00  0.00    +0.022 C 
ATOM     10  C   UNL     1      -2.232   0.077  24.924  0.00  0.00    +0.095 C 
ATOM     22  C   UNL     1      -1.610   0.530  24.629  0.00  0.00    +0.022 C 
ATOM     23  C   UNL     1      -1.670   1.353  24.614  0.00  0.00    +0.002 C 
ATOM     24  C   UNL     1      -0.927   0.161  24.349  0.00  0.00    +0.032 C 
ATOM     25  C   UNL     1      -0.305   0.615  24.054  0.00  0.00    +0.152 C 
ATOM     26  O   UNL     1      -0.365   1.437  24.039  0.00  0.00    -0.223 OA
ENDROOT
BRANCH  10  11
ATOM     11  N   UNL     1      -2.916   0.445  25.204  0.00  0.00    -0.204 NA
ATOM     12  C   UNL     1      -3.651   0.242  24.893  0.00  0.00    +0.286 C 
ATOM     13  O   UNL     1      -3.705  -0.330  24.300  0.00  0.00    -0.269 OA
BRANCH  12  14
ATOM     14  C   UNL     1      -4.335   0.611  25.173  0.00  0.00    +0.291 C 
BRANCH  14  15
ATOM     15  O   UNL     1      -4.742   1.144  24.694  0.00  0.00    -0.466 OA
BRANCH  15  16
ATOM     16  C   UNL     1      -5.163   1.767  25.035  0.00  0.00    +0.139 A 
ATOM     17  C   UNL     1      -4.947   2.547  24.875  0.00  0.00    +0.037 A 
ATOM     18  C   UNL     1      -5.368   3.170  25.215  0.00  0.00    +0.003 A 
ATOM     19  C   UNL     1      -6.004   3.012  25.716  0.00  0.00    +0.000 A 
ATOM     20  C   UNL     1      -6.220   2.232  25.877  0.00  0.00    +0.003 A 
ATOM     21  C   UNL     1      -5.799   1.610  25.536  0.00  0.00    +0.037 A 
ENDBRANCH  15  16
ENDBRANCH  14  15
ENDBRANCH  12  14
ENDBRANCH  10  11
BRANCH   3   2
ATOM      1  C   UNL     1       1.047   1.504  23.656  0.00  0.00    +0.010 C 
ATOM      2  C   UNL     1       1.001   0.699  23.479  0.00  0.00    +0.081 C 
BRANCH   2  27
ATOM     27  C   UNL     1       1.578   0.347  23.007  0.00  0.00    +0.241 C 
ATOM     28  O   UNL     1       1.363  -0.038  22.309  0.00  0.00    -0.273 OA
ATOM     29  N   UNL     1       2.372   0.380  23.232  0.00  0.00    -0.199 NA
BRANCH  29  30
ATOM     30  C   UNL     1       2.949   0.029  22.760  0.00  0.00    +0.160 C 
BRANCH  30  31
ATOM     31  C   UNL     1       3.731  -0.006  23.020  0.00  0.00    +0.081 A 
ATOM     32  N   UNL     1       4.009  -0.683  23.402  0.00  0.00    -0.246 NA
ATOM     33  C   UNL     1       4.791  -0.717  23.662  0.00  0.00    +0.099 A 
ATOM     34  C   UNL     1       5.295  -0.075  23.541  0.00  0.00    +0.021 A 
ATOM     35  C   UNL     1       5.017   0.601  23.160  0.00  0.00    +0.003 A 
ATOM     36  C   UNL     1       4.234   0.636  22.899  0.00  0.00    +0.017 A 
ENDBRANCH  30  31
ENDBRANCH  29  30
ENDBRANCH   2  27
ENDBRANCH   3   2
TORSDOF 8
ENDMDL
MODEL 8
REMARK VINA RESULT:      -9.3      1.421      2.218
REMARK  Name = 
REMARK  8 active torsions:
REMARK  status: ('A' for Active; 'I' for Inactive)
REMARK    1  A    between atoms: C_2  and  C_3
REMARK    2  A    between atoms: C_2  and  C_27
REMARK    3  A    between atoms: C_10  and  N_11
REMARK    4  A    between atoms: C_12  and  C_14
REMARK    5  A    between atoms: C_14  and  O_15
REMARK    6  A    between atoms: O_15  and  C_16
REMARK    7  A    between atoms: N_29  and  C_30
REMARK    8  A    between atoms: C_30  and  C_31
REMARK                            x       y       z     vdW  Elec       q    Type
REMARK                         _______ _______ _______ _____ _____    ______ ____
ROOT
ATOM      3  C   UNL     1      -4.286   0.482  24.938  0.00  0.00    +0.039 C 
ATOM      4  C   UNL     1      -4.362  -0.044  25.571  0.00  0.00    +0.003 C 
ATOM      5  C   UNL     1      -3.766  -0.592  25.724  0.00  0.00    +0.000 C 
ATOM      6  C   UNL     1      -3.094  -0.615  25.247  0.00  0.00    +0.002 C 
ATOM      7  C   UNL     1      -3.170  -1.140  25.878  0.00  0.00    +0.000 C 
ATOM      8  C   UNL     1      -2.497  -1.164  25.401  0.00  0.00    +0.002 C 
ATOM      9  C   UNL     1      -1.825  -1.187  24.924  0.00  0.00    +0.022 C 
ATOM     10  C   UNL     1      -1.749  -0.661  24.292  0.00  0.00    +0.095 C 
ATOM     22  C   UNL     1      -2.345  -0.113  24.138  0.00  0.00    +0.022 C 
ATOM     23  C   UNL     1      -2.270   0.413  23.506  0.00  0.00    +0.002 C 
ATOM     24  C   UNL     1      -3.018  -0.089  24.615  0.00  0.00    +0.032 C 
ATOM     25  C   UNL     1      -3.615   0.459  24.461  0.00  0.00    +0.152 C 
ATOM     26  O   UNL     1      -3.539   0.984  23.830  0.00  0.00    -0.223 OA
ENDROOT
BRANCH  10  11
ATOM     11  N   UNL     1      -1.076  -0.684  23.814  0.00  0.00    -0.204 NA
ATOM     12  C   UNL     1      -0.333  -0.543  24.142  0.00  0.00    +0.286 C 
ATOM     13  O   UNL     1      -0.261  -0.378  24.948  0.00  0.00    -0.269 OA
BRANCH  12  14
ATOM     14  C   UNL     1       0.340  -0.567  23.664  0.00  0.00    +0.291 C 
BRANCH  14  15
ATOM     15  O   UNL     1       0.737   0.131  23.475  0.00  0.00    -0.466 OA
BRANCH  15  16
ATOM     16  C   UNL     1       1.413   0.107  23.002  0.00  0.00    +0.139 A 
ATOM     17  C   UNL     1       2.118   0.436  23.273  0.00  0.00    +0.037 A 
ATOM     18  C   UNL     1       2.794   0.412  22.801  0.00  0.00    +0.003 A 
ATOM     19  C   UNL     1       2.763   0.058  22.056  0.00  0.00    +0.000 A 
ATOM     20  C   UNL     1       2.057  -0.271  21.784  0.00  0.00    +0.003 A 
ATOM     21  C   UNL     1       1.382  -0.247  22.258  0.00  0.00    +0.037 A 
ENDBRANCH  15  16
ENDBRANCH  14  15
ENDBRANCH  12  14
ENDBRANCH  10  11
BRANCH   3   2
ATOM      1  C   UNL     1      -5.427   0.892  24.179  0.00  0.00    +0.010 C 
ATOM      2  C   UNL     1      -4.884   1.030  24.785  0.00  0.00    +0.081 C 
BRANCH   2  27
ATOM     27  C   UNL     1      -4.938   1.718  25.238  0.00  0.00    +0.241 C 
ATOM     28  O   UNL     1      -5.483   1.762  25.856  0.00  0.00    -0.273 OA
ATOM     29  N   UNL     1      -4.448   2.361  25.073  0.00  0.00    -0.199 NA
BRANCH  29  30
ATOM     30  C   UNL     1      -4.502   3.047  25.526  0.00  0.00    +0.160 C 
BRANCH  30  31
ATOM     31  C   UNL     1      -3.874   3.582  25.543  0.00  0.00    +0.081 A 
ATOM     32  N   UNL     1      -3.658   3.988  24.858  0.00  0.00    -0.246 NA
ATOM     33  C   UNL     1      -3.030   4.521  24.876  0.00  0.00    +0.099 A 
ATOM     34  C   UNL     1      -2.617   4.650  25.578  0.00  0.00    +0.021 A 
ATOM     35  C   UNL     1      -2.833   4.244  26.263  0.00  0.00    +0.003 A 
ATOM     36  C   UNL     1      -3.462   3.709  26.246  0.00  0.00    +0.017 A 
ENDBRANCH  30  31
ENDBRANCH  29  30
ENDBRANCH   2  27
ENDBRANCH   3   2
TORSDOF 8
ENDMDL
MODEL 9
REMARK VINA RESULT:      -9.2      1.788      3.173
REMARK  Name = 
REMARK  8 active torsions:
REMARK  status: ('A' for Active; 'I' for Inactive)
REMARK    1  A    between atoms: C_2  and  C_3
REMARK    2  A    between atoms: C_2  and  C_27
REMARK    3  A    between atoms: C_10  and  N_11
REMARK    4  A    between atoms: C_12  and  C_14
REMARK    5  A    between atoms: C_14  and  O_15
REMARK    6  A    between atoms: O_15  and  C_16
REMARK    7  A    between atoms: N_29  and  C_30
REMARK    8  A    between atoms: C_30  and  C_31
REMARK                            x       y       z     vdW  Elec       q    Type
REMARK                         _______ _______ _______ _____ _____    ______ ____
ROOT
ATOM      3  C   UNL     1      -2.164   1.691  23.990  0.00  0.00    +0.039 C 
ATOM      4  C   UNL     1      -2.019   2.277  24.555  0.00  0.00    +0.003 C 
ATOM      5  C   UNL     1      -1.250   2.415  24.818  0.00  0.00    +0.000 C 
ATOM      6  C   UNL     1      -0.625   1.969  24.517  0.00  0.00    +0.002 C 
ATOM      7  C   UNL     1      -0.481   2.553  25.080  0.00  0.00    +0.000 C 
ATOM      8  C   UNL     1       0.145   2.107  24.779  0.00  0.00    +0.002 C 
ATOM      9  C   UNL     1       0.770   1.662  24.478  0.00  0.00    +0.022 C 
ATOM     10  C   UNL     1       0.625   1.077  23.913  0.00  0.00    +0.095 C 
ATOM     22  C   UNL     1      -0.144   0.938  23.651  0.00  0.00    +0.022 C 
ATOM     23  C   UNL     1      -0.288   0.354  23.087  0.00  0.00    +0.002 C 
ATOM     24  C   UNL     1      -0.770   1.384  23.952  0.00  0.00    +0.032 C 
ATOM     25  C   UNL     1      -1.539   1.246  23.689  0.00  0.00    +0.152 C 
ATOM     26  O   UNL     1      -1.683   0.661  23.125  0.00  0.00    -0.223 OA
ENDROOT
BRANCH  10  11
ATOM     11  N   UNL     1       1.251   0.631  23.612  0.00  0.00    -0.204 NA
ATOM     12  C   UNL     1       1.957   1.000  23.401  0.00  0.00    +0.286 C 
ATOM     13  O   UNL     1       2.038   1.817  23.490  0.00  0.00    -0.269 OA
BRANCH  12  14
ATOM     14  C   UNL     1       2.583   0.555  23.100  0.00  0.00    +0.291 C 
BRANCH  14  15
ATOM     15  O   UNL     1       3.316   0.908  22.970  0.00  0.00    -0.466 OA
BRANCH  15  16
ATOM     16  C   UNL     1       4.010   0.499  23.154  0.00  0.00    +0.139 A 
ATOM     17  C   UNL     1       4.715   0.912  23.264  0.00  0.00    +0.037 A 
ATOM     18  C   UNL     1       5.408   0.504  23.448  0.00  0.00    +0.003 A 
ATOM     19  C   UNL     1       5.395  -0.318  23.521  0.00  0.00    +0.000 A 
ATOM     20  C   UNL     1       4.689  -0.731  23.410  0.00  0.00    +0.003 A 
ATOM     21  C   UNL     1       3.997  -0.322  23.227  0.00  0.00    +0.037 A 
ENDBRANCH  15  16
ENDBRANCH  14  15
ENDBRANCH  12  14
ENDBRANCH  10  11
BRANCH   3   2
ATOM      1  C   UNL     1      -3.189   1.867  23.009  0.00  0.00    +0.010 C 
ATOM      2  C   UNL     1      -2.934   1.553  23.728  0.00  0.00    +0.081 C 
BRANCH   2  27
ATOM     27  C   UNL     1      -3.450   1.101  24.186  0.00  0.00    +0.241 C 
ATOM     28  O   UNL     1      -3.903   1.460  24.775  0.00  0.00    -0.273 OA
ATOM     29  N   UNL     1      -3.514   0.288  24.054  0.00  0.00    -0.199 NA
BRANCH  29  30
ATOM     30  C   UNL     1      -4.030  -0.164  24.511  0.00  0.00    +0.160 C 
BRANCH  30  31
ATOM     31  C   UNL     1      -3.975  -0.987  24.504  0.00  0.00    +0.081 A 
ATOM     32  N   UNL     1      -4.288  -1.416  23.873  0.00  0.00    -0.246 NA
ATOM     33  C   UNL     1      -4.232  -2.239  23.867  0.00  0.00    +0.099 A 
ATOM     34  C   UNL     1      -3.864  -2.633  24.491  0.00  0.00    +0.021 A 
ATOM     35  C   UNL     1      -3.551  -2.204  25.122  0.00  0.00    +0.003 A 
ATOM     36  C   UNL     1      -3.606  -1.380  25.129  0.00  0.00    +0.017 A 
ENDBRANCH  30  31
ENDBRANCH  29  30
ENDBRANCH   2  27
ENDBRANCH   3   2
TORSDOF 8
ENDMDL
MODEL 10
REMARK VINA RESULT:      -6.9     14.278     17.983
REMARK  Name = 
REMARK  8 active torsions:
REMARK  status: ('A' for Active; 'I' for Inactive)
REMARK    1  A    between atoms: C_2  and  C_3
REMARK    2  A    between atoms: C_2  and  C_27
REMARK    3  A    between atoms: C_10  and  N_11
REMARK    4  A    between atoms: C_12  and  C_14
REMARK    5  A    between atoms: C_14  and  O_15
REMARK    6  A    between atoms: O_15  and  C_16
REMARK    7  A    between atoms: N_29  and  C_30
REMARK    8  A    between atoms: C_30  and  C_31
REMARK                            x       y       z     vdW  Elec       q    Type
REMARK                         _______ _______ _______ _____ _____    ______ ____
ROOT
ATOM      3  C   UNL     1      13.836  -7.304  30.557  0.00  0.00    +0.039 C 
ATOM      4  C   UNL     1      14.182  -7.985  30.872  0.00  0.00    +0.003 C 
ATOM      5  C   UNL     1      13.732  -8.501  31.332  0.00  0.00    +0.000 C 
ATOM      6  C   UNL     1      12.937  -8.338  31.477  0.00  0.00    +0.002 C 
ATOM      7  C   UNL     1      13.282  -9.017  31.791  0.00  0.00    +0.000 C 
ATOM      8  C   UNL     1      12.486  -8.854  31.936  0.00  0.00    +0.002 C 
ATOM      9  C   UNL     1      11.692  -8.691  32.081  0.00  0.00    +0.022 C 
ATOM     10  C   UNL     1      11.346  -8.010  31.766  0.00  0.00    +0.095 C 
ATOM     22  C   UNL     1      11.795  -7.494  31.307  0.00  0.00    +0.022 C 
ATOM     23  C   UNL     1      11.450  -6.815  30.992  0.00  0.00    +0.002 C 
ATOM     24  C   UNL     1      12.591  -7.657  31.161  0.00  0.00    +0.032 C 
ATOM     25  C   UNL     1      13.041  -7.141  30.702  0.00  0.00    +0.152 C 
ATOM     26  O   UNL     1      12.695  -6.461  30.387  0.00  0.00    -0.223 OA
ENDROOT
BRANCH  10  11
ATOM     11  N   UNL     1      10.550  -7.847  31.911  0.00  0.00    -0.204 NA
ATOM     12  C   UNL     1      10.007  -8.465  31.975  0.00  0.00    +0.286 C 
ATOM     13  O   UNL     1      10.260  -9.247  31.893  0.00  0.00    -0.269 OA
BRANCH  12  14
ATOM     14  C   UNL     1       9.211  -8.302  32.120  0.00  0.00    +0.291 C 
BRANCH  14  15
ATOM     15  O   UNL     1       8.626  -8.793  31.810  0.00  0.00    -0.466 OA
BRANCH  15  16
ATOM     16  C   UNL     1       7.840  -8.543  31.799  0.00  0.00    +0.139 A 
ATOM     17  C   UNL     1       7.415  -8.549  31.092  0.00  0.00    +0.037 A 
ATOM     18  C   UNL     1       6.628  -8.299  31.081  0.00  0.00    +0.003 A 
ATOM     19  C   UNL     1       6.268  -8.042  31.777  0.00  0.00    +0.000 A 
ATOM     20  C   UNL     1       6.693  -8.035  32.484  0.00  0.00    +0.003 A 
ATOM     21  C   UNL     1       7.479  -8.286  32.495  0.00  0.00    +0.037 A 
ENDBRANCH  15  16
ENDBRANCH  14  15
ENDBRANCH  12  14
ENDBRANCH  10  11
BRANCH   3   2
ATOM      1  C   UNL     1      14.066  -6.627  29.319  0.00  0.00    +0.010 C 
ATOM      2  C   UNL     1      14.287  -6.788  30.097  0.00  0.00    +0.081 C 
BRANCH   2  27
ATOM     27  C   UNL     1      14.959  -6.432  30.417  0.00  0.00    +0.241 C 
ATOM     28  O   UNL     1      15.657  -6.866  30.499  0.00  0.00    -0.273 OA
ATOM     29  N   UNL     1      14.934  -5.642  30.654  0.00  0.00    -0.199 NA
BRANCH  29  30
ATOM     30  C   UNL     1      15.606  -5.286  30.973  0.00  0.00    +0.160 C 
BRANCH  30  31
ATOM     31  C   UNL     1      15.590  -4.490  31.187  0.00  0.00    +0.081 A 
ATOM     32  N   UNL     1      15.955  -3.926  30.708  0.00  0.00    -0.246 NA
ATOM     33  C   UNL     1      15.938  -3.130  30.922  0.00  0.00    +0.099 A 
ATOM     34  C   UNL     1      15.556  -2.897  31.615  0.00  0.00    +0.021 A 
ATOM     35  C   UNL     1      15.190  -3.460  32.094  0.00  0.00    +0.003 A 
ATOM     36  C   UNL     1      15.207  -4.258  31.880  0.00  0.00    +0.017 A 
ENDBRANCH  30  31
ENDBRANCH  29  30
ENDBRANCH   2  27
ENDBRANCH   3   2
TORSDOF 8
ENDMDL
