MODEL 1
REMARK VINA RESULT:     -12.2      0.000      0.000
REMARK  Name = 
REMARK  7 active torsions:
REMARK  status: ('A' for Active; 'I' for Inactive)
REMARK    1  A    between atoms: C_2  and  N_4
REMARK    2  A    between atoms: N_4  and  C_5
REMARK    3  A    between atoms: C_5  and  C_6
REMARK    4  A    between atoms: C_10  and  C_11
REMARK    5  A    between atoms: C_11  and  C_12
REMARK    6  A    between atoms: C_15  and  C_17
REMARK    7  A    between atoms: C_25  and  C_26
REMARK                            x       y       z     vdW  Elec       q    Type
REMARK                         _______ _______ _______ _____ _____    ______ ____
ROOT
ATOM      6  C   UNL     1      -3.959   0.395  24.397  0.00  0.00    +0.039 C 
ATOM      7  C   UNL     1      -4.626   0.577  24.848  0.00  0.00    -0.033 C 
ATOM      8  C   UNL     1      -4.799   1.363  25.028  0.00  0.00    -0.048 C 
ATOM      9  C   UNL     1      -5.466   1.545  25.480  0.00  0.00    +0.026 C 
ATOM     10  C   UNL     1      -4.307   1.967  24.758  0.00  0.00    +0.027 C 
ATOM     24  C   UNL     1      -3.640   1.785  24.307  0.00  0.00    +0.005 C 
ATOM     25  C   UNL     1      -3.466   0.999  24.126  0.00  0.00    +0.006 C 
ENDROOT
BRANCH  25  26
ATOM     26  C   UNL     1      -2.801   0.818  23.675  0.00  0.00    +0.000 C 
ATOM     27  C   UNL     1      -2.835   0.861  22.851  0.00  0.00    +0.000 C 
ATOM     28  C   UNL     1      -2.100   0.592  24.046  0.00  0.00    +0.000 C 
ENDBRANCH  25  26
BRANCH   6   5
ATOM      5  C   UNL     1      -3.785  -0.391  24.215  0.00  0.00    +0.093 C 
BRANCH   5   4
ATOM      4  N   UNL     1      -4.248  -0.998  24.525  0.00  0.00    -0.219 NA
BRANCH   4   2
ATOM      1  C   UNL     1      -4.342  -2.165  23.704  0.00  0.00    +0.019 C 
ATOM      2  C   UNL     1      -4.050  -1.786  24.376  0.00  0.00    +0.073 C 
ATOM      3  C   UNL     1      -3.560  -2.193  24.900  0.00  0.00    +0.019 C 
ENDBRANCH   4   2
ENDBRANCH   5   4
ENDBRANCH   6   5
BRANCH  10  11
ATOM     11  C   UNL     1      -4.480   2.752  24.939  0.00  0.00    +0.091 C 
BRANCH  11  12
ATOM     12  C   UNL     1      -3.901   3.236  25.275  0.00  0.00    +0.227 A 
ATOM     13  N   UNL     1      -3.888   3.508  26.053  0.00  0.00    -0.111 NA
ATOM     14  N   UNL     1      -3.213   3.972  26.150  0.00  0.00    -0.107 NA
ATOM     15  C   UNL     1      -2.809   3.987  25.431  0.00  0.00    +0.252 A 
ATOM     16  O   UNL     1      -3.234   3.532  24.889  0.00  0.00    -0.419 OA
BRANCH  15  17
ATOM     17  C   UNL     1      -2.103   4.387  25.280  0.00  0.00    +0.083 A 
ATOM     18  C   UNL     1      -2.120   5.170  25.021  0.00  0.00    +0.007 A 
ATOM     19  C   UNL     1      -1.414   5.570  24.870  0.00  0.00    +0.000 A 
ATOM     20  C   UNL     1      -0.691   5.185  24.978  0.00  0.00    +0.002 A 
ATOM     21  C   UNL     1      -0.675   4.403  25.237  0.00  0.00    +0.030 A 
ATOM     22  C   UNL     1      -1.381   4.003  25.388  0.00  0.00    +0.145 A 
ATOM     23  F   UNL     1      -1.364   3.220  25.647  0.00  0.00    -0.204 F 
ENDBRANCH  15  17
ENDBRANCH  11  12
ENDBRANCH  10  11
TORSDOF 7
ENDMDL
MODEL 2
REMARK VINA RESULT:     -11.8      1.484      2.497
REMARK  Name = 
REMARK  7 active torsions:
REMARK  status: ('A' for Active; 'I' for Inactive)
REMARK    1  A    between atoms: C_2  and  N_4
REMARK    2  A    between atoms: N_4  and  C_5
REMARK    3  A    between atoms: C_5  and  C_6
REMARK    4  A    between atoms: C_10  and  C_11
REMARK    5  A    between atoms: C_11  and  C_12
REMARK    6  A    between atoms: C_15  and  C_17
REMARK    7  A    between atoms: C_25  and  C_26
REMARK                            x       y       z     vdW  Elec       q    Type
REMARK                         _______ _______ _______ _____ _____    ______ ____
ROOT
ATOM      6  C   UNL     1      -2.398  -0.703  24.596  0.00  0.00    +0.039 C 
ATOM      7  C   UNL     1      -1.614  -0.957  24.622  0.00  0.00    -0.033 C 
ATOM      8  C   UNL     1      -1.002  -0.403  24.632  0.00  0.00    -0.048 C 
ATOM      9  C   UNL     1      -0.216  -0.657  24.658  0.00  0.00    +0.026 C 
ATOM     10  C   UNL     1      -1.174   0.403  24.618  0.00  0.00    +0.027 C 
ATOM     24  C   UNL     1      -1.958   0.657  24.592  0.00  0.00    +0.005 C 
ATOM     25  C   UNL     1      -2.571   0.104  24.581  0.00  0.00    +0.006 C 
ENDROOT
BRANCH  25  26
ATOM     26  C   UNL     1      -3.354   0.358  24.556  0.00  0.00    +0.000 C 
ATOM     27  C   UNL     1      -3.703   0.551  23.832  0.00  0.00    +0.000 C 
ATOM     28  C   UNL     1      -3.792   0.419  25.253  0.00  0.00    +0.000 C 
ENDBRANCH  25  26
BRANCH   6   5
ATOM      5  C   UNL     1      -3.011  -1.255  24.585  0.00  0.00    +0.093 C 
BRANCH   5   4
ATOM      4  N   UNL     1      -2.851  -2.046  24.417  0.00  0.00    -0.219 NA
BRANCH   4   2
ATOM      1  C   UNL     1      -3.962  -2.784  23.904  0.00  0.00    +0.019 C 
ATOM      2  C   UNL     1      -3.438  -2.617  24.519  0.00  0.00    +0.073 C 
ATOM      3  C   UNL     1      -3.501  -3.020  25.236  0.00  0.00    +0.019 C 
ENDBRANCH   4   2
ENDBRANCH   5   4
ENDBRANCH   6   5
BRANCH  10  11
ATOM     11  C   UNL     1      -0.562   0.955  24.629  0.00  0.00    +0.091 C 
BRANCH  11  12
ATOM     12  C   UNL     1      -0.650   1.661  25.049  0.00  0.00    +0.227 A 
ATOM     13  N   UNL     1      -0.482   1.772  25.848  0.00  0.00    -0.111 NA
ATOM     14  N   UNL     1      -0.650   2.558  26.037  0.00  0.00    -0.107 NA
ATOM     15  C   UNL     1      -0.922   2.931  25.354  0.00  0.00    +0.252 A 
ATOM     16  O   UNL     1      -0.922   2.376  24.743  0.00  0.00    -0.419 OA
BRANCH  15  17
ATOM     17  C   UNL     1      -1.153   3.721  25.292  0.00  0.00    +0.083 A 
ATOM     18  C   UNL     1      -0.648   4.272  24.944  0.00  0.00    +0.007 A 
ATOM     19  C   UNL     1      -0.879   5.062  24.882  0.00  0.00    +0.000 A 
ATOM     20  C   UNL     1      -1.616   5.300  25.170  0.00  0.00    +0.002 A 
ATOM     21  C   UNL     1      -2.120   4.748  25.518  0.00  0.00    +0.030 A 
ATOM     22  C   UNL     1      -1.889   3.958  25.579  0.00  0.00    +0.145 A 
ATOM     23  F   UNL     1      -2.394   3.407  25.927  0.00  0.00    -0.204 F 
ENDBRANCH  15  17
ENDBRANCH  11  12
ENDBRANCH  10  11
TORSDOF 7
ENDMDL
MODEL 3
REMARK VINA RESULT:     -11.7      1.494      4.996
REMARK  Name = 
REMARK  7 active torsions:
REMARK  status: ('A' for Active; 'I' for Inactive)
REMARK    1  A    between atoms: C_2  and  N_4
REMARK    2  A    between atoms: N_4  and  C_5
REMARK    3  A    between atoms: C_5  and  C_6
REMARK    4  A    between atoms: C_10  and  C_11
REMARK    5  A    between atoms: C_11  and  C_12
REMARK    6  A    between atoms: C_15  and  C_17
REMARK    7  A    between atoms: C_25  and  C_26
REMARK                            x       y       z     vdW  Elec       q    Type
REMARK                         _______ _______ _______ _____ _____    ______ ____
ROOT
ATOM      6  C   UNL     1      -2.432   3.076  24.672  0.00  0.00    +0.039 C 
ATOM      7  C   UNL     1      -3.198   3.358  24.795  0.00  0.00    -0.033 C 
ATOM      8  C   UNL     1      -3.844   2.856  24.687  0.00  0.00    -0.048 C 
ATOM      9  C   UNL     1      -4.610   3.138  24.810  0.00  0.00    +0.026 C 
ATOM     10  C   UNL     1      -3.725   2.073  24.457  0.00  0.00    +0.027 C 
ATOM     24  C   UNL     1      -2.959   1.792  24.334  0.00  0.00    +0.005 C 
ATOM     25  C   UNL     1      -2.312   2.292  24.442  0.00  0.00    +0.006 C 
ENDROOT
BRANCH  25  26
ATOM     26  C   UNL     1      -1.548   2.011  24.320  0.00  0.00    +0.000 C 
ATOM     27  C   UNL     1      -1.211   2.043  23.566  0.00  0.00    +0.000 C 
ATOM     28  C   UNL     1      -1.118   1.697  24.949  0.00  0.00    +0.000 C 
ENDBRANCH  25  26
BRANCH   6   5
ATOM      5  C   UNL     1      -1.786   3.577  24.780  0.00  0.00    +0.093 C 
BRANCH   5   4
ATOM      4  N   UNL     1      -1.872   4.277  25.207  0.00  0.00    -0.219 NA
BRANCH   4   2
ATOM      1  C   UNL     1      -0.531   4.750  25.062  0.00  0.00    +0.019 C 
ATOM      2  C   UNL     1      -1.342   4.899  25.091  0.00  0.00    +0.073 C 
ATOM      3  C   UNL     1      -1.624   5.669  25.006  0.00  0.00    +0.019 C 
ENDBRANCH   4   2
ENDBRANCH   5   4
ENDBRANCH   6   5
BRANCH  10  11
ATOM     11  C   UNL     1      -4.370   1.572  24.349  0.00  0.00    +0.091 C 
BRANCH  11  12
ATOM     12  C   UNL     1      -4.355   0.807  24.660  0.00  0.00    +0.227 A 
ATOM     13  N   UNL     1      -4.610   0.584  25.411  0.00  0.00    -0.111 NA
ATOM     14  N   UNL     1      -4.495  -0.229  25.489  0.00  0.00    -0.107 NA
ATOM     15  C   UNL     1      -4.169  -0.509  24.784  0.00  0.00    +0.252 A 
ATOM     16  O   UNL     1      -4.082   0.132  24.271  0.00  0.00    -0.419 OA
BRANCH  15  17
ATOM     17  C   UNL     1      -3.965  -1.292  24.621  0.00  0.00    +0.083 A 
ATOM     18  C   UNL     1      -4.321  -1.688  23.992  0.00  0.00    +0.007 A 
ATOM     19  C   UNL     1      -4.117  -2.471  23.829  0.00  0.00    +0.000 A 
ATOM     20  C   UNL     1      -3.556  -2.856  24.297  0.00  0.00    +0.002 A 
ATOM     21  C   UNL     1      -3.200  -2.460  24.925  0.00  0.00    +0.030 A 
ATOM     22  C   UNL     1      -3.404  -1.676  25.088  0.00  0.00    +0.145 A 
ATOM     23  F   UNL     1      -3.047  -1.280  25.717  0.00  0.00    -0.204 F 
ENDBRANCH  15  17
ENDBRANCH  11  12
ENDBRANCH  10  11
TORSDOF 7
ENDMDL
MODEL 4
REMARK VINA RESULT:     -11.5      1.963      5.424
REMARK  Name = 
REMARK  7 active torsions:
REMARK  status: ('A' for Active; 'I' for Inactive)
REMARK    1  A    between atoms: C_2  and  N_4
REMARK    2  A    between atoms: N_4  and  C_5
REMARK    3  A    between atoms: C_5  and  C_6
REMARK    4  A    between atoms: C_10  and  C_11
REMARK    5  A    between atoms: C_11  and  C_12
REMARK    6  A    between atoms: C_15  and  C_17
REMARK    7  A    between atoms: C_25  and  C_26
REMARK                            x       y       z     vdW  Elec       q    Type
REMARK                         _______ _______ _______ _____ _____    ______ ____
ROOT
ATOM      6  C   UNL     1      -1.673   2.743  24.952  0.00  0.00    +0.039 C 
ATOM      7  C   UNL     1      -1.058   2.495  25.444  0.00  0.00    -0.033 C 
ATOM      8  C   UNL     1      -0.893   1.691  25.523  0.00  0.00    -0.048 C 
ATOM      9  C   UNL     1      -0.278   1.443  26.015  0.00  0.00    +0.026 C 
ATOM     10  C   UNL     1      -1.341   1.134  25.111  0.00  0.00    +0.027 C 
ATOM     24  C   UNL     1      -1.955   1.382  24.619  0.00  0.00    +0.005 C 
ATOM     25  C   UNL     1      -2.122   2.186  24.539  0.00  0.00    +0.006 C 
ENDROOT
BRANCH  25  26
ATOM     26  C   UNL     1      -2.735   2.433  24.048  0.00  0.00    +0.000 C 
ATOM     27  C   UNL     1      -3.482   2.585  24.365  0.00  0.00    +0.000 C 
ATOM     28  C   UNL     1      -2.604   2.530  23.240  0.00  0.00    +0.000 C 
ENDBRANCH  25  26
BRANCH   6   5
ATOM      5  C   UNL     1      -1.839   3.547  24.872  0.00  0.00    +0.093 C 
BRANCH   5   4
ATOM      4  N   UNL     1      -1.437   4.099  25.332  0.00  0.00    -0.219 NA
BRANCH   4   2
ATOM      1  C   UNL     1      -2.147   5.339  25.387  0.00  0.00    +0.019 C 
ATOM      2  C   UNL     1      -1.487   4.903  25.151  0.00  0.00    +0.073 C 
ATOM      3  C   UNL     1      -0.878   5.270  24.734  0.00  0.00    +0.019 C 
ENDBRANCH   4   2
ENDBRANCH   5   4
ENDBRANCH   6   5
BRANCH  10  11
ATOM     11  C   UNL     1      -1.175   0.331  25.191  0.00  0.00    +0.091 C 
BRANCH  11  12
ATOM     12  C   UNL     1      -1.792  -0.210  25.293  0.00  0.00    +0.227 A 
ATOM     13  N   UNL     1      -2.137  -0.420  26.011  0.00  0.00    -0.111 NA
ATOM     14  N   UNL     1      -2.729  -0.974  25.857  0.00  0.00    -0.107 NA
ATOM     15  C   UNL     1      -2.748  -1.106  25.043  0.00  0.00    +0.252 A 
ATOM     16  O   UNL     1      -2.169  -0.633  24.694  0.00  0.00    -0.419 OA
BRANCH  15  17
ATOM     17  C   UNL     1      -3.258  -1.620  24.647  0.00  0.00    +0.083 A 
ATOM     18  C   UNL     1      -3.917  -1.322  24.249  0.00  0.00    +0.007 A 
ATOM     19  C   UNL     1      -4.427  -1.837  23.853  0.00  0.00    +0.000 A 
ATOM     20  C   UNL     1      -4.277  -2.649  23.856  0.00  0.00    +0.002 A 
ATOM     21  C   UNL     1      -3.619  -2.945  24.254  0.00  0.00    +0.030 A 
ATOM     22  C   UNL     1      -3.109  -2.431  24.650  0.00  0.00    +0.145 A 
ATOM     23  F   UNL     1      -2.451  -2.729  25.048  0.00  0.00    -0.204 F 
ENDBRANCH  15  17
ENDBRANCH  11  12
ENDBRANCH  10  11
TORSDOF 7
ENDMDL
