MODEL 1
REMARK VINA RESULT:      -9.7      0.000      0.000
REMARK  Name = 
REMARK  6 active torsions:
REMARK  status: ('A' for Active; 'I' for Inactive)
REMARK    1  A    between atoms: O_2  and  C_3
REMARK    2  A    between atoms: C_6  and  C_11
REMARK    3  A    between atoms: C_8  and  O_9
REMARK    4  A    between atoms: C_15  and  C_17
REMARK    5  A    between atoms: C_24  and  C_25
REMARK    6  A    between atoms: C_25  and  N_26
REMARK                            x       y       z     vdW  Elec       q    Type
REMARK                         _______ _______ _______ _____ _____    ______ ____
ROOT
ATOM     17  C   UNL     1       0.010   0.899  23.935  0.00  0.00    +0.056 C 
ATOM     18  C   UNL     1       0.491   1.476  23.729  0.00  0.00    +0.078 C 
ATOM     19  N   UNL     1       0.590   0.675  23.558  0.00  0.00    -0.272 NA
ATOM     20  C   UNL     1      -0.227   0.166  23.974  0.00  0.00    +0.072 C 
ATOM     21  C   UNL     1      -0.551  -0.389  24.090  0.00  0.00    +0.018 C 
ATOM     22  C   UNL     1       0.115   0.115  23.764  0.00  0.00    +0.010 C 
ATOM     23  C   UNL     1       0.745  -0.313  23.328  0.00  0.00    +0.018 C 
ATOM     24  C   UNL     1       1.242   0.223  23.107  0.00  0.00    +0.079 C 
ENDROOT
BRANCH  17  15
ATOM     11  C   UNL     1      -1.938   1.259  24.732  0.00  0.00    +0.102 A 
ATOM     12  N   UNL     1      -1.462   1.583  25.323  0.00  0.00    -0.170 NA
ATOM     13  N   UNL     1      -0.675   1.487  25.096  0.00  0.00    -0.253 N 
ATOM     14  C   UNL     1      -0.014   1.732  25.525  0.00  0.00    +0.153 C 
ATOM     15  C   UNL     1      -0.664   1.105  24.365  0.00  0.00    +0.058 A 
ATOM     16  C   UNL     1      -1.445   0.963  24.140  0.00  0.00    +0.035 A 
BRANCH  11   6
ATOM      3  C   UNL     1      -4.412   1.184  24.735  0.00  0.00    +0.172 A 
ATOM      4  C   UNL     1      -4.020   1.864  24.480  0.00  0.00    +0.040 A 
ATOM      5  C   UNL     1      -3.196   1.889  24.479  0.00  0.00    +0.005 A 
ATOM      6  C   UNL     1      -2.763   1.234  24.733  0.00  0.00    +0.023 A 
ATOM      7  C   UNL     1      -3.155   0.554  24.987  0.00  0.00    +0.042 A 
ATOM      8  C   UNL     1      -3.980   0.529  24.988  0.00  0.00    +0.172 A 
BRANCH   3   2
ATOM      1  C   UNL     1      -5.670   1.860  24.787  0.00  0.00    +0.253 C 
ATOM      2  O   UNL     1      -5.237   1.160  24.735  0.00  0.00    -0.468 OA
ENDBRANCH   3   2
BRANCH   8   9
ATOM      9  O   UNL     1      -4.372  -0.151  25.243  0.00  0.00    -0.468 OA
ATOM     10  C   UNL     1      -3.957  -0.858  25.329  0.00  0.00    +0.253 C 
ENDBRANCH   8   9
ENDBRANCH  11   6
ENDBRANCH  17  15
BRANCH  24  25
ATOM     25  C   UNL     1       1.951   0.330  22.700  0.00  0.00    +0.133 C 
BRANCH  25  26
ATOM     26  N   UNL     1       2.651   0.012  22.999  0.00  0.00    -0.187 NA
ATOM     27  C   UNL     1       3.375   0.361  22.811  0.00  0.00    +0.323 C 
ATOM     28  O   UNL     1       3.399   1.027  22.324  0.00  0.00    -0.251 OA
ATOM     29  N   UNL     1       4.075   0.043  23.110  0.00  0.00    -0.258 N 
ATOM     30  C   UNL     1       4.799   0.391  22.922  0.00  0.00    +0.127 C 
ATOM     31  C   UNL     1       5.499   0.073  23.221  0.00  0.00    +0.164 C 
ATOM     32  O   UNL     1       5.475  -0.593  23.707  0.00  0.00    -0.350 OA
ATOM     33  C   UNL     1       4.751  -0.941  23.895  0.00  0.00    +0.164 C 
ATOM     34  C   UNL     1       4.052  -0.623  23.596  0.00  0.00    +0.127 C 
ENDBRANCH  25  26
ENDBRANCH  24  25
TORSDOF 6
ENDMDL
MODEL 2
REMARK VINA RESULT:      -8.9      1.143      1.789
REMARK  Name = 
REMARK  6 active torsions:
REMARK  status: ('A' for Active; 'I' for Inactive)
REMARK    1  A    between atoms: O_2  and  C_3
REMARK    2  A    between atoms: C_6  and  C_11
REMARK    3  A    between atoms: C_8  and  O_9
REMARK    4  A    between atoms: C_15  and  C_17
REMARK    5  A    between atoms: C_24  and  C_25
REMARK    6  A    between atoms: C_25  and  N_26
REMARK                            x       y       z     vdW  Elec       q    Type
REMARK                         _______ _______ _______ _____ _____    ______ ____
ROOT
ATOM     17  C   UNL     1      -1.077   0.295  24.175  0.00  0.00    +0.056 C 
ATOM     18  C   UNL     1      -0.967  -0.364  23.775  0.00  0.00    +0.078 C 
ATOM     19  N   UNL     1      -0.442   0.271  23.822  0.00  0.00    -0.272 NA
ATOM     20  C   UNL     1      -0.886   0.996  24.435  0.00  0.00    +0.072 C 
ATOM     21  C   UNL     1      -0.870   1.580  24.728  0.00  0.00    +0.018 C 
ATOM     22  C   UNL     1      -0.557   0.914  24.215  0.00  0.00    +0.010 C 
ATOM     23  C   UNL     1       0.234   1.042  23.857  0.00  0.00    +0.018 C 
ATOM     24  C   UNL     1       0.381   0.411  23.453  0.00  0.00    +0.079 C 
ENDROOT
BRANCH  17  15
ATOM     11  C   UNL     1      -3.006   0.761  24.963  0.00  0.00    +0.102 A 
ATOM     12  N   UNL     1      -2.740   0.205  25.511  0.00  0.00    -0.170 NA
ATOM     13  N   UNL     1      -1.986  -0.037  25.283  0.00  0.00    -0.253 N 
ATOM     14  C   UNL     1      -1.514  -0.589  25.675  0.00  0.00    +0.153 C 
ATOM     15  C   UNL     1      -1.785   0.369  24.593  0.00  0.00    +0.058 A 
ATOM     16  C   UNL     1      -2.416   0.863  24.395  0.00  0.00    +0.035 A 
BRANCH  11   6
ATOM      3  C   UNL     1      -5.191   1.923  25.012  0.00  0.00    +0.172 A 
ATOM      4  C   UNL     1      -5.161   1.104  24.914  0.00  0.00    +0.040 A 
ATOM      5  C   UNL     1      -4.433   0.717  24.898  0.00  0.00    +0.005 A 
ATOM      6  C   UNL     1      -3.735   1.148  24.979  0.00  0.00    +0.023 A 
ATOM      7  C   UNL     1      -3.764   1.967  25.077  0.00  0.00    +0.042 A 
ATOM      8  C   UNL     1      -4.494   2.354  25.093  0.00  0.00    +0.172 A 
BRANCH   3   2
ATOM      1  C   UNL     1      -6.618   1.878  24.944  0.00  0.00    +0.253 C 
ATOM      2  O   UNL     1      -5.920   2.309  25.028  0.00  0.00    -0.468 OA
ENDBRANCH   3   2
BRANCH   8   9
ATOM      9  O   UNL     1      -4.524   3.173  25.191  0.00  0.00    -0.468 OA
ATOM     10  C   UNL     1      -3.906   3.566  25.571  0.00  0.00    +0.253 C 
ENDBRANCH   8   9
ENDBRANCH  11   6
ENDBRANCH  17  15
BRANCH  24  25
ATOM     25  C   UNL     1       0.949   0.063  22.967  0.00  0.00    +0.133 C 
BRANCH  25  26
ATOM     26  N   UNL     1       1.745   0.261  23.055  0.00  0.00    -0.187 NA
ATOM     27  C   UNL     1       2.275   0.117  22.440  0.00  0.00    +0.323 C 
ATOM     28  O   UNL     1       2.010  -0.223  21.737  0.00  0.00    -0.251 OA
ATOM     29  N   UNL     1       3.071   0.315  22.527  0.00  0.00    -0.258 N 
ATOM     30  C   UNL     1       3.602   0.173  21.912  0.00  0.00    +0.127 C 
ATOM     31  C   UNL     1       4.398   0.371  22.000  0.00  0.00    +0.164 C 
ATOM     32  O   UNL     1       4.663   0.712  22.703  0.00  0.00    -0.350 OA
ATOM     33  C   UNL     1       4.132   0.854  23.318  0.00  0.00    +0.164 C 
ATOM     34  C   UNL     1       3.337   0.657  23.230  0.00  0.00    +0.127 C 
ENDBRANCH  25  26
ENDBRANCH  24  25
TORSDOF 6
ENDMDL
MODEL 3
REMARK VINA RESULT:      -7.5      1.490      2.436
REMARK  Name = 
REMARK  6 active torsions:
REMARK  status: ('A' for Active; 'I' for Inactive)
REMARK    1  A    between atoms: O_2  and  C_3
REMARK    2  A    between atoms: C_6  and  C_11
REMARK    3  A    between atoms: C_8  and  O_9
REMARK    4  A    between atoms: C_15  and  C_17
REMARK    5  A    between atoms: C_24  and  C_25
REMARK    6  A    between atoms: C_25  and  N_26
REMARK                            x       y       z     vdW  Elec       q    Type
REMARK                         _______ _______ _______ _____ _____    ______ ____
ROOT
ATOM     17  C   UNL     1      -1.545   1.875  23.936  0.00  0.00    +0.056 C 
ATOM     18  C   UNL     1      -0.994   2.361  23.680  0.00  0.00    +0.078 C 
ATOM     19  N   UNL     1      -0.870   1.618  24.017  0.00  0.00    -0.272 NA
ATOM     20  C   UNL     1      -1.812   1.223  24.252  0.00  0.00    +0.072 C 
ATOM     21  C   UNL     1      -2.182   0.743  24.495  0.00  0.00    +0.018 C 
ATOM     22  C   UNL     1      -1.415   1.146  24.265  0.00  0.00    +0.010 C 
ATOM     23  C   UNL     1      -0.678   0.699  24.431  0.00  0.00    +0.018 C 
ATOM     24  C   UNL     1      -0.108   1.146  24.192  0.00  0.00    +0.079 C 
ENDROOT
BRANCH  17  15
ATOM     11  C   UNL     1      -3.547   2.583  24.162  0.00  0.00    +0.102 A 
ATOM     12  N   UNL     1      -3.525   2.421  23.353  0.00  0.00    -0.170 NA
ATOM     13  N   UNL     1      -2.773   2.136  23.171  0.00  0.00    -0.253 N 
ATOM     14  C   UNL     1      -2.510   1.905  22.423  0.00  0.00    +0.153 C 
ATOM     15  C   UNL     1      -2.330   2.122  23.866  0.00  0.00    +0.058 A 
ATOM     16  C   UNL     1      -2.807   2.399  24.479  0.00  0.00    +0.035 A 
BRANCH  11   6
ATOM      3  C   UNL     1      -5.488   3.468  25.417  0.00  0.00    +0.172 A 
ATOM      4  C   UNL     1      -4.846   3.959  25.249  0.00  0.00    +0.040 A 
ATOM      5  C   UNL     1      -4.200   3.664  24.831  0.00  0.00    +0.005 A 
ATOM      6  C   UNL     1      -4.193   2.879  24.580  0.00  0.00    +0.023 A 
ATOM      7  C   UNL     1      -4.835   2.388  24.748  0.00  0.00    +0.042 A 
ATOM      8  C   UNL     1      -5.483   2.683  25.166  0.00  0.00    +0.172 A 
BRANCH   3   2
ATOM      1  C   UNL     1      -6.253   4.578  25.890  0.00  0.00    +0.253 C 
ATOM      2  O   UNL     1      -6.135   3.764  25.835  0.00  0.00    -0.468 OA
ENDBRANCH   3   2
BRANCH   8   9
ATOM      9  O   UNL     1      -6.124   2.192  25.334  0.00  0.00    -0.468 OA
ATOM     10  C   UNL     1      -6.119   1.406  25.082  0.00  0.00    +0.253 C 
ENDBRANCH   8   9
ENDBRANCH  11   6
ENDBRANCH  17  15
BRANCH  24  25
ATOM     25  C   UNL     1       0.713   1.182  24.129  0.00  0.00    +0.133 C 
BRANCH  25  26
ATOM     26  N   UNL     1       1.098   0.793  23.512  0.00  0.00    -0.187 NA
ATOM     27  C   UNL     1       1.900   0.926  23.376  0.00  0.00    +0.323 C 
ATOM     28  O   UNL     1       2.319   1.450  23.858  0.00  0.00    -0.251 OA
ATOM     29  N   UNL     1       2.285   0.537  22.759  0.00  0.00    -0.258 N 
ATOM     30  C   UNL     1       3.088   0.670  22.623  0.00  0.00    +0.127 C 
ATOM     31  C   UNL     1       3.472   0.280  22.006  0.00  0.00    +0.164 C 
ATOM     32  O   UNL     1       3.054  -0.243  21.525  0.00  0.00    -0.350 OA
ATOM     33  C   UNL     1       2.251  -0.376  21.661  0.00  0.00    +0.164 C 
ATOM     34  C   UNL     1       1.867   0.013  22.277  0.00  0.00    +0.127 C 
ENDBRANCH  25  26
ENDBRANCH  24  25
TORSDOF 6
ENDMDL
