MODEL 1
REMARK VINA RESULT:     -10.3      0.000      0.000
REMARK  Name = 
REMARK  2 active torsions:
REMARK  status: ('A' for Active; 'I' for Inactive)
REMARK    1  A    between atoms: C_3  and  N_5
REMARK    2  A    between atoms: C_8  and  C_10
REMARK                            x       y       z     vdW  Elec       q    Type
REMARK                         _______ _______ _______ _____ _____    ______ ____
ROOT
ATOM      5  N   UNL     1      -4.293   2.131  24.814  0.00  0.00    -0.274 NA
ATOM      6  C   UNL     1      -5.074   1.937  24.996  0.00  0.00    +0.073 C 
ATOM      7  C   UNL     1      -5.136   1.114  25.008  0.00  0.00    +0.026 C 
ATOM      8  C   UNL     1      -4.393   0.800  24.834  0.00  0.00    +0.076 C 
ATOM      9  C   UNL     1      -3.872   1.428  24.714  0.00  0.00    +0.080 C 
ENDROOT
BRANCH   8  10
ATOM     10  C   UNL     1      -4.205  -0.002  24.788  0.00  0.00    +0.142 A 
ATOM     11  N   UNL     1      -3.821  -0.444  25.368  0.00  0.00    -0.210 NA
ATOM     12  C   UNL     1      -3.747  -1.217  25.092  0.00  0.00    +0.181 A 
ATOM     13  C   UNL     1      -4.085  -1.254  24.341  0.00  0.00    +0.118 A 
ATOM     14  N   UNL     1      -4.369  -0.503  24.152  0.00  0.00    -0.228 NA
ATOM     15  C   UNL     1      -4.091  -1.967  23.925  0.00  0.00    +0.024 A 
ATOM     16  C   UNL     1      -3.759  -2.643  24.261  0.00  0.00    +0.022 A 
ATOM     17  C   UNL     1      -3.421  -2.606  25.012  0.00  0.00    +0.101 A 
ATOM     18  N   UNL     1      -3.414  -1.894  25.428  0.00  0.00    -0.224 NA
ENDBRANCH   8  10
BRANCH   5   3
ATOM      1  C   UNL     1      -3.552   3.972  24.646  0.00  0.00    +0.003 C 
ATOM      2  C   UNL     1      -3.654   3.439  25.267  0.00  0.00    +0.016 C 
ATOM      3  C   UNL     1      -3.986   2.893  24.744  0.00  0.00    +0.058 C 
ATOM      4  C   UNL     1      -3.883   3.427  24.123  0.00  0.00    +0.016 C 
ENDBRANCH   5   3
TORSDOF 2
ENDMDL
MODEL 2
REMARK VINA RESULT:      -9.8      0.904      4.305
REMARK  Name = 
REMARK  2 active torsions:
REMARK  status: ('A' for Active; 'I' for Inactive)
REMARK    1  A    between atoms: C_3  and  N_5
REMARK    2  A    between atoms: C_8  and  C_10
REMARK                            x       y       z     vdW  Elec       q    Type
REMARK                         _______ _______ _______ _____ _____    ______ ____
ROOT
ATOM      5  N   UNL     1      -3.709  -0.864  24.279  0.00  0.00    -0.274 NA
ATOM      6  C   UNL     1      -3.286  -0.454  23.701  0.00  0.00    +0.073 C 
ATOM      7  C   UNL     1      -3.450   0.351  23.788  0.00  0.00    +0.026 C 
ATOM      8  C   UNL     1      -3.975   0.437  24.420  0.00  0.00    +0.076 C 
ATOM      9  C   UNL     1      -4.135  -0.313  24.723  0.00  0.00    +0.080 C 
ENDROOT
BRANCH   8  10
ATOM     10  C   UNL     1      -4.284   1.149  24.699  0.00  0.00    +0.142 A 
ATOM     11  N   UNL     1      -3.866   1.852  24.802  0.00  0.00    -0.210 NA
ATOM     12  C   UNL     1      -4.390   2.420  25.091  0.00  0.00    +0.181 A 
ATOM     13  C   UNL     1      -5.132   2.068  25.167  0.00  0.00    +0.118 A 
ATOM     14  N   UNL     1      -5.067   1.282  24.925  0.00  0.00    -0.228 NA
ATOM     15  C   UNL     1      -5.770   2.509  25.447  0.00  0.00    +0.024 A 
ATOM     16  C   UNL     1      -5.668   3.301  25.651  0.00  0.00    +0.022 A 
ATOM     17  C   UNL     1      -4.926   3.653  25.574  0.00  0.00    +0.101 A 
ATOM     18  N   UNL     1      -4.286   3.214  25.294  0.00  0.00    -0.224 NA
ENDBRANCH   8  10
BRANCH   5   3
ATOM      1  C   UNL     1      -3.706  -2.837  24.553  0.00  0.00    +0.003 C 
ATOM      2  C   UNL     1      -3.355  -2.194  24.934  0.00  0.00    +0.016 C 
ATOM      3  C   UNL     1      -3.708  -1.681  24.392  0.00  0.00    +0.058 C 
ATOM      4  C   UNL     1      -4.058  -2.324  24.012  0.00  0.00    +0.016 C 
ENDBRANCH   5   3
TORSDOF 2
ENDMDL
MODEL 3
REMARK VINA RESULT:      -9.5      1.545      4.495
REMARK  Name = 
REMARK  2 active torsions:
REMARK  status: ('A' for Active; 'I' for Inactive)
REMARK    1  A    between atoms: C_3  and  N_5
REMARK    2  A    between atoms: C_8  and  C_10
REMARK                            x       y       z     vdW  Elec       q    Type
REMARK                         _______ _______ _______ _____ _____    ______ ____
ROOT
ATOM      5  N   UNL     1      -3.870   0.442  24.694  0.00  0.00    -0.274 NA
ATOM      6  C   UNL     1      -4.523   0.945  24.727  0.00  0.00    +0.073 C 
ATOM      7  C   UNL     1      -4.245   1.719  24.804  0.00  0.00    +0.026 C 
ATOM      8  C   UNL     1      -3.420   1.693  24.817  0.00  0.00    +0.076 C 
ATOM      9  C   UNL     1      -3.189   0.905  24.749  0.00  0.00    +0.080 C 
ENDROOT
BRANCH   8  10
ATOM     10  C   UNL     1      -2.917   2.343  24.886  0.00  0.00    +0.142 A 
ATOM     11  N   UNL     1      -2.137   2.382  24.621  0.00  0.00    -0.210 NA
ATOM     12  C   UNL     1      -1.843   3.130  24.804  0.00  0.00    +0.181 A 
ATOM     13  C   UNL     1      -2.441   3.554  25.182  0.00  0.00    +0.118 A 
ATOM     14  N   UNL     1      -3.105   3.068  25.233  0.00  0.00    -0.228 NA
ATOM     15  C   UNL     1      -2.303   4.329  25.431  0.00  0.00    +0.024 A 
ATOM     16  C   UNL     1      -1.568   4.679  25.302  0.00  0.00    +0.022 A 
ATOM     17  C   UNL     1      -0.970   4.256  24.923  0.00  0.00    +0.101 A 
ATOM     18  N   UNL     1      -1.107   3.481  24.674  0.00  0.00    -0.224 NA
ENDBRANCH   8  10
BRANCH   5   3
ATOM      1  C   UNL     1      -3.927  -1.540  24.511  0.00  0.00    +0.003 C 
ATOM      2  C   UNL     1      -3.759  -1.015  25.125  0.00  0.00    +0.016 C 
ATOM      3  C   UNL     1      -3.894  -0.379  24.618  0.00  0.00    +0.058 C 
ATOM      4  C   UNL     1      -4.062  -0.903  24.004  0.00  0.00    +0.016 C 
ENDBRANCH   5   3
TORSDOF 2
ENDMDL
