MODEL 1
REMARK VINA RESULT:     -13.5      0.000      0.000
REMARK  Name = 
REMARK  4 active torsions:
REMARK  status: ('A' for Active; 'I' for Inactive)
REMARK    1  A    between atoms: O_2  and  C_3
REMARK    2  A    between atoms: C_10  and  C_15
REMARK    3  A    between atoms: C_15  and  C_17
REMARK    4  A    between atoms: N_22  and  C_25
REMARK                            x       y       z     vdW  Elec       q    Type
REMARK                         _______ _______ _______ _____ _____    ______ ____
ROOT
ATOM     15  C   UNL     1      -4.340   0.961  24.982  0.00  0.00    +0.077 C 
ATOM     16  C   UNL     1      -4.577   1.155  25.748  0.00  0.00    +0.010 C 
ENDROOT
BRANCH  15  10
ATOM      3  C   UNL     1      -2.413  -2.069  24.797  0.00  0.00    +0.134 A 
ATOM      4  C   UNL     1      -2.980  -2.517  24.398  0.00  0.00    +0.032 A 
ATOM      5  C   UNL     1      -3.705  -2.180  24.196  0.00  0.00    -0.023 A 
ATOM      6  C   UNL     1      -4.271  -2.628  23.797  0.00  0.00    +0.031 C 
ATOM      7  C   UNL     1      -3.863  -1.395  24.392  0.00  0.00    -0.030 A 
ATOM      8  C   UNL     1      -4.589  -1.057  24.190  0.00  0.00    +0.026 C 
ATOM      9  C   UNL     1      -4.747  -0.273  24.386  0.00  0.00    +0.005 C 
ATOM     10  C   UNL     1      -4.180   0.176  24.785  0.00  0.00    +0.013 C 
ATOM     11  C   UNL     1      -3.456  -0.161  24.988  0.00  0.00    +0.026 C 
ATOM     12  C   UNL     1      -3.296  -0.947  24.791  0.00  0.00    -0.027 A 
ATOM     13  C   UNL     1      -2.572  -1.284  24.993  0.00  0.00    +0.008 A 
ATOM     14  C   UNL     1      -2.005  -0.836  25.392  0.00  0.00    +0.034 C 
BRANCH   3   2
ATOM      1  C   UNL     1      -1.264  -2.841  24.440  0.00  0.00    +0.252 C 
ATOM      2  O   UNL     1      -1.688  -2.407  24.999  0.00  0.00    -0.472 OA
ENDBRANCH   3   2
ENDBRANCH  15  10
BRANCH  15  17
ATOM     17  C   UNL     1      -4.262   1.553  24.413  0.00  0.00    +0.225 C 
ATOM     18  O   UNL     1      -4.744   1.547  23.742  0.00  0.00    -0.275 OA
ATOM     19  N   UNL     1      -3.703   2.152  24.513  0.00  0.00    -0.276 N 
ATOM     20  C   UNL     1      -3.625   2.743  23.944  0.00  0.00    +0.115 C 
ATOM     21  C   UNL     1      -3.066   3.342  24.044  0.00  0.00    +0.112 C 
ATOM     22  N   UNL     1      -2.585   3.348  24.714  0.00  0.00    -0.304 N 
ATOM     23  C   UNL     1      -2.662   2.756  25.284  0.00  0.00    +0.112 C 
ATOM     24  C   UNL     1      -3.221   2.158  25.183  0.00  0.00    +0.115 C 
BRANCH  22  25
ATOM     25  C   UNL     1      -2.025   3.946  24.815  0.00  0.00    +0.048 A 
ATOM     26  C   UNL     1      -1.231   3.801  24.641  0.00  0.00    +0.017 A 
ATOM     27  C   UNL     1      -0.672   4.399  24.742  0.00  0.00    +0.031 A 
ATOM     28  C   UNL     1      -0.905   5.140  25.016  0.00  0.00    +0.140 A 
ATOM     29  F   UNL     1      -0.345   5.738  25.117  0.00  0.00    -0.204 F 
ATOM     30  C   UNL     1      -1.698   5.285  25.190  0.00  0.00    +0.031 A 
ATOM     31  C   UNL     1      -2.259   4.687  25.089  0.00  0.00    +0.017 A 
ENDBRANCH  22  25
ENDBRANCH  15  17
TORSDOF 4
ENDMDL
MODEL 2
REMARK VINA RESULT:     -13.3      2.313      5.426
REMARK  Name = 
REMARK  4 active torsions:
REMARK  status: ('A' for Active; 'I' for Inactive)
REMARK    1  A    between atoms: O_2  and  C_3
REMARK    2  A    between atoms: C_10  and  C_15
REMARK    3  A    between atoms: C_15  and  C_17
REMARK    4  A    between atoms: N_22  and  C_25
REMARK                            x       y       z     vdW  Elec       q    Type
REMARK                         _______ _______ _______ _____ _____    ______ ____
ROOT
ATOM     15  C   UNL     1      -3.770   2.448  24.030  0.00  0.00    +0.077 C 
ATOM     16  C   UNL     1      -3.903   2.409  23.217  0.00  0.00    +0.010 C 
ENDROOT
BRANCH  15  10
ATOM      3  C   UNL     1      -0.554   3.374  25.346  0.00  0.00    +0.134 A 
ATOM      4  C   UNL     1      -0.717   4.179  25.435  0.00  0.00    +0.032 A 
ATOM      5  C   UNL     1      -1.457   4.476  25.225  0.00  0.00    -0.023 A 
ATOM      6  C   UNL     1      -1.619   5.280  25.314  0.00  0.00    +0.031 C 
ATOM      7  C   UNL     1      -2.035   3.969  24.926  0.00  0.00    -0.030 A 
ATOM      8  C   UNL     1      -2.776   4.266  24.716  0.00  0.00    +0.026 C 
ATOM      9  C   UNL     1      -3.353   3.759  24.418  0.00  0.00    +0.005 C 
ATOM     10  C   UNL     1      -3.191   2.954  24.329  0.00  0.00    +0.013 C 
ATOM     11  C   UNL     1      -2.451   2.658  24.539  0.00  0.00    +0.026 C 
ATOM     12  C   UNL     1      -1.872   3.164  24.837  0.00  0.00    -0.027 A 
ATOM     13  C   UNL     1      -1.132   2.868  25.047  0.00  0.00    +0.008 A 
ATOM     14  C   UNL     1      -0.970   2.064  24.958  0.00  0.00    +0.034 C 
BRANCH   3   2
ATOM      1  C   UNL     1       0.353   2.900  26.344  0.00  0.00    +0.252 C 
ATOM      2  O   UNL     1       0.187   3.078  25.556  0.00  0.00    -0.472 OA
ENDBRANCH   3   2
ENDBRANCH  15  10
BRANCH  15  17
ATOM     17  C   UNL     1      -4.214   1.980  24.543  0.00  0.00    +0.225 C 
ATOM     18  O   UNL     1      -4.727   2.335  25.086  0.00  0.00    -0.275 OA
ATOM     19  N   UNL     1      -4.148   1.158  24.516  0.00  0.00    -0.276 N 
ATOM     20  C   UNL     1      -4.593   0.691  25.029  0.00  0.00    +0.115 C 
ATOM     21  C   UNL     1      -4.526  -0.132  25.002  0.00  0.00    +0.112 C 
ATOM     22  N   UNL     1      -4.015  -0.486  24.460  0.00  0.00    -0.304 N 
ATOM     23  C   UNL     1      -3.569  -0.018  23.946  0.00  0.00    +0.112 C 
ATOM     24  C   UNL     1      -3.636   0.804  23.974  0.00  0.00    +0.115 C 
BRANCH  22  25
ATOM     25  C   UNL     1      -3.948  -1.307  24.432  0.00  0.00    +0.048 A 
ATOM     26  C   UNL     1      -3.504  -1.705  25.003  0.00  0.00    +0.017 A 
ATOM     27  C   UNL     1      -3.437  -2.526  24.975  0.00  0.00    +0.031 A 
ATOM     28  C   UNL     1      -3.812  -2.950  24.376  0.00  0.00    +0.140 A 
ATOM     29  F   UNL     1      -3.745  -3.773  24.348  0.00  0.00    -0.204 F 
ATOM     30  C   UNL     1      -4.256  -2.554  23.805  0.00  0.00    +0.031 A 
ATOM     31  C   UNL     1      -4.324  -1.732  23.833  0.00  0.00    +0.017 A 
ENDBRANCH  22  25
ENDBRANCH  15  17
TORSDOF 4
ENDMDL
MODEL 3
REMARK VINA RESULT:     -13.0      1.484      2.459
REMARK  Name = 
REMARK  4 active torsions:
REMARK  status: ('A' for Active; 'I' for Inactive)
REMARK    1  A    between atoms: O_2  and  C_3
REMARK    2  A    between atoms: C_10  and  C_15
REMARK    3  A    between atoms: C_15  and  C_17
REMARK    4  A    between atoms: N_22  and  C_25
REMARK                            x       y       z     vdW  Elec       q    Type
REMARK                         _______ _______ _______ _____ _____    ______ ____
ROOT
ATOM     15  C   UNL     1      -0.956  -0.008  25.391  0.00  0.00    +0.077 C 
ATOM     16  C   UNL     1      -0.887   0.154  26.197  0.00  0.00    +0.010 C 
ENDROOT
BRANCH  15  10
ATOM      3  C   UNL     1      -3.790  -1.886  24.221  0.00  0.00    +0.134 A 
ATOM      4  C   UNL     1      -3.408  -2.617  24.177  0.00  0.00    +0.032 A 
ATOM      5  C   UNL     1      -2.612  -2.679  24.385  0.00  0.00    -0.023 A 
ATOM      6  C   UNL     1      -2.231  -3.409  24.341  0.00  0.00    +0.031 C 
ATOM      7  C   UNL     1      -2.199  -2.012  24.636  0.00  0.00    -0.030 A 
ATOM      8  C   UNL     1      -1.402  -2.074  24.844  0.00  0.00    +0.026 C 
ATOM      9  C   UNL     1      -0.989  -1.407  25.096  0.00  0.00    +0.005 C 
ATOM     10  C   UNL     1      -1.371  -0.676  25.140  0.00  0.00    +0.013 C 
ATOM     11  C   UNL     1      -2.166  -0.614  24.932  0.00  0.00    +0.026 C 
ATOM     12  C   UNL     1      -2.581  -1.281  24.680  0.00  0.00    -0.027 A 
ATOM     13  C   UNL     1      -3.376  -1.219  24.472  0.00  0.00    +0.008 A 
ATOM     14  C   UNL     1      -3.758  -0.489  24.516  0.00  0.00    +0.034 C 
BRANCH   3   2
ATOM      1  C   UNL     1      -4.942  -2.414  23.558  0.00  0.00    +0.252 C 
ATOM      2  O   UNL     1      -4.586  -1.825  24.013  0.00  0.00    -0.472 OA
ENDBRANCH   3   2
ENDBRANCH  15  10
BRANCH  15  17
ATOM     17  C   UNL     1      -0.611   0.496  24.838  0.00  0.00    +0.225 C 
ATOM     18  O   UNL     1      -0.133   0.188  24.240  0.00  0.00    -0.275 OA
ATOM     19  N   UNL     1      -0.743   1.310  24.882  0.00  0.00    -0.276 N 
ATOM     20  C   UNL     1      -0.397   1.814  24.329  0.00  0.00    +0.115 C 
ATOM     21  C   UNL     1      -0.529   2.628  24.373  0.00  0.00    +0.112 C 
ATOM     22  N   UNL     1      -1.007   2.936  24.970  0.00  0.00    -0.304 N 
ATOM     23  C   UNL     1      -1.353   2.431  25.525  0.00  0.00    +0.112 C 
ATOM     24  C   UNL     1      -1.220   1.618  25.480  0.00  0.00    +0.115 C 
BRANCH  22  25
ATOM     25  C   UNL     1      -1.139   3.749  25.015  0.00  0.00    +0.048 A 
ATOM     26  C   UNL     1      -0.566   4.276  24.741  0.00  0.00    +0.017 A 
ATOM     27  C   UNL     1      -0.698   5.089  24.785  0.00  0.00    +0.031 A 
ATOM     28  C   UNL     1      -1.402   5.375  25.104  0.00  0.00    +0.140 A 
ATOM     29  F   UNL     1      -1.534   6.189  25.148  0.00  0.00    -0.204 F 
ATOM     30  C   UNL     1      -1.975   4.849  25.378  0.00  0.00    +0.031 A 
ATOM     31  C   UNL     1      -1.843   4.036  25.334  0.00  0.00    +0.017 A 
ENDBRANCH  22  25
ENDBRANCH  15  17
TORSDOF 4
ENDMDL
MODEL 4
REMARK VINA RESULT:     -12.1      2.462      5.932
REMARK  Name = 
REMARK  4 active torsions:
REMARK  status: ('A' for Active; 'I' for Inactive)
REMARK    1  A    between atoms: O_2  and  C_3
REMARK    2  A    between atoms: C_10  and  C_15
REMARK    3  A    between atoms: C_15  and  C_17
REMARK    4  A    between atoms: N_22  and  C_25
REMARK                            x       y       z     vdW  Elec       q    Type
REMARK                         _______ _______ _______ _____ _____    ______ ____
ROOT
ATOM     15  C   UNL     1      -0.679   1.536  24.758  0.00  0.00    +0.077 C 
ATOM     16  C   UNL     1      -0.258   1.342  24.076  0.00  0.00    +0.010 C 
ENDROOT
BRANCH  15  10
ATOM      3  C   UNL     1      -3.218   4.081  24.839  0.00  0.00    +0.134 A 
ATOM      4  C   UNL     1      -2.717   4.710  25.027  0.00  0.00    +0.032 A 
ATOM      5  C   UNL     1      -1.909   4.577  25.124  0.00  0.00    -0.023 A 
ATOM      6  C   UNL     1      -1.407   5.205  25.311  0.00  0.00    +0.031 C 
ATOM      7  C   UNL     1      -1.601   3.818  25.032  0.00  0.00    -0.030 A 
ATOM      8  C   UNL     1      -0.793   3.685  25.129  0.00  0.00    +0.026 C 
ATOM      9  C   UNL     1      -0.485   2.925  25.037  0.00  0.00    +0.005 C 
ATOM     10  C   UNL     1      -0.987   2.297  24.850  0.00  0.00    +0.013 C 
ATOM     11  C   UNL     1      -1.795   2.429  24.753  0.00  0.00    +0.026 C 
ATOM     12  C   UNL     1      -2.103   3.189  24.844  0.00  0.00    -0.027 A 
ATOM     13  C   UNL     1      -2.911   3.322  24.748  0.00  0.00    +0.008 A 
ATOM     14  C   UNL     1      -3.412   2.694  24.561  0.00  0.00    +0.034 C 
BRANCH   3   2
ATOM      1  C   UNL     1      -4.503   4.367  25.400  0.00  0.00    +0.252 C 
ATOM      2  O   UNL     1      -4.027   4.214  24.743  0.00  0.00    -0.472 OA
ENDBRANCH   3   2
ENDBRANCH  15  10
BRANCH  15  17
ATOM     17  C   UNL     1      -0.792   0.972  25.348  0.00  0.00    +0.225 C 
ATOM     18  O   UNL     1      -0.459   1.083  26.096  0.00  0.00    -0.275 OA
ATOM     19  N   UNL     1      -1.238   0.295  25.192  0.00  0.00    -0.276 N 
ATOM     20  C   UNL     1      -1.351  -0.270  25.782  0.00  0.00    +0.115 C 
ATOM     21  C   UNL     1      -1.796  -0.947  25.626  0.00  0.00    +0.112 C 
ATOM     22  N   UNL     1      -2.129  -1.058  24.879  0.00  0.00    -0.304 N 
ATOM     23  C   UNL     1      -2.016  -0.493  24.288  0.00  0.00    +0.112 C 
ATOM     24  C   UNL     1      -1.570   0.184  24.445  0.00  0.00    +0.115 C 
BRANCH  22  25
ATOM     25  C   UNL     1      -2.575  -1.734  24.722  0.00  0.00    +0.048 A 
ATOM     26  C   UNL     1      -3.397  -1.683  24.673  0.00  0.00    +0.017 A 
ATOM     27  C   UNL     1      -3.843  -2.360  24.516  0.00  0.00    +0.031 A 
ATOM     28  C   UNL     1      -3.468  -3.085  24.408  0.00  0.00    +0.140 A 
ATOM     29  F   UNL     1      -3.914  -3.762  24.251  0.00  0.00    -0.204 F 
ATOM     30  C   UNL     1      -2.646  -3.137  24.458  0.00  0.00    +0.031 A 
ATOM     31  C   UNL     1      -2.199  -2.460  24.615  0.00  0.00    +0.017 A 
ENDBRANCH  22  25
ENDBRANCH  15  17
TORSDOF 4
ENDMDL
MODEL 5
REMARK VINA RESULT:     -11.5      2.663      4.483
REMARK  Name = 
REMARK  4 active torsions:
REMARK  status: ('A' for Active; 'I' for Inactive)
REMARK    1  A    between atoms: O_2  and  C_3
REMARK    2  A    between atoms: C_10  and  C_15
REMARK    3  A    between atoms: C_15  and  C_17
REMARK    4  A    between atoms: N_22  and  C_25
REMARK                            x       y       z     vdW  Elec       q    Type
REMARK                         _______ _______ _______ _____ _____    ______ ____
ROOT
ATOM     15  C   UNL     1      -3.308   0.304  24.283  0.00  0.00    +0.077 C 
ATOM     16  C   UNL     1      -3.345   0.119  23.480  0.00  0.00    +0.010 C 
ENDROOT
BRANCH  15  10
ATOM      3  C   UNL     1      -5.019   3.282  25.348  0.00  0.00    +0.134 A 
ATOM      4  C   UNL     1      -5.669   2.901  25.688  0.00  0.00    +0.032 A 
ATOM      5  C   UNL     1      -5.716   2.078  25.678  0.00  0.00    -0.023 A 
ATOM      6  C   UNL     1      -6.365   1.698  26.017  0.00  0.00    +0.031 C 
ATOM      7  C   UNL     1      -5.114   1.635  25.330  0.00  0.00    -0.030 A 
ATOM      8  C   UNL     1      -5.161   0.811  25.319  0.00  0.00    +0.026 C 
ATOM      9  C   UNL     1      -4.560   0.368  24.971  0.00  0.00    +0.005 C 
ATOM     10  C   UNL     1      -3.910   0.748  24.632  0.00  0.00    +0.013 C 
ATOM     11  C   UNL     1      -3.863   1.571  24.642  0.00  0.00    +0.026 C 
ATOM     12  C   UNL     1      -4.464   2.016  24.990  0.00  0.00    -0.027 A 
ATOM     13  C   UNL     1      -4.417   2.838  25.000  0.00  0.00    +0.008 A 
ATOM     14  C   UNL     1      -3.768   3.219  24.661  0.00  0.00    +0.034 C 
BRANCH   3   2
ATOM      1  C   UNL     1      -5.646   4.556  25.515  0.00  0.00    +0.252 C 
ATOM      2  O   UNL     1      -4.972   4.106  25.359  0.00  0.00    -0.472 OA
ENDBRANCH   3   2
ENDBRANCH  15  10
BRANCH  15  17
ATOM     17  C   UNL     1      -2.670   0.045  24.737  0.00  0.00    +0.225 C 
ATOM     18  O   UNL     1      -2.802  -0.306  25.473  0.00  0.00    -0.275 OA
ATOM     19  N   UNL     1      -1.899   0.137  24.456  0.00  0.00    -0.276 N 
ATOM     20  C   UNL     1      -1.261  -0.122  24.910  0.00  0.00    +0.115 C 
ATOM     21  C   UNL     1      -0.491  -0.031  24.630  0.00  0.00    +0.112 C 
ATOM     22  N   UNL     1      -0.359   0.320  23.895  0.00  0.00    -0.304 N 
ATOM     23  C   UNL     1      -0.997   0.580  23.440  0.00  0.00    +0.112 C 
ATOM     24  C   UNL     1      -1.767   0.488  23.721  0.00  0.00    +0.115 C 
BRANCH  22  25
ATOM     25  C   UNL     1       0.411   0.412  23.613  0.00  0.00    +0.048 A 
ATOM     26  C   UNL     1       0.746  -0.168  23.131  0.00  0.00    +0.017 A 
ATOM     27  C   UNL     1       1.515  -0.076  22.849  0.00  0.00    +0.031 A 
ATOM     28  C   UNL     1       1.951   0.594  23.049  0.00  0.00    +0.140 A 
ATOM     29  F   UNL     1       2.721   0.686  22.767  0.00  0.00    -0.204 F 
ATOM     30  C   UNL     1       1.617   1.174  23.531  0.00  0.00    +0.031 A 
ATOM     31  C   UNL     1       0.846   1.083  23.813  0.00  0.00    +0.017 A 
ENDBRANCH  22  25
ENDBRANCH  15  17
TORSDOF 4
ENDMDL
MODEL 6
REMARK VINA RESULT:     -10.7      2.851      4.834
REMARK  Name = 
REMARK  4 active torsions:
REMARK  status: ('A' for Active; 'I' for Inactive)
REMARK    1  A    between atoms: O_2  and  C_3
REMARK    2  A    between atoms: C_10  and  C_15
REMARK    3  A    between atoms: C_15  and  C_17
REMARK    4  A    between atoms: N_22  and  C_25
REMARK                            x       y       z     vdW  Elec       q    Type
REMARK                         _______ _______ _______ _____ _____    ______ ____
ROOT
ATOM     15  C   UNL     1      -1.735   3.535  25.159  0.00  0.00    +0.077 C 
ATOM     16  C   UNL     1      -1.399   4.099  24.659  0.00  0.00    +0.010 C 
ENDROOT
BRANCH  15  10
ATOM      3  C   UNL     1      -5.110   2.325  24.888  0.00  0.00    +0.134 A 
ATOM      4  C   UNL     1      -5.461   2.921  25.339  0.00  0.00    +0.032 A 
ATOM      5  C   UNL     1      -4.997   3.520  25.664  0.00  0.00    -0.023 A 
ATOM      6  C   UNL     1      -5.347   4.115  26.114  0.00  0.00    +0.031 C 
ATOM      7  C   UNL     1      -4.182   3.524  25.537  0.00  0.00    -0.030 A 
ATOM      8  C   UNL     1      -3.716   4.123  25.862  0.00  0.00    +0.026 C 
ATOM      9  C   UNL     1      -2.902   4.127  25.736  0.00  0.00    +0.005 C 
ATOM     10  C   UNL     1      -2.551   3.531  25.284  0.00  0.00    +0.013 C 
ATOM     11  C   UNL     1      -3.016   2.932  24.960  0.00  0.00    +0.026 C 
ATOM     12  C   UNL     1      -3.831   2.927  25.086  0.00  0.00    -0.027 A 
ATOM     13  C   UNL     1      -4.296   2.329  24.762  0.00  0.00    +0.008 A 
ATOM     14  C   UNL     1      -3.945   1.733  24.311  0.00  0.00    +0.034 C 
BRANCH   3   2
ATOM      1  C   UNL     1      -6.330   1.578  24.865  0.00  0.00    +0.252 C 
ATOM      2  O   UNL     1      -5.576   1.725  24.564  0.00  0.00    -0.472 OA
ENDBRANCH   3   2
ENDBRANCH  15  10
BRANCH  15  17
ATOM     17  C   UNL     1      -1.257   2.977  25.531  0.00  0.00    +0.225 C 
ATOM     18  O   UNL     1      -1.270   2.906  26.354  0.00  0.00    -0.275 OA
ATOM     19  N   UNL     1      -0.765   2.489  25.083  0.00  0.00    -0.276 N 
ATOM     20  C   UNL     1      -0.287   1.930  25.456  0.00  0.00    +0.115 C 
ATOM     21  C   UNL     1       0.205   1.442  25.008  0.00  0.00    +0.112 C 
ATOM     22  N   UNL     1       0.218   1.513  24.186  0.00  0.00    -0.304 N 
ATOM     23  C   UNL     1      -0.261   2.073  23.812  0.00  0.00    +0.112 C 
ATOM     24  C   UNL     1      -0.753   2.560  24.261  0.00  0.00    +0.115 C 
BRANCH  22  25
ATOM     25  C   UNL     1       0.709   1.026  23.737  0.00  0.00    +0.048 A 
ATOM     26  C   UNL     1       0.407   0.335  23.399  0.00  0.00    +0.017 A 
ATOM     27  C   UNL     1       0.898  -0.152  22.950  0.00  0.00    +0.031 A 
ATOM     28  C   UNL     1       1.689   0.050  22.838  0.00  0.00    +0.140 A 
ATOM     29  F   UNL     1       2.181  -0.438  22.389  0.00  0.00    -0.204 F 
ATOM     30  C   UNL     1       1.991   0.740  23.175  0.00  0.00    +0.031 A 
ATOM     31  C   UNL     1       1.500   1.228  23.625  0.00  0.00    +0.017 A 
ENDBRANCH  22  25
ENDBRANCH  15  17
TORSDOF 4
ENDMDL
MODEL 7
REMARK VINA RESULT:     -10.5      2.688      4.968
REMARK  Name = 
REMARK  4 active torsions:
REMARK  status: ('A' for Active; 'I' for Inactive)
REMARK    1  A    between atoms: O_2  and  C_3
REMARK    2  A    between atoms: C_10  and  C_15
REMARK    3  A    between atoms: C_15  and  C_17
REMARK    4  A    between atoms: N_22  and  C_25
REMARK                            x       y       z     vdW  Elec       q    Type
REMARK                         _______ _______ _______ _____ _____    ______ ____
ROOT
ATOM     15  C   UNL     1      -2.787   2.375  23.569  0.00  0.00    +0.077 C 
ATOM     16  C   UNL     1      -2.934   2.098  22.806  0.00  0.00    +0.010 C 
ENDROOT
BRANCH  15  10
ATOM      3  C   UNL     1      -5.814   2.321  25.508  0.00  0.00    +0.134 A 
ATOM      4  C   UNL     1      -5.840   3.131  25.666  0.00  0.00    +0.032 A 
ATOM      5  C   UNL     1      -5.250   3.627  25.373  0.00  0.00    -0.023 A 
ATOM      6  C   UNL     1      -5.276   4.437  25.530  0.00  0.00    +0.031 C 
ATOM      7  C   UNL     1      -4.635   3.315  24.922  0.00  0.00    -0.030 A 
ATOM      8  C   UNL     1      -4.044   3.811  24.629  0.00  0.00    +0.026 C 
ATOM      9  C   UNL     1      -3.429   3.498  24.178  0.00  0.00    +0.005 C 
ATOM     10  C   UNL     1      -3.403   2.688  24.020  0.00  0.00    +0.013 C 
ATOM     11  C   UNL     1      -3.993   2.192  24.314  0.00  0.00    +0.026 C 
ATOM     12  C   UNL     1      -4.609   2.504  24.765  0.00  0.00    -0.027 A 
ATOM     13  C   UNL     1      -5.199   2.008  25.058  0.00  0.00    +0.008 A 
ATOM     14  C   UNL     1      -5.173   1.199  24.900  0.00  0.00    +0.034 C 
BRANCH   3   2
ATOM      1  C   UNL     1      -6.597   1.840  26.604  0.00  0.00    +0.252 C 
ATOM      2  O   UNL     1      -6.405   1.825  25.802  0.00  0.00    -0.472 OA
ENDBRANCH   3   2
ENDBRANCH  15  10
BRANCH  15  17
ATOM     17  C   UNL     1      -2.024   2.340  23.880  0.00  0.00    +0.225 C 
ATOM     18  O   UNL     1      -1.578   3.031  23.959  0.00  0.00    -0.275 OA
ATOM     19  N   UNL     1      -1.706   1.615  24.113  0.00  0.00    -0.276 N 
ATOM     20  C   UNL     1      -0.943   1.580  24.424  0.00  0.00    +0.115 C 
ATOM     21  C   UNL     1      -0.625   0.855  24.657  0.00  0.00    +0.112 C 
ATOM     22  N   UNL     1      -1.070   0.165  24.578  0.00  0.00    -0.304 N 
ATOM     23  C   UNL     1      -1.834   0.200  24.267  0.00  0.00    +0.112 C 
ATOM     24  C   UNL     1      -2.151   0.925  24.034  0.00  0.00    +0.115 C 
BRANCH  22  25
ATOM     25  C   UNL     1      -0.753  -0.560  24.810  0.00  0.00    +0.048 A 
ATOM     26  C   UNL     1      -0.987  -0.902  25.525  0.00  0.00    +0.017 A 
ATOM     27  C   UNL     1      -0.670  -1.628  25.757  0.00  0.00    +0.031 A 
ATOM     28  C   UNL     1      -0.120  -2.010  25.277  0.00  0.00    +0.140 A 
ATOM     29  F   UNL     1       0.197  -2.736  25.510  0.00  0.00    -0.204 F 
ATOM     30  C   UNL     1       0.114  -1.669  24.563  0.00  0.00    +0.031 A 
ATOM     31  C   UNL     1      -0.204  -0.943  24.330  0.00  0.00    +0.017 A 
ENDBRANCH  22  25
ENDBRANCH  15  17
TORSDOF 4
ENDMDL
MODEL 8
REMARK VINA RESULT:     -10.3      2.008      2.936
REMARK  Name = 
REMARK  4 active torsions:
REMARK  status: ('A' for Active; 'I' for Inactive)
REMARK    1  A    between atoms: O_2  and  C_3
REMARK    2  A    between atoms: C_10  and  C_15
REMARK    3  A    between atoms: C_15  and  C_17
REMARK    4  A    between atoms: N_22  and  C_25
REMARK                            x       y       z     vdW  Elec       q    Type
REMARK                         _______ _______ _______ _____ _____    ______ ____
ROOT
ATOM     15  C   UNL     1      -1.671   1.139  24.202  0.00  0.00    +0.077 C 
ATOM     16  C   UNL     1      -1.709   1.400  23.420  0.00  0.00    +0.010 C 
ENDROOT
BRANCH  15  10
ATOM      3  C   UNL     1      -2.807  -2.228  24.752  0.00  0.00    +0.134 A 
ATOM      4  C   UNL     1      -2.062  -2.559  24.884  0.00  0.00    +0.032 A 
ATOM      5  C   UNL     1      -1.389  -2.084  24.854  0.00  0.00    -0.023 A 
ATOM      6  C   UNL     1      -0.644  -2.414  24.986  0.00  0.00    +0.031 C 
ATOM      7  C   UNL     1      -1.459  -1.279  24.691  0.00  0.00    -0.030 A 
ATOM      8  C   UNL     1      -0.785  -0.803  24.660  0.00  0.00    +0.026 C 
ATOM      9  C   UNL     1      -0.856   0.002  24.497  0.00  0.00    +0.005 C 
ATOM     10  C   UNL     1      -1.601   0.333  24.365  0.00  0.00    +0.013 C 
ATOM     11  C   UNL     1      -2.274  -0.142  24.396  0.00  0.00    +0.026 C 
ATOM     12  C   UNL     1      -2.204  -0.948  24.559  0.00  0.00    -0.027 A 
ATOM     13  C   UNL     1      -2.877  -1.423  24.589  0.00  0.00    +0.008 A 
ATOM     14  C   UNL     1      -3.621  -1.092  24.457  0.00  0.00    +0.034 C 
BRANCH   3   2
ATOM      1  C   UNL     1      -3.505  -3.414  24.363  0.00  0.00    +0.252 C 
ATOM      2  O   UNL     1      -3.480  -2.704  24.783  0.00  0.00    -0.472 OA
ENDBRANCH   3   2
ENDBRANCH  15  10
BRANCH  15  17
ATOM     17  C   UNL     1      -1.703   1.684  24.820  0.00  0.00    +0.225 C 
ATOM     18  O   UNL     1      -1.053   1.778  25.322  0.00  0.00    -0.275 OA
ATOM     19  N   UNL     1      -2.383   2.136  24.938  0.00  0.00    -0.276 N 
ATOM     20  C   UNL     1      -2.415   2.681  25.555  0.00  0.00    +0.115 C 
ATOM     21  C   UNL     1      -3.095   3.133  25.673  0.00  0.00    +0.112 C 
ATOM     22  N   UNL     1      -3.744   3.040  25.172  0.00  0.00    -0.304 N 
ATOM     23  C   UNL     1      -3.712   2.494  24.553  0.00  0.00    +0.112 C 
ATOM     24  C   UNL     1      -3.032   2.043  24.436  0.00  0.00    +0.115 C 
BRANCH  22  25
ATOM     25  C   UNL     1      -4.424   3.491  25.289  0.00  0.00    +0.048 A 
ATOM     26  C   UNL     1      -5.115   3.132  25.564  0.00  0.00    +0.017 A 
ATOM     27  C   UNL     1      -5.795   3.583  25.681  0.00  0.00    +0.031 A 
ATOM     28  C   UNL     1      -5.786   4.392  25.522  0.00  0.00    +0.140 A 
ATOM     29  F   UNL     1      -6.467   4.843  25.639  0.00  0.00    -0.204 F 
ATOM     30  C   UNL     1      -5.096   4.751  25.247  0.00  0.00    +0.031 A 
ATOM     31  C   UNL     1      -4.415   4.300  25.130  0.00  0.00    +0.017 A 
ENDBRANCH  22  25
ENDBRANCH  15  17
TORSDOF 4
ENDMDL
MODEL 9
REMARK VINA RESULT:     -10.0      3.306      4.827
REMARK  Name = 
REMARK  4 active torsions:
REMARK  status: ('A' for Active; 'I' for Inactive)
REMARK    1  A    between atoms: O_2  and  C_3
REMARK    2  A    between atoms: C_10  and  C_15
REMARK    3  A    between atoms: C_15  and  C_17
REMARK    4  A    between atoms: N_22  and  C_25
REMARK                            x       y       z     vdW  Elec       q    Type
REMARK                         _______ _______ _______ _____ _____    ______ ____
ROOT
ATOM     15  C   UNL     1      -1.374   1.013  24.826  0.00  0.00    +0.077 C 
ATOM     16  C   UNL     1      -0.937   1.197  25.502  0.00  0.00    +0.010 C 
ENDROOT
BRANCH  15  10
ATOM      3  C   UNL     1      -4.889   1.769  24.847  0.00  0.00    +0.134 A 
ATOM      4  C   UNL     1      -4.841   2.457  24.393  0.00  0.00    +0.032 A 
ATOM      5  C   UNL     1      -4.109   2.718  24.117  0.00  0.00    -0.023 A 
ATOM      6  C   UNL     1      -4.060   3.405  23.664  0.00  0.00    +0.031 C 
ATOM      7  C   UNL     1      -3.426   2.292  24.294  0.00  0.00    -0.030 A 
ATOM      8  C   UNL     1      -2.693   2.553  24.018  0.00  0.00    +0.026 C 
ATOM      9  C   UNL     1      -2.010   2.127  24.195  0.00  0.00    +0.005 C 
ATOM     10  C   UNL     1      -2.058   1.439  24.650  0.00  0.00    +0.013 C 
ATOM     11  C   UNL     1      -2.790   1.178  24.925  0.00  0.00    +0.026 C 
ATOM     12  C   UNL     1      -3.474   1.604  24.749  0.00  0.00    -0.027 A 
ATOM     13  C   UNL     1      -4.206   1.343  25.024  0.00  0.00    +0.008 A 
ATOM     14  C   UNL     1      -4.254   0.655  25.478  0.00  0.00    +0.034 C 
BRANCH   3   2
ATOM      1  C   UNL     1      -6.317   1.854  24.844  0.00  0.00    +0.252 C 
ATOM      2  O   UNL     1      -5.622   1.508  25.123  0.00  0.00    -0.472 OA
ENDBRANCH   3   2
ENDBRANCH  15  10
BRANCH  15  17
ATOM     17  C   UNL     1      -1.126   0.404  24.329  0.00  0.00    +0.225 C 
ATOM     18  O   UNL     1      -1.635  -0.225  24.161  0.00  0.00    -0.275 OA
ATOM     19  N   UNL     1      -0.370   0.421  23.999  0.00  0.00    -0.276 N 
ATOM     20  C   UNL     1      -0.123  -0.188  23.501  0.00  0.00    +0.115 C 
ATOM     21  C   UNL     1       0.633  -0.170  23.171  0.00  0.00    +0.112 C 
ATOM     22  N   UNL     1       1.142   0.458  23.339  0.00  0.00    -0.304 N 
ATOM     23  C   UNL     1       0.894   1.068  23.837  0.00  0.00    +0.112 C 
ATOM     24  C   UNL     1       0.138   1.049  24.167  0.00  0.00    +0.115 C 
BRANCH  22  25
ATOM     25  C   UNL     1       1.898   0.477  23.009  0.00  0.00    +0.048 A 
ATOM     26  C   UNL     1       2.444   1.042  23.263  0.00  0.00    +0.017 A 
ATOM     27  C   UNL     1       3.200   1.061  22.933  0.00  0.00    +0.031 A 
ATOM     28  C   UNL     1       3.410   0.516  22.352  0.00  0.00    +0.140 A 
ATOM     29  F   UNL     1       4.167   0.535  22.022  0.00  0.00    -0.204 F 
ATOM     30  C   UNL     1       2.865  -0.049  22.099  0.00  0.00    +0.031 A 
ATOM     31  C   UNL     1       2.108  -0.068  22.428  0.00  0.00    +0.017 A 
ENDBRANCH  22  25
ENDBRANCH  15  17
TORSDOF 4
ENDMDL
