MODEL 1
REMARK VINA RESULT:      -7.5      0.000      0.000
REMARK  Name = 
REMARK  1 active torsions:
REMARK  status: ('A' for Active; 'I' for Inactive)
REMARK    1  A    between atoms: N_7  and  C_9
REMARK                            x       y       z     vdW  Elec       q    Type
REMARK                         _______ _______ _______ _____ _____    ______ ____
ROOT
ATOM      1  O   UNL     1      -5.664   1.658  25.381  0.00  0.00    -0.219 OA
ATOM      2  C   UNL     1      -4.977   1.512  24.949  0.00  0.00    +0.197 C 
ATOM      3  C   UNL     1      -4.634   2.170  24.586  0.00  0.00    +0.176 C 
ATOM      4  O   UNL     1      -3.953   2.205  24.122  0.00  0.00    -0.350 OA
ATOM      5  C   UNL     1      -3.446   1.592  23.906  0.00  0.00    +0.160 C 
ATOM      6  C   UNL     1      -3.495   0.792  24.100  0.00  0.00    +0.105 C 
ATOM      7  N   UNL     1      -4.063   0.406  24.559  0.00  0.00    -0.269 NA
ATOM      8  C   UNL     1      -4.722   0.728  24.936  0.00  0.00    +0.108 C 
ENDROOT
BRANCH   7   9
ATOM      9  C   UNL     1      -3.957  -0.406  24.652  0.00  0.00    +0.063 C 
ATOM     10  C   UNL     1      -4.200  -0.925  24.057  0.00  0.00    +0.048 C 
ATOM     11  C   UNL     1      -4.094  -1.738  24.150  0.00  0.00    +0.144 C 
ATOM     12  O   UNL     1      -3.746  -2.032  24.838  0.00  0.00    -0.354 OA
ATOM     13  C   UNL     1      -3.504  -1.514  25.432  0.00  0.00    +0.144 C 
ATOM     14  C   UNL     1      -3.610  -0.701  25.339  0.00  0.00    +0.048 C 
ENDBRANCH   7   9
TORSDOF 1
ENDMDL
MODEL 2
REMARK VINA RESULT:      -7.2      0.644      3.165
REMARK  Name = 
REMARK  1 active torsions:
REMARK  status: ('A' for Active; 'I' for Inactive)
REMARK    1  A    between atoms: N_7  and  C_9
REMARK                            x       y       z     vdW  Elec       q    Type
REMARK                         _______ _______ _______ _____ _____    ______ ____
ROOT
ATOM      1  O   UNL     1      -4.360  -2.114  23.504  0.00  0.00    -0.219 OA
ATOM      2  C   UNL     1      -4.058  -1.749  24.179  0.00  0.00    +0.197 C 
ATOM      3  C   UNL     1      -3.713  -2.251  24.736  0.00  0.00    +0.176 C 
ATOM      4  O   UNL     1      -3.367  -2.058  25.459  0.00  0.00    -0.350 OA
ATOM      5  C   UNL     1      -3.280  -1.314  25.805  0.00  0.00    +0.160 C 
ATOM      6  C   UNL     1      -3.517  -0.580  25.514  0.00  0.00    +0.105 C 
ATOM      7  N   UNL     1      -3.901  -0.408  24.803  0.00  0.00    -0.269 NA
ATOM      8  C   UNL     1      -4.141  -0.929  24.210  0.00  0.00    +0.108 C 
ENDROOT
BRANCH   7   9
ATOM      9  C   UNL     1      -4.065   0.389  24.669  0.00  0.00    +0.063 C 
ATOM     10  C   UNL     1      -3.537   0.852  24.235  0.00  0.00    +0.048 C 
ATOM     11  C   UNL     1      -3.701   1.649  24.101  0.00  0.00    +0.144 C 
ATOM     12  O   UNL     1      -4.394   1.983  24.400  0.00  0.00    -0.354 OA
ATOM     13  C   UNL     1      -4.921   1.521  24.834  0.00  0.00    +0.144 C 
ATOM     14  C   UNL     1      -4.757   0.724  24.968  0.00  0.00    +0.048 C 
ENDBRANCH   7   9
TORSDOF 1
ENDMDL
MODEL 3
REMARK VINA RESULT:      -7.0      2.208      2.714
REMARK  Name = 
REMARK  1 active torsions:
REMARK  status: ('A' for Active; 'I' for Inactive)
REMARK    1  A    between atoms: N_7  and  C_9
REMARK                            x       y       z     vdW  Elec       q    Type
REMARK                         _______ _______ _______ _____ _____    ______ ____
ROOT
ATOM      1  O   UNL     1      -6.098   1.791  24.892  0.00  0.00    -0.219 OA
ATOM      2  C   UNL     1      -5.448   2.279  25.028  0.00  0.00    +0.197 C 
ATOM      3  C   UNL     1      -5.575   2.913  25.540  0.00  0.00    +0.176 C 
ATOM      4  O   UNL     1      -5.042   3.493  25.784  0.00  0.00    -0.350 OA
ATOM      5  C   UNL     1      -4.249   3.582  25.576  0.00  0.00    +0.160 C 
ATOM      6  C   UNL     1      -3.793   3.114  25.073  0.00  0.00    +0.105 C 
ATOM      7  N   UNL     1      -4.017   2.439  24.652  0.00  0.00    -0.269 NA
ATOM      8  C   UNL     1      -4.754   2.068  24.633  0.00  0.00    +0.108 C 
ENDROOT
BRANCH   7   9
ATOM      9  C   UNL     1      -3.429   2.091  24.193  0.00  0.00    +0.063 C 
ATOM     10  C   UNL     1      -2.965   1.484  24.505  0.00  0.00    +0.048 C 
ATOM     11  C   UNL     1      -2.376   1.136  24.045  0.00  0.00    +0.144 C 
ATOM     12  O   UNL     1      -2.250   1.395  23.272  0.00  0.00    -0.354 OA
ATOM     13  C   UNL     1      -2.713   2.001  22.959  0.00  0.00    +0.144 C 
ATOM     14  C   UNL     1      -3.302   2.349  23.419  0.00  0.00    +0.048 C 
ENDBRANCH   7   9
TORSDOF 1
ENDMDL
MODEL 4
REMARK VINA RESULT:      -6.8      2.213      3.254
REMARK  Name = 
REMARK  1 active torsions:
REMARK  status: ('A' for Active; 'I' for Inactive)
REMARK    1  A    between atoms: N_7  and  C_9
REMARK                            x       y       z     vdW  Elec       q    Type
REMARK                         _______ _______ _______ _____ _____    ______ ____
ROOT
ATOM      1  O   UNL     1      -1.843   0.933  25.226  0.00  0.00    -0.219 OA
ATOM      2  C   UNL     1      -2.247   1.320  24.619  0.00  0.00    +0.197 C 
ATOM      3  C   UNL     1      -1.869   1.328  23.885  0.00  0.00    +0.176 C 
ATOM      4  O   UNL     1      -2.126   1.666  23.178  0.00  0.00    -0.350 OA
ATOM      5  C   UNL     1      -2.825   2.079  23.030  0.00  0.00    +0.160 C 
ATOM      6  C   UNL     1      -3.438   2.257  23.551  0.00  0.00    +0.105 C 
ATOM      7  N   UNL     1      -3.506   2.065  24.352  0.00  0.00    -0.269 NA
ATOM      8  C   UNL     1      -2.975   1.648  24.826  0.00  0.00    +0.108 C 
ENDROOT
BRANCH   7   9
ATOM      9  C   UNL     1      -4.193   2.324  24.725  0.00  0.00    +0.063 C 
ATOM     10  C   UNL     1      -4.864   1.844  24.734  0.00  0.00    +0.048 C 
ATOM     11  C   UNL     1      -5.553   2.103  25.108  0.00  0.00    +0.144 C 
ATOM     12  O   UNL     1      -5.569   2.843  25.473  0.00  0.00    -0.354 OA
ATOM     13  C   UNL     1      -4.899   3.323  25.465  0.00  0.00    +0.144 C 
ATOM     14  C   UNL     1      -4.211   3.063  25.091  0.00  0.00    +0.048 C 
ENDBRANCH   7   9
TORSDOF 1
ENDMDL
