MODEL 1
REMARK VINA RESULT:     -10.0      0.000      0.000
REMARK  Name = 
REMARK  6 active torsions:
REMARK  status: ('A' for Active; 'I' for Inactive)
REMARK    1  A    between atoms: C_3  and  C_4
REMARK    2  A    between atoms: C_4  and  N_5
REMARK    3  A    between atoms: N_5  and  S_6
REMARK    4  A    between atoms: S_6  and  C_9
REMARK    5  A    between atoms: C_17  and  N_18
REMARK    6  A    between atoms: N_18  and  C_19
REMARK                            x       y       z     vdW  Elec       q    Type
REMARK                         _______ _______ _______ _____ _____    ______ ____
ROOT
ATOM      1  O   UNL     1      -4.136   1.064  25.078  0.00  0.00    -0.219 OA
ATOM      2  C   UNL     1      -3.421   0.656  25.018  0.00  0.00    +0.199 C 
ATOM      3  C   UNL     1      -2.677   0.995  24.911  0.00  0.00    +0.166 C 
ATOM     15  O   UNL     1      -2.121   0.385  24.881  0.00  0.00    -0.350 OA
ATOM     16  C   UNL     1      -2.521  -0.330  24.971  0.00  0.00    +0.162 C 
ATOM     17  C   UNL     1      -3.325  -0.163  25.056  0.00  0.00    +0.135 C 
ENDROOT
BRANCH   3   4
ATOM      4  C   UNL     1      -2.516   1.802  24.844  0.00  0.00    +0.148 C 
BRANCH   4   5
ATOM      5  N   UNL     1      -1.760   2.087  25.009  0.00  0.00    -0.075 NA
BRANCH   5   6
ATOM      6  S   UNL     1      -1.619   2.899  25.015  0.00  0.00    +0.077 S 
ATOM      7  O   UNL     1      -1.569   2.884  25.838  0.00  0.00    -0.152 OA
ATOM      8  O   UNL     1      -1.668   2.914  24.192  0.00  0.00    -0.152 OA
BRANCH   6   9
ATOM      9  C   UNL     1      -1.477   3.712  25.021  0.00  0.00    +0.124 A 
ATOM     10  C   UNL     1      -0.753   4.007  24.757  0.00  0.00    +0.020 A 
ATOM     11  C   UNL     1      -0.611   4.819  24.763  0.00  0.00    +0.001 A 
ATOM     12  C   UNL     1      -1.193   5.337  25.033  0.00  0.00    +0.000 A 
ATOM     13  C   UNL     1      -1.917   5.043  25.297  0.00  0.00    +0.001 A 
ATOM     14  C   UNL     1      -2.059   4.230  25.291  0.00  0.00    +0.020 A 
ENDBRANCH   6   9
ENDBRANCH   5   6
ENDBRANCH   4   5
ENDBRANCH   3   4
BRANCH  17  18
ATOM     18  N   UNL     1      -3.927  -0.717  25.159  0.00  0.00    -0.215 NA
BRANCH  18  19
ATOM     19  C   UNL     1      -3.874  -1.458  24.799  0.00  0.00    +0.078 C 
ATOM     20  C   UNL     1      -4.206  -1.579  24.054  0.00  0.00    +0.050 C 
ATOM     21  C   UNL     1      -4.152  -2.320  23.694  0.00  0.00    +0.144 C 
ATOM     22  O   UNL     1      -3.766  -2.939  24.080  0.00  0.00    -0.354 OA
ATOM     23  C   UNL     1      -3.434  -2.817  24.825  0.00  0.00    +0.144 C 
ATOM     24  C   UNL     1      -3.488  -2.076  25.185  0.00  0.00    +0.050 C 
ENDBRANCH  18  19
ENDBRANCH  17  18
TORSDOF 6
ENDMDL
MODEL 2
REMARK VINA RESULT:      -9.8      1.297      5.613
REMARK  Name = 
REMARK  6 active torsions:
REMARK  status: ('A' for Active; 'I' for Inactive)
REMARK    1  A    between atoms: C_3  and  C_4
REMARK    2  A    between atoms: C_4  and  N_5
REMARK    3  A    between atoms: N_5  and  S_6
REMARK    4  A    between atoms: S_6  and  C_9
REMARK    5  A    between atoms: C_17  and  N_18
REMARK    6  A    between atoms: N_18  and  C_19
REMARK                            x       y       z     vdW  Elec       q    Type
REMARK                         _______ _______ _______ _____ _____    ______ ____
ROOT
ATOM      1  O   UNL     1      -1.171   1.316  25.671  0.00  0.00    -0.219 OA
ATOM      2  C   UNL     1      -1.793   1.740  25.335  0.00  0.00    +0.199 C 
ATOM      3  C   UNL     1      -2.440   1.419  24.936  0.00  0.00    +0.166 C 
ATOM     15  O   UNL     1      -2.924   2.041  24.692  0.00  0.00    -0.350 OA
ATOM     16  C   UNL     1      -2.577   2.747  24.940  0.00  0.00    +0.162 C 
ATOM     17  C   UNL     1      -1.878   2.561  25.338  0.00  0.00    +0.135 C 
ENDROOT
BRANCH   3   4
ATOM      4  C   UNL     1      -2.578   0.616  24.804  0.00  0.00    +0.148 C 
BRANCH   4   5
ATOM      5  N   UNL     1      -3.348   0.343  24.693  0.00  0.00    -0.075 NA
BRANCH   5   6
ATOM      6  S   UNL     1      -3.489  -0.463  24.590  0.00  0.00    +0.077 S 
ATOM      7  O   UNL     1      -3.814  -0.502  25.347  0.00  0.00    -0.152 OA
ATOM      8  O   UNL     1      -3.163  -0.424  23.833  0.00  0.00    -0.152 OA
BRANCH   6   9
ATOM      9  C   UNL     1      -3.629  -1.270  24.488  0.00  0.00    +0.124 A 
ATOM     10  C   UNL     1      -4.152  -1.527  23.903  0.00  0.00    +0.020 A 
ATOM     11  C   UNL     1      -4.293  -2.333  23.801  0.00  0.00    +0.001 A 
ATOM     12  C   UNL     1      -3.911  -2.883  24.283  0.00  0.00    +0.000 A 
ATOM     13  C   UNL     1      -3.388  -2.627  24.867  0.00  0.00    +0.001 A 
ATOM     14  C   UNL     1      -3.247  -1.820  24.970  0.00  0.00    +0.020 A 
ENDBRANCH   6   9
ENDBRANCH   5   6
ENDBRANCH   4   5
ENDBRANCH   3   4
BRANCH  17  18
ATOM     18  N   UNL     1      -1.355   3.101  25.677  0.00  0.00    -0.215 NA
BRANCH  18  19
ATOM     19  C   UNL     1      -1.330   3.880  25.405  0.00  0.00    +0.078 C 
ATOM     20  C   UNL     1      -1.916   4.414  25.630  0.00  0.00    +0.050 C 
ATOM     21  C   UNL     1      -1.891   5.193  25.358  0.00  0.00    +0.144 C 
ATOM     22  O   UNL     1      -1.280   5.436  24.860  0.00  0.00    -0.354 OA
ATOM     23  C   UNL     1      -0.693   4.901  24.635  0.00  0.00    +0.144 C 
ATOM     24  C   UNL     1      -0.719   4.123  24.908  0.00  0.00    +0.050 C 
ENDBRANCH  18  19
ENDBRANCH  17  18
TORSDOF 6
ENDMDL
