MODEL 1
REMARK VINA RESULT:     -11.5      0.000      0.000
REMARK  Name = 
REMARK  6 active torsions:
REMARK  status: ('A' for Active; 'I' for Inactive)
REMARK    1  A    between atoms: C_2  and  C_3
REMARK    2  A    between atoms: C_5  and  C_6
REMARK    3  A    between atoms: C_6  and  N_7
REMARK    4  A    between atoms: N_7  and  C_8
REMARK    5  A    between atoms: C_8  and  C_9
REMARK    6  A    between atoms: C_16  and  N_19
REMARK                            x       y       z     vdW  Elec       q    Type
REMARK                         _______ _______ _______ _____ _____    ______ ____
ROOT
ATOM      3  C   UNL     1      -5.442   2.836  25.391  0.00  0.00    +0.180 C 
ATOM      4  O   UNL     1      -4.651   3.055  25.310  0.00  0.00    -0.350 OA
ATOM      5  C   UNL     1      -4.210   2.372  25.169  0.00  0.00    +0.150 C 
ATOM     16  C   UNL     1      -4.728   1.731  25.162  0.00  0.00    +0.120 C 
ATOM     17  C   UNL     1      -5.490   2.017  25.299  0.00  0.00    +0.198 C 
ATOM     18  O   UNL     1      -6.179   1.564  25.338  0.00  0.00    -0.219 OA
ENDROOT
BRANCH  16  19
ATOM     19  N   UNL     1      -4.522   0.941  25.040  0.00  0.00    -0.267 NA
ATOM     20  C   UNL     1      -4.230   0.490  25.667  0.00  0.00    +0.094 C 
ATOM     21  C   UNL     1      -4.023  -0.300  25.545  0.00  0.00    +0.109 C 
ATOM     22  N   UNL     1      -4.108  -0.637  24.797  0.00  0.00    -0.290 N 
ATOM     23  C   UNL     1      -4.400  -0.186  24.172  0.00  0.00    +0.109 C 
ATOM     24  C   UNL     1      -4.607   0.603  24.293  0.00  0.00    +0.094 C 
ATOM     25  C   UNL     1      -3.902  -1.427  24.675  0.00  0.00    +0.132 A 
ATOM     26  N   UNL     1      -3.610  -1.878  25.301  0.00  0.00    -0.229 NA
ATOM     27  C   UNL     1      -3.403  -2.668  25.180  0.00  0.00    +0.100 A 
ATOM     28  C   UNL     1      -3.489  -3.006  24.431  0.00  0.00    +0.021 A 
ATOM     29  C   UNL     1      -3.780  -2.554  23.806  0.00  0.00    +0.004 A 
ATOM     30  C   UNL     1      -3.987  -1.765  23.928  0.00  0.00    +0.034 A 
ENDBRANCH  16  19
BRANCH   3   2
ATOM      1  O   UNL     1      -5.931   4.126  25.763  0.00  0.00    -0.218 OA
ATOM      2  C   UNL     1      -6.073   3.345  25.536  0.00  0.00    +0.214 C 
ENDBRANCH   3   2
BRANCH   5   6
ATOM      6  C   UNL     1      -3.394   2.338  25.055  0.00  0.00    +0.120 C 
BRANCH   6   7
ATOM      7  N   UNL     1      -2.949   3.032  25.042  0.00  0.00    -0.211 NA
BRANCH   7   8
ATOM      8  C   UNL     1      -2.149   3.014  25.247  0.00  0.00    +0.115 C 
BRANCH   8   9
ATOM      9  C   UNL     1      -1.674   3.674  25.109  0.00  0.00    -0.005 A 
ATOM     10  C   UNL     1      -0.951   3.589  24.721  0.00  0.00    -0.001 A 
ATOM     11  C   UNL     1      -0.476   4.249  24.583  0.00  0.00    +0.029 A 
ATOM     12  C   UNL     1      -0.724   4.995  24.833  0.00  0.00    +0.140 A 
ATOM     13  F   UNL     1      -0.250   5.655  24.695  0.00  0.00    -0.204 F 
ATOM     14  C   UNL     1      -1.448   5.081  25.221  0.00  0.00    +0.029 A 
ATOM     15  C   UNL     1      -1.922   4.421  25.359  0.00  0.00    -0.001 A 
ENDBRANCH   8   9
ENDBRANCH   7   8
ENDBRANCH   6   7
ENDBRANCH   5   6
TORSDOF 6
ENDMDL
MODEL 2
REMARK VINA RESULT:     -10.7      3.273      6.138
REMARK  Name = 
REMARK  6 active torsions:
REMARK  status: ('A' for Active; 'I' for Inactive)
REMARK    1  A    between atoms: C_2  and  C_3
REMARK    2  A    between atoms: C_5  and  C_6
REMARK    3  A    between atoms: C_6  and  N_7
REMARK    4  A    between atoms: N_7  and  C_8
REMARK    5  A    between atoms: C_8  and  C_9
REMARK    6  A    between atoms: C_16  and  N_19
REMARK                            x       y       z     vdW  Elec       q    Type
REMARK                         _______ _______ _______ _____ _____    ______ ____
ROOT
ATOM      3  C   UNL     1       0.416   0.105  23.652  0.00  0.00    +0.180 C 
ATOM      4  O   UNL     1      -0.097  -0.432  24.012  0.00  0.00    -0.350 OA
ATOM      5  C   UNL     1      -0.702  -0.003  24.375  0.00  0.00    +0.150 C 
ATOM     16  C   UNL     1      -0.563   0.799  24.238  0.00  0.00    +0.120 C 
ATOM     17  C   UNL     1       0.128   0.866  23.791  0.00  0.00    +0.198 C 
ATOM     18  O   UNL     1       0.470   1.570  23.530  0.00  0.00    -0.219 OA
ENDROOT
BRANCH  16  19
ATOM     19  N   UNL     1      -1.032   1.424  24.502  0.00  0.00    -0.267 NA
ATOM     20  C   UNL     1      -1.634   1.719  24.020  0.00  0.00    +0.094 C 
ATOM     21  C   UNL     1      -2.104   2.345  24.284  0.00  0.00    +0.109 C 
ATOM     22  N   UNL     1      -1.971   2.675  25.029  0.00  0.00    -0.290 N 
ATOM     23  C   UNL     1      -1.370   2.379  25.509  0.00  0.00    +0.109 C 
ATOM     24  C   UNL     1      -0.900   1.754  25.246  0.00  0.00    +0.094 C 
ATOM     25  C   UNL     1      -2.440   3.300  25.292  0.00  0.00    +0.132 A 
ATOM     26  N   UNL     1      -3.042   3.595  24.811  0.00  0.00    -0.229 NA
ATOM     27  C   UNL     1      -3.511   4.221  25.074  0.00  0.00    +0.100 A 
ATOM     28  C   UNL     1      -3.379   4.551  25.819  0.00  0.00    +0.021 A 
ATOM     29  C   UNL     1      -2.777   4.255  26.300  0.00  0.00    +0.004 A 
ATOM     30  C   UNL     1      -2.308   3.630  26.036  0.00  0.00    +0.034 A 
ENDBRANCH  16  19
BRANCH   3   2
ATOM      1  O   UNL     1       1.043  -0.562  22.555  0.00  0.00    -0.218 OA
ATOM      2  C   UNL     1       1.096  -0.085  23.227  0.00  0.00    +0.214 C 
ENDBRANCH   3   2
BRANCH   5   6
ATOM      6  C   UNL     1      -1.334  -0.321  24.799  0.00  0.00    +0.120 C 
BRANCH   6   7
ATOM      7  N   UNL     1      -1.694  -1.017  24.543  0.00  0.00    -0.211 NA
BRANCH   7   8
ATOM      8  C   UNL     1      -2.279  -1.372  25.005  0.00  0.00    +0.115 C 
BRANCH   8   9
ATOM      9  C   UNL     1      -2.921  -1.744  24.643  0.00  0.00    -0.005 A 
ATOM     10  C   UNL     1      -3.564  -1.297  24.386  0.00  0.00    -0.001 A 
ATOM     11  C   UNL     1      -4.206  -1.669  24.023  0.00  0.00    +0.029 A 
ATOM     12  C   UNL     1      -4.203  -2.487  23.918  0.00  0.00    +0.140 A 
ATOM     13  F   UNL     1      -4.844  -2.859  23.556  0.00  0.00    -0.204 F 
ATOM     14  C   UNL     1      -3.559  -2.934  24.176  0.00  0.00    +0.029 A 
ATOM     15  C   UNL     1      -2.918  -2.563  24.538  0.00  0.00    -0.001 A 
ENDBRANCH   8   9
ENDBRANCH   7   8
ENDBRANCH   6   7
ENDBRANCH   5   6
TORSDOF 6
ENDMDL
MODEL 3
REMARK VINA RESULT:     -10.3      1.998      5.285
REMARK  Name = 
REMARK  6 active torsions:
REMARK  status: ('A' for Active; 'I' for Inactive)
REMARK    1  A    between atoms: C_2  and  C_3
REMARK    2  A    between atoms: C_5  and  C_6
REMARK    3  A    between atoms: C_6  and  N_7
REMARK    4  A    between atoms: N_7  and  C_8
REMARK    5  A    between atoms: C_8  and  C_9
REMARK    6  A    between atoms: C_16  and  N_19
REMARK                            x       y       z     vdW  Elec       q    Type
REMARK                         _______ _______ _______ _____ _____    ______ ____
ROOT
ATOM      3  C   UNL     1      -5.800   1.916  25.159  0.00  0.00    +0.180 C 
ATOM      4  O   UNL     1      -5.357   1.221  25.132  0.00  0.00    -0.350 OA
ATOM      5  C   UNL     1      -4.562   1.428  25.058  0.00  0.00    +0.150 C 
ATOM     16  C   UNL     1      -4.513   2.251  25.039  0.00  0.00    +0.120 C 
ATOM     17  C   UNL     1      -5.279   2.553  25.101  0.00  0.00    +0.198 C 
ATOM     18  O   UNL     1      -5.486   3.352  25.105  0.00  0.00    -0.219 OA
ENDROOT
BRANCH  16  19
ATOM     19  N   UNL     1      -3.821   2.695  24.970  0.00  0.00    -0.267 NA
ATOM     20  C   UNL     1      -3.370   2.650  24.280  0.00  0.00    +0.094 C 
ATOM     21  C   UNL     1      -2.678   3.094  24.211  0.00  0.00    +0.109 C 
ATOM     22  N   UNL     1      -2.437   3.582  24.831  0.00  0.00    -0.290 N 
ATOM     23  C   UNL     1      -2.888   3.627  25.520  0.00  0.00    +0.109 C 
ATOM     24  C   UNL     1      -3.581   3.183  25.590  0.00  0.00    +0.094 C 
ATOM     25  C   UNL     1      -1.745   4.026  24.762  0.00  0.00    +0.132 A 
ATOM     26  N   UNL     1      -1.294   3.982  24.073  0.00  0.00    -0.229 NA
ATOM     27  C   UNL     1      -0.602   4.426  24.003  0.00  0.00    +0.100 A 
ATOM     28  C   UNL     1      -0.361   4.914  24.623  0.00  0.00    +0.021 A 
ATOM     29  C   UNL     1      -0.812   4.958  25.312  0.00  0.00    +0.004 A 
ATOM     30  C   UNL     1      -1.504   4.514  25.381  0.00  0.00    +0.034 A 
ENDBRANCH  16  19
BRANCH   3   2
ATOM      1  O   UNL     1      -7.106   1.573  24.691  0.00  0.00    -0.218 OA
ATOM      2  C   UNL     1      -6.620   1.965  25.230  0.00  0.00    +0.214 C 
ENDBRANCH   3   2
BRANCH   5   6
ATOM      6  C   UNL     1      -3.927   0.903  25.011  0.00  0.00    +0.120 C 
BRANCH   6   7
ATOM      7  N   UNL     1      -4.065   0.094  24.937  0.00  0.00    -0.211 NA
BRANCH   7   8
ATOM      8  C   UNL     1      -3.429  -0.430  24.884  0.00  0.00    +0.115 C 
BRANCH   8   9
ATOM      9  C   UNL     1      -3.564  -1.225  24.707  0.00  0.00    -0.005 A 
ATOM     10  C   UNL     1      -3.953  -1.432  24.011  0.00  0.00    -0.001 A 
ATOM     11  C   UNL     1      -4.087  -2.228  23.834  0.00  0.00    +0.029 A 
ATOM     12  C   UNL     1      -3.832  -2.815  24.355  0.00  0.00    +0.140 A 
ATOM     13  F   UNL     1      -3.966  -3.609  24.180  0.00  0.00    -0.204 F 
ATOM     14  C   UNL     1      -3.443  -2.606  25.053  0.00  0.00    +0.029 A 
ATOM     15  C   UNL     1      -3.308  -1.812  25.229  0.00  0.00    -0.001 A 
ENDBRANCH   8   9
ENDBRANCH   7   8
ENDBRANCH   6   7
ENDBRANCH   5   6
TORSDOF 6
ENDMDL
MODEL 4
REMARK VINA RESULT:     -10.2      2.678      4.194
REMARK  Name = 
REMARK  6 active torsions:
REMARK  status: ('A' for Active; 'I' for Inactive)
REMARK    1  A    between atoms: C_2  and  C_3
REMARK    2  A    between atoms: C_5  and  C_6
REMARK    3  A    between atoms: C_6  and  N_7
REMARK    4  A    between atoms: N_7  and  C_8
REMARK    5  A    between atoms: C_8  and  C_9
REMARK    6  A    between atoms: C_16  and  N_19
REMARK                            x       y       z     vdW  Elec       q    Type
REMARK                         _______ _______ _______ _____ _____    ______ ____
ROOT
ATOM      3  C   UNL     1      -1.219   4.288  24.943  0.00  0.00    +0.180 C 
ATOM      4  O   UNL     1      -1.993   4.144  24.696  0.00  0.00    -0.350 OA
ATOM      5  C   UNL     1      -2.092   3.327  24.629  0.00  0.00    +0.150 C 
ATOM     16  C   UNL     1      -1.379   2.966  24.834  0.00  0.00    +0.120 C 
ATOM     17  C   UNL     1      -0.839   3.560  25.028  0.00  0.00    +0.198 C 
ATOM     18  O   UNL     1      -0.057   3.446  25.266  0.00  0.00    -0.219 OA
ENDROOT
BRANCH  16  19
ATOM     19  N   UNL     1      -1.231   2.155  24.844  0.00  0.00    -0.267 NA
ATOM     20  C   UNL     1      -0.972   1.775  24.158  0.00  0.00    +0.094 C 
ATOM     21  C   UNL     1      -0.824   0.963  24.167  0.00  0.00    +0.109 C 
ATOM     22  N   UNL     1      -0.935   0.532  24.863  0.00  0.00    -0.290 N 
ATOM     23  C   UNL     1      -1.193   0.912  25.547  0.00  0.00    +0.109 C 
ATOM     24  C   UNL     1      -1.341   1.724  25.538  0.00  0.00    +0.094 C 
ATOM     25  C   UNL     1      -0.786  -0.280  24.872  0.00  0.00    +0.132 A 
ATOM     26  N   UNL     1      -0.528  -0.659  24.187  0.00  0.00    -0.229 NA
ATOM     27  C   UNL     1      -0.380  -1.472  24.196  0.00  0.00    +0.100 A 
ATOM     28  C   UNL     1      -0.490  -1.904  24.890  0.00  0.00    +0.021 A 
ATOM     29  C   UNL     1      -0.749  -1.523  25.575  0.00  0.00    +0.004 A 
ATOM     30  C   UNL     1      -0.897  -0.712  25.565  0.00  0.00    +0.034 A 
ENDBRANCH  16  19
BRANCH   3   2
ATOM      1  O   UNL     1      -1.363   5.700  25.102  0.00  0.00    -0.218 OA
ATOM      2  C   UNL     1      -0.884   5.028  25.080  0.00  0.00    +0.214 C 
ENDBRANCH   3   2
BRANCH   5   6
ATOM      6  C   UNL     1      -2.782   2.940  24.397  0.00  0.00    +0.120 C 
BRANCH   6   7
ATOM      7  N   UNL     1      -3.515   3.212  24.659  0.00  0.00    -0.211 NA
BRANCH   7   8
ATOM      8  C   UNL     1      -4.209   2.914  24.325  0.00  0.00    +0.115 C 
BRANCH   8   9
ATOM      9  C   UNL     1      -4.809   2.624  24.812  0.00  0.00    -0.005 A 
ATOM     10  C   UNL     1      -5.187   3.126  25.345  0.00  0.00    -0.001 A 
ATOM     11  C   UNL     1      -5.787   2.836  25.832  0.00  0.00    +0.029 A 
ATOM     12  C   UNL     1      -6.009   2.043  25.784  0.00  0.00    +0.140 A 
ATOM     13  F   UNL     1      -6.608   1.752  26.270  0.00  0.00    -0.204 F 
ATOM     14  C   UNL     1      -5.631   1.540  25.250  0.00  0.00    +0.029 A 
ATOM     15  C   UNL     1      -5.031   1.831  24.764  0.00  0.00    -0.001 A 
ENDBRANCH   8   9
ENDBRANCH   7   8
ENDBRANCH   6   7
ENDBRANCH   5   6
TORSDOF 6
ENDMDL
