MODEL 1
REMARK VINA RESULT:     -13.6      0.000      0.000
REMARK  Name = 
REMARK  5 active torsions:
REMARK  status: ('A' for Active; 'I' for Inactive)
REMARK    1  A    between atoms: C_2  and  C_4
REMARK    2  A    between atoms: C_4  and  C_5
REMARK    3  A    between atoms: C_10  and  C_11
REMARK    4  A    between atoms: C_11  and  C_12
REMARK    5  A    between atoms: C_23  and  C_25
REMARK                            x       y       z     vdW  Elec       q    Type
REMARK                         _______ _______ _______ _____ _____    ______ ____
ROOT
ATOM      5  C   UNL     1      -4.523   1.519  24.994  0.00  0.00    +0.015 C 
ATOM      6  C   UNL     1      -4.285   2.295  25.136  0.00  0.00    +0.022 C 
ATOM      7  C   UNL     1      -3.498   2.513  25.020  0.00  0.00    +0.094 C 
ATOM      8  N   UNL     1      -2.949   1.954  24.763  0.00  0.00    -0.276 N 
ATOM      9  C   UNL     1      -3.187   1.178  24.621  0.00  0.00    +0.094 C 
ATOM     10  C   UNL     1      -3.974   0.960  24.736  0.00  0.00    +0.026 C 
ATOM     23  C   UNL     1      -2.161   2.172  24.648  0.00  0.00    +0.249 C 
ATOM     24  O   UNL     1      -1.924   2.949  24.790  0.00  0.00    -0.270 OA
ENDROOT
BRANCH  23  25
ATOM     25  C   UNL     1      -1.613   1.613  24.391  0.00  0.00    +0.054 A 
ATOM     26  C   UNL     1      -1.111   1.248  24.934  0.00  0.00    +0.007 A 
ATOM     27  C   UNL     1      -0.561   0.688  24.677  0.00  0.00    +0.030 A 
ATOM     28  C   UNL     1      -0.514   0.494  23.876  0.00  0.00    +0.140 A 
ATOM     29  F   UNL     1       0.036  -0.065  23.619  0.00  0.00    -0.204 F 
ATOM     30  C   UNL     1      -1.016   0.860  23.332  0.00  0.00    +0.030 A 
ATOM     31  C   UNL     1      -1.565   1.419  23.590  0.00  0.00    +0.007 A 
ENDBRANCH  23  25
BRANCH   5   4
ATOM      4  C   UNL     1      -5.311   1.301  25.109  0.00  0.00    +0.114 C 
BRANCH   4   2
ATOM      1  O   UNL     1      -6.317   2.204  24.646  0.00  0.00    -0.246 OA
ATOM      2  C   UNL     1      -5.879   1.877  25.264  0.00  0.00    +0.365 C 
ATOM      3  O   UNL     1      -6.011   2.128  26.040  0.00  0.00    -0.246 OA
ENDBRANCH   4   2
ENDBRANCH   5   4
BRANCH  10  11
ATOM     11  C   UNL     1      -4.212   0.182  24.594  0.00  0.00    +0.047 C 
BRANCH  11  12
ATOM     12  C   UNL     1      -3.911  -0.432  25.055  0.00  0.00    +0.053 C 
ATOM     13  N   UNL     1      -3.673  -0.287  25.832  0.00  0.00    -0.274 NA
ATOM     14  C   UNL     1      -3.372  -0.902  26.293  0.00  0.00    +0.130 C 
ATOM     15  C   UNL     1      -3.309  -1.661  25.976  0.00  0.00    +0.053 C 
ATOM     16  C   UNL     1      -3.547  -1.807  25.200  0.00  0.00    -0.017 A 
ATOM     17  C   UNL     1      -3.848  -1.192  24.738  0.00  0.00    +0.009 A 
ATOM     18  C   UNL     1      -4.086  -1.337  23.962  0.00  0.00    +0.003 A 
ATOM     19  C   UNL     1      -4.023  -2.096  23.647  0.00  0.00    +0.030 A 
ATOM     20  C   UNL     1      -3.722  -2.711  24.108  0.00  0.00    +0.140 A 
ATOM     21  F   UNL     1      -3.659  -3.470  23.792  0.00  0.00    -0.204 F 
ATOM     22  C   UNL     1      -3.484  -2.566  24.884  0.00  0.00    +0.025 A 
ENDBRANCH  11  12
ENDBRANCH  10  11
TORSDOF 5
ENDMDL
MODEL 2
REMARK VINA RESULT:     -13.1      2.390      3.860
REMARK  Name = 
REMARK  5 active torsions:
REMARK  status: ('A' for Active; 'I' for Inactive)
REMARK    1  A    between atoms: C_2  and  C_4
REMARK    2  A    between atoms: C_4  and  C_5
REMARK    3  A    between atoms: C_10  and  C_11
REMARK    4  A    between atoms: C_11  and  C_12
REMARK    5  A    between atoms: C_23  and  C_25
REMARK                            x       y       z     vdW  Elec       q    Type
REMARK                         _______ _______ _______ _____ _____    ______ ____
ROOT
ATOM      5  C   UNL     1      -3.063  -0.546  24.512  0.00  0.00    +0.015 C 
ATOM      6  C   UNL     1      -2.437  -1.079  24.450  0.00  0.00    +0.022 C 
ATOM      7  C   UNL     1      -1.664  -0.823  24.573  0.00  0.00    +0.094 C 
ATOM      8  N   UNL     1      -1.514  -0.034  24.759  0.00  0.00    -0.276 N 
ATOM      9  C   UNL     1      -2.140   0.500  24.821  0.00  0.00    +0.094 C 
ATOM     10  C   UNL     1      -2.914   0.244  24.698  0.00  0.00    +0.026 C 
ATOM     23  C   UNL     1      -0.740   0.222  24.882  0.00  0.00    +0.249 C 
ATOM     24  O   UNL     1      -0.114  -0.311  24.820  0.00  0.00    -0.270 OA
ENDROOT
BRANCH  23  25
ATOM     25  C   UNL     1      -0.591   1.012  25.068  0.00  0.00    +0.054 A 
ATOM     26  C   UNL     1      -0.334   1.532  24.481  0.00  0.00    +0.007 A 
ATOM     27  C   UNL     1      -0.185   2.322  24.667  0.00  0.00    +0.030 A 
ATOM     28  C   UNL     1      -0.294   2.593  25.439  0.00  0.00    +0.140 A 
ATOM     29  F   UNL     1      -0.145   3.383  25.624  0.00  0.00    -0.204 F 
ATOM     30  C   UNL     1      -0.551   2.073  26.026  0.00  0.00    +0.030 A 
ATOM     31  C   UNL     1      -0.700   1.282  25.840  0.00  0.00    +0.007 A 
ENDBRANCH  23  25
BRANCH   5   4
ATOM      4  C   UNL     1      -3.838  -0.802  24.389  0.00  0.00    +0.114 C 
BRANCH   4   2
ATOM      1  O   UNL     1      -3.996  -2.092  24.981  0.00  0.00    -0.246 OA
ATOM      2  C   UNL     1      -3.999  -1.607  24.314  0.00  0.00    +0.365 C 
ATOM      3  O   UNL     1      -4.162  -1.927  23.570  0.00  0.00    -0.246 OA
ENDBRANCH   4   2
ENDBRANCH   5   4
BRANCH  10  11
ATOM     11  C   UNL     1      -3.540   0.778  24.760  0.00  0.00    +0.047 C 
BRANCH  11  12
ATOM     12  C   UNL     1      -3.582   1.426  24.251  0.00  0.00    +0.053 C 
ATOM     13  N   UNL     1      -3.307   1.359  23.475  0.00  0.00    -0.274 NA
ATOM     14  C   UNL     1      -3.349   2.008  22.966  0.00  0.00    +0.130 C 
ATOM     15  C   UNL     1      -3.667   2.721  23.232  0.00  0.00    +0.053 C 
ATOM     16  C   UNL     1      -3.942   2.788  24.007  0.00  0.00    -0.017 A 
ATOM     17  C   UNL     1      -3.899   2.140  24.517  0.00  0.00    +0.009 A 
ATOM     18  C   UNL     1      -4.174   2.206  25.291  0.00  0.00    +0.003 A 
ATOM     19  C   UNL     1      -4.491   2.919  25.557  0.00  0.00    +0.030 A 
ATOM     20  C   UNL     1      -4.533   3.568  25.047  0.00  0.00    +0.140 A 
ATOM     21  F   UNL     1      -4.850   4.282  25.314  0.00  0.00    -0.204 F 
ATOM     22  C   UNL     1      -4.258   3.501  24.273  0.00  0.00    +0.025 A 
ENDBRANCH  11  12
ENDBRANCH  10  11
TORSDOF 5
ENDMDL
MODEL 3
REMARK VINA RESULT:     -13.0      1.520      3.362
REMARK  Name = 
REMARK  5 active torsions:
REMARK  status: ('A' for Active; 'I' for Inactive)
REMARK    1  A    between atoms: C_2  and  C_4
REMARK    2  A    between atoms: C_4  and  C_5
REMARK    3  A    between atoms: C_10  and  C_11
REMARK    4  A    between atoms: C_11  and  C_12
REMARK    5  A    between atoms: C_23  and  C_25
REMARK                            x       y       z     vdW  Elec       q    Type
REMARK                         _______ _______ _______ _____ _____    ______ ____
ROOT
ATOM      5  C   UNL     1      -1.640   1.686  24.777  0.00  0.00    +0.015 C 
ATOM      6  C   UNL     1      -1.577   2.455  25.070  0.00  0.00    +0.022 C 
ATOM      7  C   UNL     1      -2.257   2.886  25.246  0.00  0.00    +0.094 C 
ATOM      8  N   UNL     1      -3.001   2.549  25.130  0.00  0.00    -0.276 N 
ATOM      9  C   UNL     1      -3.064   1.781  24.837  0.00  0.00    +0.094 C 
ATOM     10  C   UNL     1      -2.384   1.350  24.661  0.00  0.00    +0.026 C 
ATOM     23  C   UNL     1      -3.682   2.981  25.306  0.00  0.00    +0.249 C 
ATOM     24  O   UNL     1      -3.618   3.749  25.599  0.00  0.00    -0.270 OA
ENDROOT
BRANCH  23  25
ATOM     25  C   UNL     1      -4.425   2.644  25.190  0.00  0.00    +0.054 A 
ATOM     26  C   UNL     1      -4.840   2.331  25.830  0.00  0.00    +0.007 A 
ATOM     27  C   UNL     1      -5.585   1.993  25.714  0.00  0.00    +0.030 A 
ATOM     28  C   UNL     1      -5.914   1.969  24.957  0.00  0.00    +0.140 A 
ATOM     29  F   UNL     1      -6.657   1.631  24.842  0.00  0.00    -0.204 F 
ATOM     30  C   UNL     1      -5.498   2.282  24.317  0.00  0.00    +0.030 A 
ATOM     31  C   UNL     1      -4.754   2.620  24.434  0.00  0.00    +0.007 A 
ENDBRANCH  23  25
BRANCH   5   4
ATOM      4  C   UNL     1      -0.959   1.255  24.601  0.00  0.00    +0.114 C 
BRANCH   4   2
ATOM      1  O   UNL     1       0.215   1.729  25.262  0.00  0.00    -0.246 OA
ATOM      2  C   UNL     1      -0.228   1.633  24.572  0.00  0.00    +0.365 C 
ATOM      3  O   UNL     1       0.063   1.916  23.852  0.00  0.00    -0.246 OA
ENDBRANCH   4   2
ENDBRANCH   5   4
BRANCH  10  11
ATOM     11  C   UNL     1      -2.447   0.580  24.368  0.00  0.00    +0.047 C 
BRANCH  11  12
ATOM     12  C   UNL     1      -2.731  -0.024  24.853  0.00  0.00    +0.053 C 
ATOM     13  N   UNL     1      -2.522  -0.044  25.651  0.00  0.00    -0.274 NA
ATOM     14  C   UNL     1      -2.807  -0.649  26.137  0.00  0.00    +0.130 C 
ATOM     15  C   UNL     1      -3.299  -1.232  25.823  0.00  0.00    +0.053 C 
ATOM     16  C   UNL     1      -3.508  -1.212  25.025  0.00  0.00    -0.017 A 
ATOM     17  C   UNL     1      -3.224  -0.607  24.540  0.00  0.00    +0.009 A 
ATOM     18  C   UNL     1      -3.432  -0.586  23.742  0.00  0.00    +0.003 A 
ATOM     19  C   UNL     1      -3.924  -1.169  23.429  0.00  0.00    +0.030 A 
ATOM     20  C   UNL     1      -4.209  -1.774  23.915  0.00  0.00    +0.140 A 
ATOM     21  F   UNL     1      -4.701  -2.357  23.601  0.00  0.00    -0.204 F 
ATOM     22  C   UNL     1      -4.000  -1.794  24.712  0.00  0.00    +0.025 A 
ENDBRANCH  11  12
ENDBRANCH  10  11
TORSDOF 5
ENDMDL
MODEL 4
REMARK VINA RESULT:     -12.6      2.234      4.407
REMARK  Name = 
REMARK  5 active torsions:
REMARK  status: ('A' for Active; 'I' for Inactive)
REMARK    1  A    between atoms: C_2  and  C_4
REMARK    2  A    between atoms: C_4  and  C_5
REMARK    3  A    between atoms: C_10  and  C_11
REMARK    4  A    between atoms: C_11  and  C_12
REMARK    5  A    between atoms: C_23  and  C_25
REMARK                            x       y       z     vdW  Elec       q    Type
REMARK                         _______ _______ _______ _____ _____    ______ ____
ROOT
ATOM      5  C   UNL     1      -0.908   1.400  25.109  0.00  0.00    +0.015 C 
ATOM      6  C   UNL     1      -0.371   0.780  25.020  0.00  0.00    +0.022 C 
ATOM      7  C   UNL     1      -0.644   0.016  24.876  0.00  0.00    +0.094 C 
ATOM      8  N   UNL     1      -1.454  -0.130  24.820  0.00  0.00    -0.276 N 
ATOM      9  C   UNL     1      -1.991   0.490  24.909  0.00  0.00    +0.094 C 
ATOM     10  C   UNL     1      -1.718   1.254  25.053  0.00  0.00    +0.026 C 
ATOM     23  C   UNL     1      -1.727  -0.895  24.676  0.00  0.00    +0.249 C 
ATOM     24  O   UNL     1      -1.190  -1.514  24.588  0.00  0.00    -0.270 OA
ENDROOT
BRANCH  23  25
ATOM     25  C   UNL     1      -2.536  -1.040  24.621  0.00  0.00    +0.054 A 
ATOM     26  C   UNL     1      -2.898  -1.082  23.881  0.00  0.00    +0.007 A 
ATOM     27  C   UNL     1      -3.709  -1.227  23.825  0.00  0.00    +0.030 A 
ATOM     28  C   UNL     1      -4.158  -1.331  24.511  0.00  0.00    +0.140 A 
ATOM     29  F   UNL     1      -4.968  -1.476  24.455  0.00  0.00    -0.204 F 
ATOM     30  C   UNL     1      -3.796  -1.289  25.251  0.00  0.00    +0.030 A 
ATOM     31  C   UNL     1      -2.985  -1.144  25.306  0.00  0.00    +0.007 A 
ENDBRANCH  23  25
BRANCH   5   4
ATOM      4  C   UNL     1      -0.635   2.165  25.253  0.00  0.00    +0.114 C 
BRANCH   4   2
ATOM      1  O   UNL     1       0.727   2.341  24.859  0.00  0.00    -0.246 OA
ATOM      2  C   UNL     1       0.155   2.290  25.451  0.00  0.00    +0.365 C 
ATOM      3  O   UNL     1       0.374   2.365  26.244  0.00  0.00    -0.246 OA
ENDBRANCH   4   2
ENDBRANCH   5   4
BRANCH  10  11
ATOM     11  C   UNL     1      -2.256   1.875  25.142  0.00  0.00    +0.047 C 
BRANCH  11  12
ATOM     12  C   UNL     1      -2.735   2.099  24.509  0.00  0.00    +0.053 C 
ATOM     13  N   UNL     1      -2.432   2.095  23.741  0.00  0.00    -0.274 NA
ATOM     14  C   UNL     1      -2.912   2.320  23.108  0.00  0.00    +0.130 C 
ATOM     15  C   UNL     1      -3.694   2.548  23.244  0.00  0.00    +0.053 C 
ATOM     16  C   UNL     1      -3.996   2.552  24.011  0.00  0.00    -0.017 A 
ATOM     17  C   UNL     1      -3.516   2.327  24.645  0.00  0.00    +0.009 A 
ATOM     18  C   UNL     1      -3.818   2.331  25.412  0.00  0.00    +0.003 A 
ATOM     19  C   UNL     1      -4.599   2.558  25.547  0.00  0.00    +0.030 A 
ATOM     20  C   UNL     1      -5.079   2.783  24.913  0.00  0.00    +0.140 A 
ATOM     21  F   UNL     1      -5.860   3.011  25.049  0.00  0.00    -0.204 F 
ATOM     22  C   UNL     1      -4.777   2.779  24.146  0.00  0.00    +0.025 A 
ENDBRANCH  11  12
ENDBRANCH  10  11
TORSDOF 5
ENDMDL
MODEL 5
REMARK VINA RESULT:     -12.6      2.055      4.219
REMARK  Name = 
REMARK  5 active torsions:
REMARK  status: ('A' for Active; 'I' for Inactive)
REMARK    1  A    between atoms: C_2  and  C_4
REMARK    2  A    between atoms: C_4  and  C_5
REMARK    3  A    between atoms: C_10  and  C_11
REMARK    4  A    between atoms: C_11  and  C_12
REMARK    5  A    between atoms: C_23  and  C_25
REMARK                            x       y       z     vdW  Elec       q    Type
REMARK                         _______ _______ _______ _____ _____    ______ ____
ROOT
ATOM      5  C   UNL     1      -3.426  -0.397  24.837  0.00  0.00    +0.015 C 
ATOM      6  C   UNL     1      -4.227  -0.452  24.648  0.00  0.00    +0.022 C 
ATOM      7  C   UNL     1      -4.686   0.230  24.596  0.00  0.00    +0.094 C 
ATOM      8  N   UNL     1      -4.346   0.968  24.734  0.00  0.00    -0.276 N 
ATOM      9  C   UNL     1      -3.545   1.024  24.923  0.00  0.00    +0.094 C 
ATOM     10  C   UNL     1      -3.086   0.342  24.974  0.00  0.00    +0.026 C 
ATOM     23  C   UNL     1      -4.807   1.651  24.682  0.00  0.00    +0.249 C 
ATOM     24  O   UNL     1      -5.607   1.595  24.493  0.00  0.00    -0.270 OA
ENDROOT
BRANCH  23  25
ATOM     25  C   UNL     1      -4.466   2.389  24.820  0.00  0.00    +0.054 A 
ATOM     26  C   UNL     1      -4.202   2.846  24.185  0.00  0.00    +0.007 A 
ATOM     27  C   UNL     1      -3.861   3.585  24.323  0.00  0.00    +0.030 A 
ATOM     28  C   UNL     1      -3.784   3.867  25.095  0.00  0.00    +0.140 A 
ATOM     29  F   UNL     1      -3.443   4.605  25.232  0.00  0.00    -0.204 F 
ATOM     30  C   UNL     1      -4.047   3.410  25.729  0.00  0.00    +0.030 A 
ATOM     31  C   UNL     1      -4.388   2.671  25.591  0.00  0.00    +0.007 A 
ENDBRANCH  23  25
BRANCH   5   4
ATOM      4  C   UNL     1      -2.966  -1.080  24.889  0.00  0.00    +0.114 C 
BRANCH   4   2
ATOM      1  O   UNL     1      -3.548  -2.138  25.651  0.00  0.00    -0.246 OA
ATOM      2  C   UNL     1      -3.328  -1.819  24.923  0.00  0.00    +0.365 C 
ATOM      3  O   UNL     1      -3.471  -2.242  24.228  0.00  0.00    -0.246 OA
ENDBRANCH   4   2
ENDBRANCH   5   4
BRANCH  10  11
ATOM     11  C   UNL     1      -2.284   0.398  25.164  0.00  0.00    +0.047 C 
BRANCH  11  12
ATOM     12  C   UNL     1      -1.766   0.791  24.656  0.00  0.00    +0.053 C 
ATOM     13  N   UNL     1      -1.846   0.706  23.839  0.00  0.00    -0.274 NA
ATOM     14  C   UNL     1      -1.328   1.100  23.331  0.00  0.00    +0.130 C 
ATOM     15  C   UNL     1      -0.731   1.578  23.641  0.00  0.00    +0.053 C 
ATOM     16  C   UNL     1      -0.651   1.663  24.457  0.00  0.00    -0.017 A 
ATOM     17  C   UNL     1      -1.169   1.269  24.966  0.00  0.00    +0.009 A 
ATOM     18  C   UNL     1      -1.090   1.354  25.782  0.00  0.00    +0.003 A 
ATOM     19  C   UNL     1      -0.493   1.831  26.091  0.00  0.00    +0.030 A 
ATOM     20  C   UNL     1       0.025   2.225  25.582  0.00  0.00    +0.140 A 
ATOM     21  F   UNL     1       0.622   2.704  25.892  0.00  0.00    -0.204 F 
ATOM     22  C   UNL     1      -0.055   2.141  24.766  0.00  0.00    +0.025 A 
ENDBRANCH  11  12
ENDBRANCH  10  11
TORSDOF 5
ENDMDL
MODEL 6
REMARK VINA RESULT:     -12.3      1.583      3.713
REMARK  Name = 
REMARK  5 active torsions:
REMARK  status: ('A' for Active; 'I' for Inactive)
REMARK    1  A    between atoms: C_2  and  C_4
REMARK    2  A    between atoms: C_4  and  C_5
REMARK    3  A    between atoms: C_10  and  C_11
REMARK    4  A    between atoms: C_11  and  C_12
REMARK    5  A    between atoms: C_23  and  C_25
REMARK                            x       y       z     vdW  Elec       q    Type
REMARK                         _______ _______ _______ _____ _____    ______ ____
ROOT
ATOM      5  C   UNL     1      -4.547   1.192  24.925  0.00  0.00    +0.015 C 
ATOM      6  C   UNL     1      -4.984   0.494  24.877  0.00  0.00    +0.022 C 
ATOM      7  C   UNL     1      -4.602  -0.235  24.911  0.00  0.00    +0.094 C 
ATOM      8  N   UNL     1      -3.782  -0.269  24.993  0.00  0.00    -0.276 N 
ATOM      9  C   UNL     1      -3.345   0.429  25.041  0.00  0.00    +0.094 C 
ATOM     10  C   UNL     1      -3.727   1.159  25.007  0.00  0.00    +0.026 C 
ATOM     23  C   UNL     1      -3.400  -0.999  25.027  0.00  0.00    +0.249 C 
ATOM     24  O   UNL     1      -3.837  -1.696  24.979  0.00  0.00    -0.270 OA
ENDROOT
BRANCH  23  25
ATOM     25  C   UNL     1      -2.580  -1.031  25.109  0.00  0.00    +0.054 A 
ATOM     26  C   UNL     1      -2.105  -1.180  24.451  0.00  0.00    +0.007 A 
ATOM     27  C   UNL     1      -1.284  -1.212  24.533  0.00  0.00    +0.030 A 
ATOM     28  C   UNL     1      -0.939  -1.096  25.274  0.00  0.00    +0.140 A 
ATOM     29  F   UNL     1      -0.119  -1.128  25.356  0.00  0.00    -0.204 F 
ATOM     30  C   UNL     1      -1.414  -0.947  25.932  0.00  0.00    +0.030 A 
ATOM     31  C   UNL     1      -2.234  -0.915  25.849  0.00  0.00    +0.007 A 
ENDBRANCH  23  25
BRANCH   5   4
ATOM      4  C   UNL     1      -4.930   1.922  24.891  0.00  0.00    +0.114 C 
BRANCH   4   2
ATOM      1  O   UNL     1      -6.338   1.889  24.648  0.00  0.00    -0.246 OA
ATOM      2  C   UNL     1      -5.704   1.995  25.166  0.00  0.00    +0.365 C 
ATOM      3  O   UNL     1      -5.845   2.174  25.959  0.00  0.00    -0.246 OA
ENDBRANCH   4   2
ENDBRANCH   5   4
BRANCH  10  11
ATOM     11  C   UNL     1      -3.290   1.857  25.055  0.00  0.00    +0.047 C 
BRANCH  11  12
ATOM     12  C   UNL     1      -2.739   2.040  24.469  0.00  0.00    +0.053 C 
ATOM     13  N   UNL     1      -2.888   1.832  23.684  0.00  0.00    -0.274 NA
ATOM     14  C   UNL     1      -2.338   2.015  23.097  0.00  0.00    +0.130 C 
ATOM     15  C   UNL     1      -1.639   2.408  23.295  0.00  0.00    +0.053 C 
ATOM     16  C   UNL     1      -1.490   2.616  24.079  0.00  0.00    -0.017 A 
ATOM     17  C   UNL     1      -2.041   2.433  24.667  0.00  0.00    +0.009 A 
ATOM     18  C   UNL     1      -1.892   2.641  25.451  0.00  0.00    +0.003 A 
ATOM     19  C   UNL     1      -1.194   3.033  25.648  0.00  0.00    +0.030 A 
ATOM     20  C   UNL     1      -0.644   3.216  25.061  0.00  0.00    +0.140 A 
ATOM     21  F   UNL     1       0.055   3.608  25.259  0.00  0.00    -0.204 F 
ATOM     22  C   UNL     1      -0.792   3.008  24.277  0.00  0.00    +0.025 A 
ENDBRANCH  11  12
ENDBRANCH  10  11
TORSDOF 5
ENDMDL
