MODEL 1
REMARK VINA RESULT:      -9.9      0.000      0.000
REMARK  Name = 
REMARK  7 active torsions:
REMARK  status: ('A' for Active; 'I' for Inactive)
REMARK    1  A    between atoms: O_2  and  C_3
REMARK    2  A    between atoms: C_3  and  C_4
REMARK    3  A    between atoms: C_10  and  C_13
REMARK    4  A    between atoms: C_16  and  C_18
REMARK    5  A    between atoms: N_22  and  C_23
REMARK    6  A    between atoms: C_23  and  C_24
REMARK    7  A    between atoms: C_27  and  C_30
REMARK                            x       y       z     vdW  Elec       q    Type
REMARK                         _______ _______ _______ _____ _____    ______ ____
ROOT
ATOM     13  C   UNL     1      -1.096  -0.090  24.478  0.00  0.00    +0.205 A 
ATOM     14  N   UNL     1      -1.212  -0.159  25.293  0.00  0.00    -0.056 NA
ATOM     15  O   UNL     1      -2.025  -0.145  25.436  0.00  0.00    -0.336 OA
ATOM     16  C   UNL     1      -2.410  -0.069  24.711  0.00  0.00    +0.251 A 
ATOM     17  N   UNL     1      -1.836  -0.035  24.119  0.00  0.00    -0.190 NA
ENDROOT
BRANCH  13  10
ATOM      4  C   UNL     1       2.303   0.619  22.983  0.00  0.00    +0.277 C 
ATOM      5  O   UNL     1       2.057   1.276  23.418  0.00  0.00    -0.270 OA
ATOM      6  N   UNL     1       1.820  -0.047  22.933  0.00  0.00    -0.158 NA
ATOM      7  C   UNL     1       1.091  -0.058  23.320  0.00  0.00    +0.155 A 
ATOM      8  N   UNL     1       0.608  -0.725  23.271  0.00  0.00    -0.227 NA
ATOM      9  C   UNL     1      -0.121  -0.736  23.657  0.00  0.00    +0.103 A 
ATOM     10  C   UNL     1      -0.367  -0.079  24.092  0.00  0.00    +0.058 A 
ATOM     11  C   UNL     1       0.116   0.587  24.141  0.00  0.00    +0.008 A 
ATOM     12  C   UNL     1       0.845   0.598  23.755  0.00  0.00    +0.036 A 
BRANCH   4   3
ATOM      3  C   UNL     1       3.032   0.630  22.596  0.00  0.00    +0.229 C 
BRANCH   3   2
ATOM      1  C   UNL     1       4.446   0.815  22.690  0.00  0.00    +0.175 C 
ATOM      2  O   UNL     1       3.684   0.987  22.955  0.00  0.00    -0.342 OA
ENDBRANCH   3   2
ENDBRANCH   4   3
ENDBRANCH  13  10
BRANCH  16  18
ATOM     18  C   UNL     1      -3.226  -0.032  24.596  0.00  0.00    +0.138 C 
ATOM     19  C   UNL     1      -3.726  -0.675  24.461  0.00  0.00    +0.027 C 
ATOM     20  C   UNL     1      -4.495  -0.387  24.378  0.00  0.00    +0.019 C 
ATOM     21  C   UNL     1      -4.470   0.433  24.463  0.00  0.00    +0.073 C 
ATOM     22  N   UNL     1      -3.686   0.653  24.598  0.00  0.00    -0.263 NA
BRANCH  22  23
ATOM     23  C   UNL     1      -3.411   1.421  24.714  0.00  0.00    +0.099 C 
BRANCH  23  24
ATOM     24  C   UNL     1      -3.943   2.029  24.879  0.00  0.00    -0.006 A 
ATOM     25  C   UNL     1      -4.175   2.548  24.280  0.00  0.00    -0.003 A 
ATOM     26  C   UNL     1      -4.707   3.157  24.445  0.00  0.00    +0.004 A 
ATOM     27  C   UNL     1      -5.007   3.247  25.208  0.00  0.00    +0.071 A 
ATOM     28  C   UNL     1      -4.776   2.728  25.807  0.00  0.00    +0.004 A 
ATOM     29  C   UNL     1      -4.243   2.120  25.641  0.00  0.00    -0.003 A 
BRANCH  27  30
ATOM     30  C   UNL     1      -5.540   3.855  25.373  0.00  0.00    +0.419 C 
ATOM     31  F   UNL     1      -6.072   4.463  25.538  0.00  0.00    -0.166 F 
ATOM     32  F   UNL     1      -4.932   4.409  25.293  0.00  0.00    -0.166 F 
ATOM     33  F   UNL     1      -6.147   3.303  25.453  0.00  0.00    -0.166 F 
ENDBRANCH  27  30
ENDBRANCH  23  24
ENDBRANCH  22  23
ENDBRANCH  16  18
TORSDOF 7
ENDMDL
MODEL 2
REMARK VINA RESULT:      -9.4      2.004      2.349
REMARK  Name = 
REMARK  7 active torsions:
REMARK  status: ('A' for Active; 'I' for Inactive)
REMARK    1  A    between atoms: O_2  and  C_3
REMARK    2  A    between atoms: C_3  and  C_4
REMARK    3  A    between atoms: C_10  and  C_13
REMARK    4  A    between atoms: C_16  and  C_18
REMARK    5  A    between atoms: N_22  and  C_23
REMARK    6  A    between atoms: C_23  and  C_24
REMARK    7  A    between atoms: C_27  and  C_30
REMARK                            x       y       z     vdW  Elec       q    Type
REMARK                         _______ _______ _______ _____ _____    ______ ____
ROOT
ATOM     13  C   UNL     1      -0.417   0.334  23.826  0.00  0.00    +0.205 A 
ATOM     14  N   UNL     1      -0.775  -0.180  24.363  0.00  0.00    -0.056 NA
ATOM     15  O   UNL     1      -1.535   0.101  24.517  0.00  0.00    -0.336 OA
ATOM     16  C   UNL     1      -1.647   0.788  24.076  0.00  0.00    +0.251 A 
ATOM     17  N   UNL     1      -0.956   0.932  23.648  0.00  0.00    -0.190 NA
ENDROOT
BRANCH  13  10
ATOM      4  C   UNL     1       3.214   0.596  22.808  0.00  0.00    +0.277 C 
ATOM      5  O   UNL     1       3.031   1.219  23.317  0.00  0.00    -0.270 OA
ATOM      6  N   UNL     1       2.635   0.046  22.605  0.00  0.00    -0.158 NA
ATOM      7  C   UNL     1       1.872   0.118  22.910  0.00  0.00    +0.155 A 
ATOM      8  N   UNL     1       1.292  -0.434  22.706  0.00  0.00    -0.227 NA
ATOM      9  C   UNL     1       0.529  -0.361  23.012  0.00  0.00    +0.103 A 
ATOM     10  C   UNL     1       0.346   0.262  23.521  0.00  0.00    +0.058 A 
ATOM     11  C   UNL     1       0.925   0.812  23.724  0.00  0.00    +0.008 A 
ATOM     12  C   UNL     1       1.688   0.740  23.419  0.00  0.00    +0.036 A 
BRANCH   4   3
ATOM      3  C   UNL     1       3.977   0.524  22.503  0.00  0.00    +0.229 C 
BRANCH   3   2
ATOM      1  C   UNL     1       5.265   0.192  23.026  0.00  0.00    +0.175 C 
ATOM      2  O   UNL     1       4.629   0.715  22.972  0.00  0.00    -0.342 OA
ENDBRANCH   3   2
ENDBRANCH   4   3
ENDBRANCH  13  10
BRANCH  16  18
ATOM     18  C   UNL     1      -2.330   1.251  24.063  0.00  0.00    +0.138 C 
ATOM     19  C   UNL     1      -2.993   1.124  23.588  0.00  0.00    +0.027 C 
ATOM     20  C   UNL     1      -3.543   1.717  23.754  0.00  0.00    +0.019 C 
ATOM     21  C   UNL     1      -3.220   2.209  24.331  0.00  0.00    +0.073 C 
ATOM     22  N   UNL     1      -2.470   1.922  24.522  0.00  0.00    -0.263 NA
BRANCH  22  23
ATOM     23  C   UNL     1      -1.952   2.248  25.075  0.00  0.00    +0.099 C 
BRANCH  23  24
ATOM     24  C   UNL     1      -1.862   3.066  25.123  0.00  0.00    -0.006 A 
ATOM     25  C   UNL     1      -1.257   3.439  24.704  0.00  0.00    -0.003 A 
ATOM     26  C   UNL     1      -1.166   4.258  24.752  0.00  0.00    +0.004 A 
ATOM     27  C   UNL     1      -1.679   4.703  25.219  0.00  0.00    +0.071 A 
ATOM     28  C   UNL     1      -2.284   4.330  25.638  0.00  0.00    +0.004 A 
ATOM     29  C   UNL     1      -2.375   3.511  25.590  0.00  0.00    -0.003 A 
BRANCH  27  30
ATOM     30  C   UNL     1      -1.589   5.522  25.267  0.00  0.00    +0.419 C 
ATOM     31  F   UNL     1      -1.498   6.340  25.315  0.00  0.00    -0.166 F 
ATOM     32  F   UNL     1      -2.313   5.579  25.659  0.00  0.00    -0.166 F 
ATOM     33  F   UNL     1      -0.865   5.465  24.876  0.00  0.00    -0.166 F 
ENDBRANCH  27  30
ENDBRANCH  23  24
ENDBRANCH  22  23
ENDBRANCH  16  18
TORSDOF 7
ENDMDL
MODEL 3
REMARK VINA RESULT:      -9.3      2.498      3.548
REMARK  Name = 
REMARK  7 active torsions:
REMARK  status: ('A' for Active; 'I' for Inactive)
REMARK    1  A    between atoms: O_2  and  C_3
REMARK    2  A    between atoms: C_3  and  C_4
REMARK    3  A    between atoms: C_10  and  C_13
REMARK    4  A    between atoms: C_16  and  C_18
REMARK    5  A    between atoms: N_22  and  C_23
REMARK    6  A    between atoms: C_23  and  C_24
REMARK    7  A    between atoms: C_27  and  C_30
REMARK                            x       y       z     vdW  Elec       q    Type
REMARK                         _______ _______ _______ _____ _____    ______ ____
ROOT
ATOM     13  C   UNL     1      -1.610   2.074  24.787  0.00  0.00    +0.205 A 
ATOM     14  N   UNL     1      -1.875   2.676  25.286  0.00  0.00    -0.056 NA
ATOM     15  O   UNL     1      -2.692   2.597  25.369  0.00  0.00    -0.336 OA
ATOM     16  C   UNL     1      -2.932   1.947  24.921  0.00  0.00    +0.251 A 
ATOM     17  N   UNL     1      -2.263   1.624  24.562  0.00  0.00    -0.190 NA
ENDROOT
BRANCH  13  10
ATOM      4  C   UNL     1       1.700   0.926  23.367  0.00  0.00    +0.277 C 
ATOM      5  O   UNL     1       1.104   0.418  23.107  0.00  0.00    -0.270 OA
ATOM      6  N   UNL     1       1.515   1.561  23.859  0.00  0.00    -0.158 NA
ATOM      7  C   UNL     1       0.734   1.690  24.091  0.00  0.00    +0.155 A 
ATOM      8  N   UNL     1       0.549   2.326  24.583  0.00  0.00    -0.227 NA
ATOM      9  C   UNL     1      -0.233   2.454  24.815  0.00  0.00    +0.103 A 
ATOM     10  C   UNL     1      -0.828   1.946  24.555  0.00  0.00    +0.058 A 
ATOM     11  C   UNL     1      -0.644   1.311  24.064  0.00  0.00    +0.008 A 
ATOM     12  C   UNL     1       0.138   1.182  23.832  0.00  0.00    +0.036 A 
BRANCH   4   3
ATOM      3  C   UNL     1       2.481   0.798  23.135  0.00  0.00    +0.229 C 
BRANCH   3   2
ATOM      1  C   UNL     1       3.424   0.196  22.244  0.00  0.00    +0.175 C 
ATOM      2  O   UNL     1       2.647   0.287  22.508  0.00  0.00    -0.342 OA
ENDBRANCH   3   2
ENDBRANCH   4   3
ENDBRANCH  13  10
BRANCH  16  18
ATOM     18  C   UNL     1      -3.705   1.669  24.845  0.00  0.00    +0.138 C 
ATOM     19  C   UNL     1      -4.357   2.109  24.596  0.00  0.00    +0.027 C 
ATOM     20  C   UNL     1      -5.017   1.613  24.602  0.00  0.00    +0.019 C 
ATOM     21  C   UNL     1      -4.773   0.867  24.855  0.00  0.00    +0.073 C 
ATOM     22  N   UNL     1      -3.962   0.901  25.005  0.00  0.00    -0.263 NA
BRANCH  22  23
ATOM     23  C   UNL     1      -3.491   0.278  25.270  0.00  0.00    +0.099 C 
BRANCH  23  24
ATOM     24  C   UNL     1      -3.633  -0.489  25.000  0.00  0.00    -0.006 A 
ATOM     25  C   UNL     1      -3.564  -1.128  25.518  0.00  0.00    -0.003 A 
ATOM     26  C   UNL     1      -3.705  -1.894  25.249  0.00  0.00    +0.004 A 
ATOM     27  C   UNL     1      -3.916  -2.023  24.462  0.00  0.00    +0.071 A 
ATOM     28  C   UNL     1      -3.984  -1.385  23.943  0.00  0.00    +0.004 A 
ATOM     29  C   UNL     1      -3.843  -0.617  24.213  0.00  0.00    -0.003 A 
BRANCH  27  30
ATOM     30  C   UNL     1      -4.057  -2.790  24.192  0.00  0.00    +0.419 C 
ATOM     31  F   UNL     1      -4.198  -3.556  23.923  0.00  0.00    -0.166 F 
ATOM     32  F   UNL     1      -4.416  -2.485  23.514  0.00  0.00    -0.166 F 
ATOM     33  F   UNL     1      -3.699  -3.094  24.869  0.00  0.00    -0.166 F 
ENDBRANCH  27  30
ENDBRANCH  23  24
ENDBRANCH  22  23
ENDBRANCH  16  18
TORSDOF 7
ENDMDL
MODEL 4
REMARK VINA RESULT:      -9.0      2.269      3.704
REMARK  Name = 
REMARK  7 active torsions:
REMARK  status: ('A' for Active; 'I' for Inactive)
REMARK    1  A    between atoms: O_2  and  C_3
REMARK    2  A    between atoms: C_3  and  C_4
REMARK    3  A    between atoms: C_10  and  C_13
REMARK    4  A    between atoms: C_16  and  C_18
REMARK    5  A    between atoms: N_22  and  C_23
REMARK    6  A    between atoms: C_23  and  C_24
REMARK    7  A    between atoms: C_27  and  C_30
REMARK                            x       y       z     vdW  Elec       q    Type
REMARK                         _______ _______ _______ _____ _____    ______ ____
ROOT
ATOM     13  C   UNL     1      -0.383   1.889  25.065  0.00  0.00    +0.205 A 
ATOM     14  N   UNL     1       0.261   2.215  25.466  0.00  0.00    -0.056 NA
ATOM     15  O   UNL     1       0.125   3.024  25.551  0.00  0.00    -0.336 OA
ATOM     16  C   UNL     1      -0.603   3.199  25.204  0.00  0.00    +0.251 A 
ATOM     17  N   UNL     1      -0.916   2.497  24.903  0.00  0.00    -0.190 NA
ENDROOT
BRANCH  13  10
ATOM      4  C   UNL     1      -1.287  -1.760  24.669  0.00  0.00    +0.277 C 
ATOM      5  O   UNL     1      -1.727  -1.439  25.289  0.00  0.00    -0.270 OA
ATOM      6  N   UNL     1      -0.755  -1.288  24.252  0.00  0.00    -0.158 NA
ATOM      7  C   UNL     1      -0.662  -0.493  24.455  0.00  0.00    +0.155 A 
ATOM      8  N   UNL     1      -0.129  -0.020  24.038  0.00  0.00    -0.227 NA
ATOM      9  C   UNL     1      -0.036   0.774  24.241  0.00  0.00    +0.103 A 
ATOM     10  C   UNL     1      -0.476   1.095  24.861  0.00  0.00    +0.058 A 
ATOM     11  C   UNL     1      -1.008   0.623  25.278  0.00  0.00    +0.008 A 
ATOM     12  C   UNL     1      -1.101  -0.171  25.075  0.00  0.00    +0.036 A 
BRANCH   4   3
ATOM      3  C   UNL     1      -1.380  -2.554  24.465  0.00  0.00    +0.229 C 
BRANCH   3   2
ATOM      1  C   UNL     1      -2.489  -3.325  23.999  0.00  0.00    +0.175 C 
ATOM      2  O   UNL     1      -2.097  -2.936  24.612  0.00  0.00    -0.342 OA
ENDBRANCH   3   2
ENDBRANCH   4   3
ENDBRANCH  13  10
BRANCH  16  18
ATOM     18  C   UNL     1      -0.955   3.943  25.163  0.00  0.00    +0.138 C 
ATOM     19  C   UNL     1      -0.640   4.610  24.792  0.00  0.00    +0.027 C 
ATOM     20  C   UNL     1      -1.175   5.231  24.886  0.00  0.00    +0.019 C 
ATOM     21  C   UNL     1      -1.820   4.949  25.316  0.00  0.00    +0.073 C 
ATOM     22  N   UNL     1      -1.685   4.153  25.487  0.00  0.00    -0.263 NA
BRANCH  22  23
ATOM     23  C   UNL     1      -2.190   3.655  25.907  0.00  0.00    +0.099 C 
BRANCH  23  24
ATOM     24  C   UNL     1      -3.007   3.724  25.818  0.00  0.00    -0.006 A 
ATOM     25  C   UNL     1      -3.377   3.411  25.150  0.00  0.00    -0.003 A 
ATOM     26  C   UNL     1      -4.194   3.481  25.061  0.00  0.00    +0.004 A 
ATOM     27  C   UNL     1      -4.641   3.863  25.639  0.00  0.00    +0.071 A 
ATOM     28  C   UNL     1      -4.272   4.176  26.307  0.00  0.00    +0.004 A 
ATOM     29  C   UNL     1      -3.454   4.106  26.396  0.00  0.00    -0.003 A 
BRANCH  27  30
ATOM     30  C   UNL     1      -5.459   3.933  25.549  0.00  0.00    +0.419 C 
ATOM     31  F   UNL     1      -6.275   4.002  25.460  0.00  0.00    -0.166 F 
ATOM     32  F   UNL     1      -5.543   3.124  25.690  0.00  0.00    -0.166 F 
ATOM     33  F   UNL     1      -5.374   4.741  25.409  0.00  0.00    -0.166 F 
ENDBRANCH  27  30
ENDBRANCH  23  24
ENDBRANCH  22  23
ENDBRANCH  16  18
TORSDOF 7
ENDMDL
MODEL 5
REMARK VINA RESULT:      -9.0      3.612      4.637
REMARK  Name = 
REMARK  7 active torsions:
REMARK  status: ('A' for Active; 'I' for Inactive)
REMARK    1  A    between atoms: O_2  and  C_3
REMARK    2  A    between atoms: C_3  and  C_4
REMARK    3  A    between atoms: C_10  and  C_13
REMARK    4  A    between atoms: C_16  and  C_18
REMARK    5  A    between atoms: N_22  and  C_23
REMARK    6  A    between atoms: C_23  and  C_24
REMARK    7  A    between atoms: C_27  and  C_30
REMARK                            x       y       z     vdW  Elec       q    Type
REMARK                         _______ _______ _______ _____ _____    ______ ____
ROOT
ATOM     13  C   UNL     1      -4.913   0.934  25.261  0.00  0.00    +0.205 A 
ATOM     14  N   UNL     1      -5.584   0.984  25.740  0.00  0.00    -0.056 NA
ATOM     15  O   UNL     1      -5.745   1.783  25.870  0.00  0.00    -0.336 OA
ATOM     16  C   UNL     1      -5.175   2.226  25.472  0.00  0.00    +0.251 A 
ATOM     17  N   UNL     1      -4.661   1.702  25.096  0.00  0.00    -0.190 NA
ENDROOT
BRANCH  13  10
ATOM      4  C   UNL     1      -2.910  -2.212  24.649  0.00  0.00    +0.277 C 
ATOM      5  O   UNL     1      -2.680  -1.882  25.370  0.00  0.00    -0.270 OA
ATOM      6  N   UNL     1      -3.493  -1.848  24.196  0.00  0.00    -0.158 NA
ATOM      7  C   UNL     1      -3.848  -1.152  24.462  0.00  0.00    +0.155 A 
ATOM      8  N   UNL     1      -4.433  -0.787  24.008  0.00  0.00    -0.227 NA
ATOM      9  C   UNL     1      -4.788  -0.091  24.274  0.00  0.00    +0.103 A 
ATOM     10  C   UNL     1      -4.558   0.239  24.995  0.00  0.00    +0.058 A 
ATOM     11  C   UNL     1      -3.975  -0.126  25.448  0.00  0.00    +0.008 A 
ATOM     12  C   UNL     1      -3.620  -0.821  25.182  0.00  0.00    +0.036 A 
BRANCH   4   3
ATOM      3  C   UNL     1      -2.555  -2.908  24.383  0.00  0.00    +0.229 C 
BRANCH   3   2
ATOM      1  C   UNL     1      -1.403  -3.330  23.648  0.00  0.00    +0.175 C 
ATOM      2  O   UNL     1      -1.734  -2.947  24.300  0.00  0.00    -0.342 OA
ENDBRANCH   3   2
ENDBRANCH   4   3
ENDBRANCH  13  10
BRANCH  16  18
ATOM     18  C   UNL     1      -5.127   3.049  25.454  0.00  0.00    +0.138 C 
ATOM     19  C   UNL     1      -5.758   3.570  25.348  0.00  0.00    +0.027 C 
ATOM     20  C   UNL     1      -5.460   4.339  25.367  0.00  0.00    +0.019 C 
ATOM     21  C   UNL     1      -4.645   4.294  25.483  0.00  0.00    +0.073 C 
ATOM     22  N   UNL     1      -4.439   3.497  25.537  0.00  0.00    -0.263 NA
BRANCH  22  23
ATOM     23  C   UNL     1      -3.678   3.200  25.654  0.00  0.00    +0.099 C 
BRANCH  23  24
ATOM     24  C   UNL     1      -3.022   3.675  25.500  0.00  0.00    -0.006 A 
ATOM     25  C   UNL     1      -2.686   3.683  24.745  0.00  0.00    -0.003 A 
ATOM     26  C   UNL     1      -2.030   4.158  24.592  0.00  0.00    +0.004 A 
ATOM     27  C   UNL     1      -1.708   4.624  25.191  0.00  0.00    +0.071 A 
ATOM     28  C   UNL     1      -2.043   4.616  25.945  0.00  0.00    +0.004 A 
ATOM     29  C   UNL     1      -2.700   4.141  26.099  0.00  0.00    -0.003 A 
BRANCH  27  30
ATOM     30  C   UNL     1      -1.051   5.100  25.037  0.00  0.00    +0.419 C 
ATOM     31  F   UNL     1      -0.395   5.574  24.883  0.00  0.00    -0.166 F 
ATOM     32  F   UNL     1      -0.574   4.427  24.996  0.00  0.00    -0.166 F 
ATOM     33  F   UNL     1      -1.527   5.771  25.078  0.00  0.00    -0.166 F 
ENDBRANCH  27  30
ENDBRANCH  23  24
ENDBRANCH  22  23
ENDBRANCH  16  18
TORSDOF 7
ENDMDL
MODEL 6
REMARK VINA RESULT:      -8.9      1.338      1.930
REMARK  Name = 
REMARK  7 active torsions:
REMARK  status: ('A' for Active; 'I' for Inactive)
REMARK    1  A    between atoms: O_2  and  C_3
REMARK    2  A    between atoms: C_3  and  C_4
REMARK    3  A    between atoms: C_10  and  C_13
REMARK    4  A    between atoms: C_16  and  C_18
REMARK    5  A    between atoms: N_22  and  C_23
REMARK    6  A    between atoms: C_23  and  C_24
REMARK    7  A    between atoms: C_27  and  C_30
REMARK                            x       y       z     vdW  Elec       q    Type
REMARK                         _______ _______ _______ _____ _____    ______ ____
ROOT
ATOM     13  C   UNL     1      -0.302   0.980  24.195  0.00  0.00    +0.205 A 
ATOM     14  N   UNL     1      -0.883   0.456  24.458  0.00  0.00    -0.056 NA
ATOM     15  O   UNL     1      -1.490   0.899  24.800  0.00  0.00    -0.336 OA
ATOM     16  C   UNL     1      -1.283   1.696  24.749  0.00  0.00    +0.251 A 
ATOM     17  N   UNL     1      -0.549   1.746  24.375  0.00  0.00    -0.190 NA
ENDROOT
BRANCH  13  10
ATOM      4  C   UNL     1       3.181   0.635  22.766  0.00  0.00    +0.277 C 
ATOM      5  O   UNL     1       3.142   1.324  23.220  0.00  0.00    -0.270 OA
ATOM      6  N   UNL     1       2.516   0.153  22.690  0.00  0.00    -0.158 NA
ATOM      7  C   UNL     1       1.812   0.360  23.066  0.00  0.00    +0.155 A 
ATOM      8  N   UNL     1       1.146  -0.122  22.990  0.00  0.00    -0.227 NA
ATOM      9  C   UNL     1       0.441   0.085  23.366  0.00  0.00    +0.103 A 
ATOM     10  C   UNL     1       0.403   0.773  23.819  0.00  0.00    +0.058 A 
ATOM     11  C   UNL     1       1.067   1.255  23.896  0.00  0.00    +0.008 A 
ATOM     12  C   UNL     1       1.772   1.048  23.519  0.00  0.00    +0.036 A 
BRANCH   4   3
ATOM      3  C   UNL     1       3.885   0.428  22.390  0.00  0.00    +0.229 C 
BRANCH   3   2
ATOM      1  C   UNL     1       5.191   0.056  22.838  0.00  0.00    +0.175 C 
ATOM      2  O   UNL     1       4.610   0.632  22.729  0.00  0.00    -0.342 OA
ENDBRANCH   3   2
ENDBRANCH   4   3
ENDBRANCH  13  10
BRANCH  16  18
ATOM     18  C   UNL     1      -1.731   2.332  25.024  0.00  0.00    +0.138 C 
ATOM     19  C   UNL     1      -1.455   2.953  25.492  0.00  0.00    +0.027 C 
ATOM     20  C   UNL     1      -2.088   3.464  25.636  0.00  0.00    +0.019 C 
ATOM     21  C   UNL     1      -2.754   3.158  25.257  0.00  0.00    +0.073 C 
ATOM     22  N   UNL     1      -2.533   2.458  24.879  0.00  0.00    -0.263 NA
BRANCH  22  23
ATOM     23  C   UNL     1      -3.028   1.972  24.434  0.00  0.00    +0.099 C 
BRANCH  23  24
ATOM     24  C   UNL     1      -3.838   1.956  24.587  0.00  0.00    -0.006 A 
ATOM     25  C   UNL     1      -4.329   2.543  24.276  0.00  0.00    -0.003 A 
ATOM     26  C   UNL     1      -5.139   2.528  24.430  0.00  0.00    +0.004 A 
ATOM     27  C   UNL     1      -5.459   1.926  24.893  0.00  0.00    +0.071 A 
ATOM     28  C   UNL     1      -4.970   1.339  25.204  0.00  0.00    +0.004 A 
ATOM     29  C   UNL     1      -4.159   1.354  25.050  0.00  0.00    -0.003 A 
BRANCH  27  30
ATOM     30  C   UNL     1      -6.270   1.910  25.047  0.00  0.00    +0.419 C 
ATOM     31  F   UNL     1      -7.080   1.895  25.200  0.00  0.00    -0.166 F 
ATOM     32  F   UNL     1      -6.388   1.441  24.378  0.00  0.00    -0.166 F 
ATOM     33  F   UNL     1      -6.153   2.379  25.715  0.00  0.00    -0.166 F 
ENDBRANCH  27  30
ENDBRANCH  23  24
ENDBRANCH  22  23
ENDBRANCH  16  18
TORSDOF 7
ENDMDL
MODEL 7
REMARK VINA RESULT:      -8.8      3.021      5.919
REMARK  Name = 
REMARK  7 active torsions:
REMARK  status: ('A' for Active; 'I' for Inactive)
REMARK    1  A    between atoms: O_2  and  C_3
REMARK    2  A    between atoms: C_3  and  C_4
REMARK    3  A    between atoms: C_10  and  C_13
REMARK    4  A    between atoms: C_16  and  C_18
REMARK    5  A    between atoms: N_22  and  C_23
REMARK    6  A    between atoms: C_23  and  C_24
REMARK    7  A    between atoms: C_27  and  C_30
REMARK                            x       y       z     vdW  Elec       q    Type
REMARK                         _______ _______ _______ _____ _____    ______ ____
ROOT
ATOM     13  C   UNL     1      -1.178   2.049  25.181  0.00  0.00    +0.205 A 
ATOM     14  N   UNL     1      -0.432   2.069  25.534  0.00  0.00    -0.056 NA
ATOM     15  O   UNL     1       0.005   1.432  25.242  0.00  0.00    -0.336 OA
ATOM     16  C   UNL     1      -0.471   1.019  24.709  0.00  0.00    +0.251 A 
ATOM     17  N   UNL     1      -1.202   1.401  24.672  0.00  0.00    -0.190 NA
ENDROOT
BRANCH  13  10
ATOM      4  C   UNL     1      -4.393   4.020  25.441  0.00  0.00    +0.277 C 
ATOM      5  O   UNL     1      -4.540   3.318  25.032  0.00  0.00    -0.270 OA
ATOM      6  N   UNL     1      -3.634   4.187  25.716  0.00  0.00    -0.158 NA
ATOM      7  C   UNL     1      -3.020   3.653  25.582  0.00  0.00    +0.155 A 
ATOM      8  N   UNL     1      -2.260   3.820  25.857  0.00  0.00    -0.227 NA
ATOM      9  C   UNL     1      -1.646   3.285  25.723  0.00  0.00    +0.103 A 
ATOM     10  C   UNL     1      -1.792   2.583  25.315  0.00  0.00    +0.058 A 
ATOM     11  C   UNL     1      -2.551   2.416  25.040  0.00  0.00    +0.008 A 
ATOM     12  C   UNL     1      -3.165   2.951  25.174  0.00  0.00    +0.036 A 
BRANCH   4   3
ATOM      3  C   UNL     1      -5.007   4.555  25.575  0.00  0.00    +0.229 C 
BRANCH   3   2
ATOM      1  C   UNL     1      -6.408   4.835  25.626  0.00  0.00    +0.175 C 
ATOM      2  O   UNL     1      -5.789   4.291  25.586  0.00  0.00    -0.342 OA
ENDBRANCH   3   2
ENDBRANCH   4   3
ENDBRANCH  13  10
BRANCH  16  18
ATOM     18  C   UNL     1      -0.254   0.344  24.288  0.00  0.00    +0.138 C 
ATOM     19  C   UNL     1       0.242   0.323  23.628  0.00  0.00    +0.027 C 
ATOM     20  C   UNL     1       0.307  -0.463  23.384  0.00  0.00    +0.019 C 
ATOM     21  C   UNL     1      -0.147  -0.926  23.893  0.00  0.00    +0.073 C 
ATOM     22  N   UNL     1      -0.494  -0.428  24.451  0.00  0.00    -0.263 NA
BRANCH  22  23
ATOM     23  C   UNL     1      -0.994  -0.660  25.065  0.00  0.00    +0.099 C 
BRANCH  23  24
ATOM     24  C   UNL     1      -1.570  -1.234  24.933  0.00  0.00    -0.006 A 
ATOM     25  C   UNL     1      -1.366  -2.034  24.938  0.00  0.00    -0.003 A 
ATOM     26  C   UNL     1      -1.943  -2.608  24.806  0.00  0.00    +0.004 A 
ATOM     27  C   UNL     1      -2.724  -2.384  24.668  0.00  0.00    +0.071 A 
ATOM     28  C   UNL     1      -2.930  -1.585  24.662  0.00  0.00    +0.004 A 
ATOM     29  C   UNL     1      -2.352  -1.010  24.795  0.00  0.00    -0.003 A 
BRANCH  27  30
ATOM     30  C   UNL     1      -3.302  -2.958  24.535  0.00  0.00    +0.419 C 
ATOM     31  F   UNL     1      -3.879  -3.532  24.403  0.00  0.00    -0.166 F 
ATOM     32  F   UNL     1      -3.490  -2.955  25.339  0.00  0.00    -0.166 F 
ATOM     33  F   UNL     1      -3.114  -2.962  23.732  0.00  0.00    -0.166 F 
ENDBRANCH  27  30
ENDBRANCH  23  24
ENDBRANCH  22  23
ENDBRANCH  16  18
TORSDOF 7
ENDMDL
MODEL 8
REMARK VINA RESULT:      -8.8      3.573      4.478
REMARK  Name = 
REMARK  7 active torsions:
REMARK  status: ('A' for Active; 'I' for Inactive)
REMARK    1  A    between atoms: O_2  and  C_3
REMARK    2  A    between atoms: C_3  and  C_4
REMARK    3  A    between atoms: C_10  and  C_13
REMARK    4  A    between atoms: C_16  and  C_18
REMARK    5  A    between atoms: N_22  and  C_23
REMARK    6  A    between atoms: C_23  and  C_24
REMARK    7  A    between atoms: C_27  and  C_30
REMARK                            x       y       z     vdW  Elec       q    Type
REMARK                         _______ _______ _______ _____ _____    ______ ____
ROOT
ATOM     13  C   UNL     1      -1.988   2.468  25.003  0.00  0.00    +0.205 A 
ATOM     14  N   UNL     1      -2.211   2.848  24.305  0.00  0.00    -0.056 NA
ATOM     15  O   UNL     1      -2.971   2.596  24.109  0.00  0.00    -0.336 OA
ATOM     16  C   UNL     1      -3.218   2.059  24.685  0.00  0.00    +0.251 A 
ATOM     17  N   UNL     1      -2.610   1.980  25.238  0.00  0.00    -0.190 NA
ENDROOT
BRANCH  13  10
ATOM      4  C   UNL     1       0.948   2.648  27.378  0.00  0.00    +0.277 C 
ATOM      5  O   UNL     1       0.286   2.371  27.787  0.00  0.00    -0.270 OA
ATOM      6  N   UNL     1       0.890   2.833  26.577  0.00  0.00    -0.158 NA
ATOM      7  C   UNL     1       0.170   2.742  26.183  0.00  0.00    +0.155 A 
ATOM      8  N   UNL     1       0.112   2.927  25.381  0.00  0.00    -0.227 NA
ATOM      9  C   UNL     1      -0.607   2.836  24.987  0.00  0.00    +0.103 A 
ATOM     10  C   UNL     1      -1.268   2.559  25.396  0.00  0.00    +0.058 A 
ATOM     11  C   UNL     1      -1.211   2.374  26.198  0.00  0.00    +0.008 A 
ATOM     12  C   UNL     1      -0.491   2.465  26.591  0.00  0.00    +0.036 A 
BRANCH   4   3
ATOM      3  C   UNL     1       1.667   2.739  27.771  0.00  0.00    +0.229 C 
BRANCH   3   2
ATOM      1  C   UNL     1       2.423   2.741  28.985  0.00  0.00    +0.175 C 
ATOM      2  O   UNL     1       1.702   2.658  28.592  0.00  0.00    -0.342 OA
ENDBRANCH   3   2
ENDBRANCH   4   3
ENDBRANCH  13  10
BRANCH  16  18
ATOM     18  C   UNL     1      -3.945   1.670  24.706  0.00  0.00    +0.138 C 
ATOM     19  C   UNL     1      -4.655   1.984  24.987  0.00  0.00    +0.027 C 
ATOM     20  C   UNL     1      -5.239   1.406  24.904  0.00  0.00    +0.019 C 
ATOM     21  C   UNL     1      -4.890   0.737  24.572  0.00  0.00    +0.073 C 
ATOM     22  N   UNL     1      -4.091   0.900  24.449  0.00  0.00    -0.263 NA
BRANCH  22  23
ATOM     23  C   UNL     1      -3.535   0.383  24.127  0.00  0.00    +0.099 C 
BRANCH  23  24
ATOM     24  C   UNL     1      -3.616  -0.430  24.234  0.00  0.00    -0.006 A 
ATOM     25  C   UNL     1      -3.270  -0.797  24.888  0.00  0.00    -0.003 A 
ATOM     26  C   UNL     1      -3.352  -1.611  24.995  0.00  0.00    +0.004 A 
ATOM     27  C   UNL     1      -3.780  -2.058  24.450  0.00  0.00    +0.071 A 
ATOM     28  C   UNL     1      -4.126  -1.692  23.797  0.00  0.00    +0.004 A 
ATOM     29  C   UNL     1      -4.044  -0.878  23.689  0.00  0.00    -0.003 A 
BRANCH  27  30
ATOM     30  C   UNL     1      -3.862  -2.873  24.558  0.00  0.00    +0.419 C 
ATOM     31  F   UNL     1      -3.943  -3.686  24.665  0.00  0.00    -0.166 F 
ATOM     32  F   UNL     1      -4.201  -2.937  23.808  0.00  0.00    -0.166 F 
ATOM     33  F   UNL     1      -3.523  -2.808  25.307  0.00  0.00    -0.166 F 
ENDBRANCH  27  30
ENDBRANCH  23  24
ENDBRANCH  22  23
ENDBRANCH  16  18
TORSDOF 7
ENDMDL
