MODEL 1
REMARK VINA RESULT:     -17.9      0.000      0.000
REMARK  Name = 
REMARK  3 active torsions:
REMARK  status: ('A' for Active; 'I' for Inactive)
REMARK    1  A    between atoms: C_5  and  N_6
REMARK    2  A    between atoms: C_18  and  N_19
REMARK    3  A    between atoms: N_22  and  C_23
REMARK                            x       y       z     vdW  Elec       q    Type
REMARK                         _______ _______ _______ _____ _____    ______ ____
ROOT
ATOM      6  N   UNL     1      -3.471   3.017  25.090  0.00  0.00    -0.162 NA
ATOM      7  C   UNL     1      -3.416   3.836  25.180  0.00  0.00    +0.327 C 
ATOM      8  O   UNL     1      -4.100   4.292  25.231  0.00  0.00    -0.250 OA
ATOM      9  N   UNL     1      -2.675   4.197  25.219  0.00  0.00    -0.262 N 
ATOM     10  C   UNL     1      -2.109   4.808  25.285  0.00  0.00    +0.097 C 
ATOM     11  C   UNL     1      -1.280   4.273  25.226  0.00  0.00    +0.043 C 
ATOM     12  C   UNL     1      -0.520   3.982  25.193  0.00  0.00    +0.011 C 
ATOM     13  C   UNL     1      -1.174   3.729  25.166  0.00  0.00    +0.058 C 
ATOM     14  C   UNL     1      -1.965   4.260  25.225  0.00  0.00    +0.101 C 
ATOM     15  C   UNL     1      -1.638   2.940  25.080  0.00  0.00    +0.041 A 
ATOM     16  C   UNL     1      -1.514   2.130  24.991  0.00  0.00    +0.014 A 
ATOM     17  C   UNL     1      -2.158   1.617  24.936  0.00  0.00    +0.023 A 
ATOM     18  C   UNL     1      -2.927   1.915  24.969  0.00  0.00    +0.131 A 
ATOM     29  C   UNL     1      -3.051   2.726  25.058  0.00  0.00    +0.276 A 
ATOM     30  O   UNL     1      -3.849   2.518  25.036  0.00  0.00    -0.266 OA
ATOM     31  N   UNL     1      -2.407   3.238  25.114  0.00  0.00    -0.298 N 
ATOM     32  C   UNL     1      -1.774   3.454  25.137  0.00  0.00    +0.110 C 
ENDROOT
BRANCH   6   5
ATOM      1  F   UNL     1      -6.434   1.572  24.937  0.00  0.00    -0.204 F 
ATOM      2  C   UNL     1      -5.693   1.933  24.976  0.00  0.00    +0.140 A 
ATOM      3  C   UNL     1      -5.333   2.060  25.707  0.00  0.00    +0.031 A 
ATOM      4  C   UNL     1      -4.592   2.421  25.745  0.00  0.00    +0.019 A 
ATOM      5  C   UNL     1      -4.211   2.656  25.051  0.00  0.00    +0.075 A 
ATOM     33  C   UNL     1      -4.571   2.529  24.321  0.00  0.00    +0.019 A 
ATOM     34  C   UNL     1      -5.312   2.168  24.282  0.00  0.00    +0.031 A 
ENDBRANCH   6   5
BRANCH  18  19
ATOM     19  N   UNL     1      -3.570   1.403  24.913  0.00  0.00    -0.156 NA
ATOM     20  C   UNL     1      -3.445   0.591  24.833  0.00  0.00    +0.348 C 
ATOM     21  O   UNL     1      -2.677   0.292  24.808  0.00  0.00    -0.248 OA
ATOM     22  N   UNL     1      -4.090   0.078  24.777  0.00  0.00    -0.161 NA
BRANCH  22  23
ATOM     23  C   UNL     1      -3.965  -0.733  24.696  0.00  0.00    +0.075 A 
ATOM     24  C   UNL     1      -4.108  -1.102  23.972  0.00  0.00    +0.017 A 
ATOM     25  C   UNL     1      -3.983  -1.914  23.892  0.00  0.00    +0.001 A 
ATOM     26  C   UNL     1      -3.716  -2.356  24.535  0.00  0.00    +0.000 A 
ATOM     27  C   UNL     1      -3.574  -1.987  25.259  0.00  0.00    +0.001 A 
ATOM     28  C   UNL     1      -3.698  -1.176  25.340  0.00  0.00    +0.017 A 
ENDBRANCH  22  23
ENDBRANCH  18  19
TORSDOF 3
ENDMDL
MODEL 2
REMARK VINA RESULT:     -16.9      1.605      2.764
REMARK  Name = 
REMARK  3 active torsions:
REMARK  status: ('A' for Active; 'I' for Inactive)
REMARK    1  A    between atoms: C_5  and  N_6
REMARK    2  A    between atoms: C_18  and  N_19
REMARK    3  A    between atoms: N_22  and  C_23
REMARK                            x       y       z     vdW  Elec       q    Type
REMARK                         _______ _______ _______ _____ _____    ______ ____
ROOT
ATOM      6  N   UNL     1      -3.294   2.315  24.731  0.00  0.00    -0.162 NA
ATOM      7  C   UNL     1      -3.226   3.134  24.800  0.00  0.00    +0.327 C 
ATOM      8  O   UNL     1      -2.515   3.506  24.610  0.00  0.00    -0.250 OA
ATOM      9  N   UNL     1      -3.869   3.582  25.059  0.00  0.00    -0.262 N 
ATOM     10  C   UNL     1      -4.312   4.256  25.278  0.00  0.00    +0.097 C 
ATOM     11  C   UNL     1      -5.169   3.822  25.509  0.00  0.00    +0.043 C 
ATOM     12  C   UNL     1      -5.927   3.624  25.733  0.00  0.00    +0.011 C 
ATOM     13  C   UNL     1      -5.349   3.295  25.509  0.00  0.00    +0.058 C 
ATOM     14  C   UNL     1      -4.527   3.728  25.289  0.00  0.00    +0.101 C 
ATOM     15  C   UNL     1      -5.028   2.456  25.311  0.00  0.00    +0.041 A 
ATOM     16  C   UNL     1      -5.265   1.666  25.300  0.00  0.00    +0.014 A 
ATOM     17  C   UNL     1      -4.734   1.081  25.062  0.00  0.00    +0.023 A 
ATOM     18  C   UNL     1      -3.968   1.285  24.836  0.00  0.00    +0.131 A 
ATOM     29  C   UNL     1      -3.731   2.076  24.847  0.00  0.00    +0.276 A 
ATOM     30  O   UNL     1      -3.012   1.774  24.579  0.00  0.00    -0.266 OA
ATOM     31  N   UNL     1      -4.262   2.661  25.084  0.00  0.00    -0.298 N 
ATOM     32  C   UNL     1      -4.825   2.951  25.300  0.00  0.00    +0.110 C 
ENDROOT
BRANCH   6   5
ATOM      1  F   UNL     1      -0.721   0.528  23.693  0.00  0.00    -0.204 F 
ATOM      2  C   UNL     1      -1.364   0.975  23.953  0.00  0.00    +0.140 A 
ATOM      3  C   UNL     1      -1.907   1.271  23.407  0.00  0.00    +0.031 A 
ATOM      4  C   UNL     1      -2.551   1.718  23.667  0.00  0.00    +0.019 A 
ATOM      5  C   UNL     1      -2.651   1.868  24.472  0.00  0.00    +0.075 A 
ATOM     33  C   UNL     1      -2.107   1.572  25.017  0.00  0.00    +0.019 A 
ATOM     34  C   UNL     1      -1.464   1.125  24.758  0.00  0.00    +0.031 A 
ENDBRANCH   6   5
BRANCH  18  19
ATOM     19  N   UNL     1      -3.438   0.700  24.598  0.00  0.00    -0.156 NA
ATOM     20  C   UNL     1      -3.668  -0.093  24.607  0.00  0.00    +0.348 C 
ATOM     21  O   UNL     1      -4.428  -0.299  24.854  0.00  0.00    -0.248 OA
ATOM     22  N   UNL     1      -3.137  -0.679  24.370  0.00  0.00    -0.161 NA
BRANCH  22  23
ATOM     23  C   UNL     1      -3.367  -1.471  24.379  0.00  0.00    +0.075 A 
ATOM     24  C   UNL     1      -3.101  -1.970  24.980  0.00  0.00    +0.017 A 
ATOM     25  C   UNL     1      -3.331  -2.762  24.989  0.00  0.00    +0.001 A 
ATOM     26  C   UNL     1      -3.826  -3.055  24.397  0.00  0.00    +0.000 A 
ATOM     27  C   UNL     1      -4.091  -2.556  23.796  0.00  0.00    +0.001 A 
ATOM     28  C   UNL     1      -3.861  -1.764  23.787  0.00  0.00    +0.017 A 
ENDBRANCH  22  23
ENDBRANCH  18  19
TORSDOF 3
ENDMDL
MODEL 3
REMARK VINA RESULT:     -16.7      1.885      5.008
REMARK  Name = 
REMARK  3 active torsions:
REMARK  status: ('A' for Active; 'I' for Inactive)
REMARK    1  A    between atoms: C_5  and  N_6
REMARK    2  A    between atoms: C_18  and  N_19
REMARK    3  A    between atoms: N_22  and  C_23
REMARK                            x       y       z     vdW  Elec       q    Type
REMARK                         _______ _______ _______ _____ _____    ______ ____
ROOT
ATOM      6  N   UNL     1      -1.864  -0.601  24.708  0.00  0.00    -0.162 NA
ATOM      7  C   UNL     1      -1.496  -1.339  24.676  0.00  0.00    +0.327 C 
ATOM      8  O   UNL     1      -0.676  -1.394  24.746  0.00  0.00    -0.250 OA
ATOM      9  N   UNL     1      -1.949  -2.022  24.575  0.00  0.00    -0.262 N 
ATOM     10  C   UNL     1      -2.125  -2.834  24.488  0.00  0.00    +0.097 C 
ATOM     11  C   UNL     1      -3.108  -2.781  24.403  0.00  0.00    +0.043 C 
ATOM     12  C   UNL     1      -3.908  -2.908  24.319  0.00  0.00    +0.011 C 
ATOM     13  C   UNL     1      -3.475  -2.362  24.406  0.00  0.00    +0.058 C 
ATOM     14  C   UNL     1      -2.526  -2.429  24.487  0.00  0.00    +0.101 C 
ATOM     15  C   UNL     1      -3.477  -1.447  24.487  0.00  0.00    +0.041 A 
ATOM     16  C   UNL     1      -3.995  -0.805  24.496  0.00  0.00    +0.014 A 
ATOM     17  C   UNL     1      -3.702  -0.040  24.590  0.00  0.00    +0.023 A 
ATOM     18  C   UNL     1      -2.891   0.084  24.675  0.00  0.00    +0.131 A 
ATOM     29  C   UNL     1      -2.372  -0.557  24.665  0.00  0.00    +0.276 A 
ATOM     30  O   UNL     1      -1.793   0.021  24.769  0.00  0.00    -0.266 OA
ATOM     31  N   UNL     1      -2.665  -1.323  24.571  0.00  0.00    -0.298 N 
ATOM     32  C   UNL     1      -3.099  -1.825  24.488  0.00  0.00    +0.110 C 
ENDROOT
BRANCH   6   5
ATOM      1  F   UNL     1      -0.053   2.129  25.110  0.00  0.00    -0.204 F 
ATOM      2  C   UNL     1      -0.506   1.446  25.009  0.00  0.00    +0.140 A 
ATOM      3  C   UNL     1      -0.666   1.165  24.250  0.00  0.00    +0.031 A 
ATOM      4  C   UNL     1      -1.119   0.483  24.150  0.00  0.00    +0.019 A 
ATOM      5  C   UNL     1      -1.412   0.081  24.809  0.00  0.00    +0.075 A 
ATOM     33  C   UNL     1      -1.252   0.363  25.567  0.00  0.00    +0.019 A 
ATOM     34  C   UNL     1      -0.800   1.045  25.668  0.00  0.00    +0.031 A 
ENDBRANCH   6   5
BRANCH  18  19
ATOM     19  N   UNL     1      -2.599   0.850  24.768  0.00  0.00    -0.156 NA
ATOM     20  C   UNL     1      -3.118   1.491  24.782  0.00  0.00    +0.348 C 
ATOM     21  O   UNL     1      -3.930   1.366  24.703  0.00  0.00    -0.248 OA
ATOM     22  N   UNL     1      -2.825   2.257  24.876  0.00  0.00    -0.161 NA
BRANCH  22  23
ATOM     23  C   UNL     1      -3.344   2.898  24.891  0.00  0.00    +0.075 A 
ATOM     24  C   UNL     1      -3.568   3.263  24.185  0.00  0.00    +0.017 A 
ATOM     25  C   UNL     1      -4.087   3.904  24.199  0.00  0.00    +0.001 A 
ATOM     26  C   UNL     1      -4.382   4.180  24.919  0.00  0.00    +0.000 A 
ATOM     27  C   UNL     1      -4.158   3.815  25.624  0.00  0.00    +0.001 A 
ATOM     28  C   UNL     1      -3.639   3.174  25.610  0.00  0.00    +0.017 A 
ENDBRANCH  22  23
ENDBRANCH  18  19
TORSDOF 3
ENDMDL
MODEL 4
REMARK VINA RESULT:     -15.6      1.865      3.437
REMARK  Name = 
REMARK  3 active torsions:
REMARK  status: ('A' for Active; 'I' for Inactive)
REMARK    1  A    between atoms: C_5  and  N_6
REMARK    2  A    between atoms: C_18  and  N_19
REMARK    3  A    between atoms: N_22  and  C_23
REMARK                            x       y       z     vdW  Elec       q    Type
REMARK                         _______ _______ _______ _____ _____    ______ ____
ROOT
ATOM      6  N   UNL     1      -3.351   2.957  25.299  0.00  0.00    -0.162 NA
ATOM      7  C   UNL     1      -3.922   3.502  25.542  0.00  0.00    +0.327 C 
ATOM      8  O   UNL     1      -3.692   4.246  25.813  0.00  0.00    -0.250 OA
ATOM      9  N   UNL     1      -4.722   3.302  25.514  0.00  0.00    -0.262 N 
ATOM     10  C   UNL     1      -5.549   3.386  25.595  0.00  0.00    +0.097 C 
ATOM     11  C   UNL     1      -5.838   2.497  25.273  0.00  0.00    +0.043 C 
ATOM     12  C   UNL     1      -6.232   1.824  25.039  0.00  0.00    +0.011 C 
ATOM     13  C   UNL     1      -5.568   2.047  25.084  0.00  0.00    +0.058 C 
ATOM     14  C   UNL     1      -5.305   2.910  25.398  0.00  0.00    +0.101 C 
ATOM     15  C   UNL     1      -4.704   1.776  24.928  0.00  0.00    +0.041 A 
ATOM     16  C   UNL     1      -4.277   1.126  24.653  0.00  0.00    +0.014 A 
ATOM     17  C   UNL     1      -3.453   1.160  24.617  0.00  0.00    +0.023 A 
ATOM     18  C   UNL     1      -3.057   1.844  24.855  0.00  0.00    +0.131 A 
ATOM     29  C   UNL     1      -3.485   2.493  25.129  0.00  0.00    +0.276 A 
ATOM     30  O   UNL     1      -2.740   2.837  25.216  0.00  0.00    -0.266 OA
ATOM     31  N   UNL     1      -4.308   2.459  25.166  0.00  0.00    -0.298 N 
ATOM     32  C   UNL     1      -4.932   2.223  25.113  0.00  0.00    +0.110 C 
ENDROOT
BRANCH   6   5
ATOM      1  F   UNL     1      -0.152   3.760  25.410  0.00  0.00    -0.204 F 
ATOM      2  C   UNL     1      -0.952   3.559  25.382  0.00  0.00    +0.140 A 
ATOM      3  C   UNL     1      -1.394   3.721  24.705  0.00  0.00    +0.031 A 
ATOM      4  C   UNL     1      -2.194   3.520  24.677  0.00  0.00    +0.019 A 
ATOM      5  C   UNL     1      -2.552   3.158  25.327  0.00  0.00    +0.075 A 
ATOM     33  C   UNL     1      -2.109   2.996  26.004  0.00  0.00    +0.019 A 
ATOM     34  C   UNL     1      -1.310   3.197  26.032  0.00  0.00    +0.031 A 
ENDBRANCH   6   5
BRANCH  18  19
ATOM     19  N   UNL     1      -2.234   1.877  24.818  0.00  0.00    -0.156 NA
ATOM     20  C   UNL     1      -1.806   1.222  24.558  0.00  0.00    +0.348 C 
ATOM     21  O   UNL     1      -2.201   0.533  24.334  0.00  0.00    -0.248 OA
ATOM     22  N   UNL     1      -0.982   1.255  24.521  0.00  0.00    -0.161 NA
BRANCH  22  23
ATOM     23  C   UNL     1      -0.553   0.600  24.261  0.00  0.00    +0.075 A 
ATOM     24  C   UNL     1      -0.151   0.630  23.541  0.00  0.00    +0.017 A 
ATOM     25  C   UNL     1       0.277  -0.025  23.281  0.00  0.00    +0.001 A 
ATOM     26  C   UNL     1       0.303  -0.710  23.740  0.00  0.00    +0.000 A 
ATOM     27  C   UNL     1      -0.099  -0.740  24.460  0.00  0.00    +0.001 A 
ATOM     28  C   UNL     1      -0.527  -0.085  24.720  0.00  0.00    +0.017 A 
ENDBRANCH  22  23
ENDBRANCH  18  19
TORSDOF 3
ENDMDL
MODEL 5
REMARK VINA RESULT:     -15.5      1.246      4.404
REMARK  Name = 
REMARK  3 active torsions:
REMARK  status: ('A' for Active; 'I' for Inactive)
REMARK    1  A    between atoms: C_5  and  N_6
REMARK    2  A    between atoms: C_18  and  N_19
REMARK    3  A    between atoms: N_22  and  C_23
REMARK                            x       y       z     vdW  Elec       q    Type
REMARK                         _______ _______ _______ _____ _____    ______ ____
ROOT
ATOM      6  N   UNL     1      -3.524  -0.190  24.595  0.00  0.00    -0.162 NA
ATOM      7  C   UNL     1      -3.902  -0.916  24.487  0.00  0.00    +0.327 C 
ATOM      8  O   UNL     1      -4.715  -0.942  24.355  0.00  0.00    -0.250 OA
ATOM      9  N   UNL     1      -3.466  -1.616  24.512  0.00  0.00    -0.262 N 
ATOM     10  C   UNL     1      -3.305  -2.436  24.485  0.00  0.00    +0.097 C 
ATOM     11  C   UNL     1      -2.330  -2.419  24.643  0.00  0.00    +0.043 C 
ATOM     12  C   UNL     1      -1.539  -2.574  24.761  0.00  0.00    +0.011 C 
ATOM     13  C   UNL     1      -1.958  -2.012  24.729  0.00  0.00    +0.058 C 
ATOM     14  C   UNL     1      -2.900  -2.045  24.576  0.00  0.00    +0.101 C 
ATOM     15  C   UNL     1      -1.941  -1.096  24.791  0.00  0.00    +0.041 A 
ATOM     16  C   UNL     1      -1.416  -0.472  24.916  0.00  0.00    +0.014 A 
ATOM     17  C   UNL     1      -1.692   0.305  24.922  0.00  0.00    +0.023 A 
ATOM     18  C   UNL     1      -2.494   0.459  24.803  0.00  0.00    +0.131 A 
ATOM     29  C   UNL     1      -3.020  -0.165  24.678  0.00  0.00    +0.276 A 
ATOM     30  O   UNL     1      -3.583   0.434  24.626  0.00  0.00    -0.266 OA
ATOM     31  N   UNL     1      -2.743  -0.942  24.672  0.00  0.00    -0.298 N 
ATOM     32  C   UNL     1      -2.322  -1.461  24.707  0.00  0.00    +0.110 C 
ENDROOT
BRANCH   6   5
ATOM      1  F   UNL     1      -5.271   2.608  24.497  0.00  0.00    -0.204 F 
ATOM      2  C   UNL     1      -4.834   1.908  24.522  0.00  0.00    +0.140 A 
ATOM      3  C   UNL     1      -4.768   1.488  25.228  0.00  0.00    +0.031 A 
ATOM      4  C   UNL     1      -4.331   0.788  25.253  0.00  0.00    +0.019 A 
ATOM      5  C   UNL     1      -3.960   0.509  24.570  0.00  0.00    +0.075 A 
ATOM     33  C   UNL     1      -4.027   0.930  23.864  0.00  0.00    +0.019 A 
ATOM     34  C   UNL     1      -4.463   1.629  23.839  0.00  0.00    +0.031 A 
ENDBRANCH   6   5
BRANCH  18  19
ATOM     19  N   UNL     1      -2.770   1.236  24.808  0.00  0.00    -0.156 NA
ATOM     20  C   UNL     1      -2.241   1.861  24.902  0.00  0.00    +0.348 C 
ATOM     21  O   UNL     1      -1.434   1.709  24.989  0.00  0.00    -0.248 OA
ATOM     22  N   UNL     1      -2.517   2.639  24.907  0.00  0.00    -0.161 NA
BRANCH  22  23
ATOM     23  C   UNL     1      -1.988   3.265  25.001  0.00  0.00    +0.075 A 
ATOM     24  C   UNL     1      -2.013   3.728  25.683  0.00  0.00    +0.017 A 
ATOM     25  C   UNL     1      -1.483   4.353  25.776  0.00  0.00    +0.001 A 
ATOM     26  C   UNL     1      -0.928   4.515  25.187  0.00  0.00    +0.000 A 
ATOM     27  C   UNL     1      -0.903   4.052  24.505  0.00  0.00    +0.001 A 
ATOM     28  C   UNL     1      -1.433   3.426  24.412  0.00  0.00    +0.017 A 
ENDBRANCH  22  23
ENDBRANCH  18  19
TORSDOF 3
ENDMDL
