MODEL 1
REMARK VINA RESULT:     -12.1      0.000      0.000
REMARK  Name = 
REMARK  5 active torsions:
REMARK  status: ('A' for Active; 'I' for Inactive)
REMARK    1  A    between atoms: O_2  and  C_3
REMARK    2  A    between atoms: C_6  and  C_9
REMARK    3  A    between atoms: C_16  and  C_17
REMARK    4  A    between atoms: N_19  and  C_20
REMARK    5  A    between atoms: C_27  and  C_29
REMARK                            x       y       z     vdW  Elec       q    Type
REMARK                         _______ _______ _______ _____ _____    ______ ____
ROOT
ATOM      9  C   UNL     1      -3.595   0.048  24.803  0.00  0.00    +0.249 C 
ATOM     10  O   UNL     1      -4.241   0.524  24.992  0.00  0.00    -0.270 OA
ATOM     11  N   UNL     1      -2.836   0.370  24.782  0.00  0.00    -0.266 N 
ATOM     12  C   UNL     1      -2.190  -0.106  24.593  0.00  0.00    +0.116 C 
ATOM     13  C   UNL     1      -1.431   0.216  24.573  0.00  0.00    +0.115 C 
ATOM     14  N   UNL     1      -1.318   1.016  24.742  0.00  0.00    -0.272 N 
ATOM     15  C   UNL     1      -1.965   1.493  24.931  0.00  0.00    +0.123 C 
ATOM     16  C   UNL     1      -2.723   1.170  24.951  0.00  0.00    +0.174 C 
ATOM     27  C   UNL     1      -0.559   1.339  24.722  0.00  0.00    +0.249 C 
ATOM     28  O   UNL     1       0.087   0.862  24.532  0.00  0.00    -0.270 OA
ENDROOT
BRANCH  27  29
ATOM     29  C   UNL     1      -0.447   2.138  24.890  0.00  0.00    +0.056 A 
ATOM     30  C   UNL     1      -0.341   2.384  25.671  0.00  0.00    +0.005 A 
ATOM     31  C   UNL     1      -0.228   3.184  25.840  0.00  0.00    +0.002 A 
ATOM     32  C   UNL     1      -0.222   3.737  25.228  0.00  0.00    +0.030 A 
ATOM     33  C   UNL     1      -0.327   3.492  24.448  0.00  0.00    +0.140 A 
ATOM     34  F   UNL     1      -0.321   4.045  23.836  0.00  0.00    -0.204 F 
ATOM     35  C   UNL     1      -0.440   2.692  24.279  0.00  0.00    +0.034 A 
ENDBRANCH  27  29
BRANCH   9   6
ATOM      3  C   UNL     1      -3.933  -2.352  24.296  0.00  0.00    +0.139 A 
ATOM      4  C   UNL     1      -3.659  -2.122  25.040  0.00  0.00    +0.037 A 
ATOM      5  C   UNL     1      -3.547  -1.322  25.209  0.00  0.00    +0.008 A 
ATOM      6  C   UNL     1      -3.708  -0.753  24.634  0.00  0.00    +0.054 A 
ATOM      7  C   UNL     1      -3.982  -0.982  23.891  0.00  0.00    +0.008 A 
ATOM      8  C   UNL     1      -4.094  -1.782  23.722  0.00  0.00    +0.037 A 
BRANCH   3   2
ATOM      1  C   UNL     1      -3.403  -3.668  24.128  0.00  0.00    +0.252 C 
ATOM      2  O   UNL     1      -4.046  -3.151  24.127  0.00  0.00    -0.471 OA
ENDBRANCH   3   2
ENDBRANCH   9   6
BRANCH  16  17
ATOM     17  C   UNL     1      -3.370   1.647  25.141  0.00  0.00    +0.262 C 
ATOM     18  O   UNL     1      -3.932   1.382  25.683  0.00  0.00    -0.271 OA
ATOM     19  N   UNL     1      -3.453   2.387  24.788  0.00  0.00    -0.196 NA
BRANCH  19  20
ATOM     20  C   UNL     1      -4.099   2.864  24.977  0.00  0.00    +0.173 C 
ATOM     21  C   UNL     1      -4.439   2.818  25.728  0.00  0.00    +0.033 C 
ATOM     22  C   UNL     1      -5.085   3.296  25.917  0.00  0.00    +0.026 C 
ATOM     23  C   UNL     1      -5.391   3.818  25.356  0.00  0.00    +0.115 C 
ATOM     24  N   UNL     1      -5.050   3.864  24.607  0.00  0.00    -0.204 NA
ATOM     25  C   UNL     1      -4.404   3.387  24.417  0.00  0.00    +0.261 C 
ATOM     26  O   UNL     1      -4.064   3.432  23.667  0.00  0.00    -0.271 OA
ENDBRANCH  19  20
ENDBRANCH  16  17
TORSDOF 5
ENDMDL
MODEL 2
REMARK VINA RESULT:     -11.5      2.057      5.521
REMARK  Name = 
REMARK  5 active torsions:
REMARK  status: ('A' for Active; 'I' for Inactive)
REMARK    1  A    between atoms: O_2  and  C_3
REMARK    2  A    between atoms: C_6  and  C_9
REMARK    3  A    between atoms: C_16  and  C_17
REMARK    4  A    between atoms: N_19  and  C_20
REMARK    5  A    between atoms: C_27  and  C_29
REMARK                            x       y       z     vdW  Elec       q    Type
REMARK                         _______ _______ _______ _____ _____    ______ ____
ROOT
ATOM      9  C   UNL     1      -1.721   2.209  24.561  0.00  0.00    +0.249 C 
ATOM     10  O   UNL     1      -1.026   1.985  24.177  0.00  0.00    -0.270 OA
ATOM     11  N   UNL     1      -2.321   1.657  24.685  0.00  0.00    -0.266 N 
ATOM     12  C   UNL     1      -3.015   1.880  25.069  0.00  0.00    +0.116 C 
ATOM     13  C   UNL     1      -3.616   1.328  25.193  0.00  0.00    +0.115 C 
ATOM     14  N   UNL     1      -3.520   0.551  24.933  0.00  0.00    -0.272 N 
ATOM     15  C   UNL     1      -2.825   0.326  24.549  0.00  0.00    +0.123 C 
ATOM     16  C   UNL     1      -2.226   0.879  24.425  0.00  0.00    +0.174 C 
ATOM     27  C   UNL     1      -4.119  -0.003  25.056  0.00  0.00    +0.249 C 
ATOM     28  O   UNL     1      -4.815   0.222  25.441  0.00  0.00    -0.270 OA
ENDROOT
BRANCH  27  29
ATOM     29  C   UNL     1      -4.024  -0.779  24.797  0.00  0.00    +0.056 A 
ATOM     30  C   UNL     1      -4.241  -0.987  24.028  0.00  0.00    +0.005 A 
ATOM     31  C   UNL     1      -4.146  -1.764  23.768  0.00  0.00    +0.002 A 
ATOM     32  C   UNL     1      -3.833  -2.333  24.277  0.00  0.00    +0.030 A 
ATOM     33  C   UNL     1      -3.617  -2.126  25.045  0.00  0.00    +0.140 A 
ATOM     34  F   UNL     1      -3.304  -2.695  25.554  0.00  0.00    -0.204 F 
ATOM     35  C   UNL     1      -3.712  -1.349  25.305  0.00  0.00    +0.034 A 
ENDBRANCH  27  29
BRANCH   9   6
ATOM      3  C   UNL     1      -2.007   4.542  25.341  0.00  0.00    +0.139 A 
ATOM      4  C   UNL     1      -1.572   4.005  25.794  0.00  0.00    +0.037 A 
ATOM      5  C   UNL     1      -1.477   3.228  25.534  0.00  0.00    +0.008 A 
ATOM      6  C   UNL     1      -1.816   2.987  24.821  0.00  0.00    +0.054 A 
ATOM      7  C   UNL     1      -2.251   3.523  24.369  0.00  0.00    +0.008 A 
ATOM      8  C   UNL     1      -2.346   4.300  24.629  0.00  0.00    +0.037 A 
BRANCH   3   2
ATOM      1  C   UNL     1      -1.792   5.942  25.160  0.00  0.00    +0.252 C 
ATOM      2  O   UNL     1      -2.102   5.318  25.601  0.00  0.00    -0.471 OA
ENDBRANCH   3   2
ENDBRANCH   9   6
BRANCH  16  17
ATOM     17  C   UNL     1      -1.530   0.655  24.041  0.00  0.00    +0.262 C 
ATOM     18  O   UNL     1      -1.344   0.978  23.305  0.00  0.00    -0.271 OA
ATOM     19  N   UNL     1      -1.023   0.109  24.392  0.00  0.00    -0.196 NA
BRANCH  19  20
ATOM     20  C   UNL     1      -0.328  -0.116  24.008  0.00  0.00    +0.173 C 
ATOM     21  C   UNL     1      -0.052   0.323  23.366  0.00  0.00    +0.033 C 
ATOM     22  C   UNL     1       0.643   0.098  22.982  0.00  0.00    +0.026 C 
ATOM     23  C   UNL     1       1.062  -0.564  23.240  0.00  0.00    +0.115 C 
ATOM     24  N   UNL     1       0.786  -1.001  23.882  0.00  0.00    -0.204 NA
ATOM     25  C   UNL     1       0.091  -0.778  24.267  0.00  0.00    +0.261 C 
ATOM     26  O   UNL     1      -0.185  -1.215  24.909  0.00  0.00    -0.271 OA
ENDBRANCH  19  20
ENDBRANCH  16  17
TORSDOF 5
ENDMDL
MODEL 3
REMARK VINA RESULT:     -11.4      1.344      3.376
REMARK  Name = 
REMARK  5 active torsions:
REMARK  status: ('A' for Active; 'I' for Inactive)
REMARK    1  A    between atoms: O_2  and  C_3
REMARK    2  A    between atoms: C_6  and  C_9
REMARK    3  A    between atoms: C_16  and  C_17
REMARK    4  A    between atoms: N_19  and  C_20
REMARK    5  A    between atoms: C_27  and  C_29
REMARK                            x       y       z     vdW  Elec       q    Type
REMARK                         _______ _______ _______ _____ _____    ______ ____
ROOT
ATOM      9  C   UNL     1      -2.782  -0.308  24.538  0.00  0.00    +0.249 C 
ATOM     10  O   UNL     1      -1.989  -0.182  24.352  0.00  0.00    -0.270 OA
ATOM     11  N   UNL     1      -3.275   0.333  24.701  0.00  0.00    -0.266 N 
ATOM     12  C   UNL     1      -4.069   0.207  24.886  0.00  0.00    +0.116 C 
ATOM     13  C   UNL     1      -4.562   0.849  25.049  0.00  0.00    +0.115 C 
ATOM     14  N   UNL     1      -4.261   1.616  25.027  0.00  0.00    -0.272 N 
ATOM     15  C   UNL     1      -3.466   1.743  24.841  0.00  0.00    +0.123 C 
ATOM     16  C   UNL     1      -2.974   1.101  24.678  0.00  0.00    +0.174 C 
ATOM     27  C   UNL     1      -4.753   2.258  25.189  0.00  0.00    +0.249 C 
ATOM     28  O   UNL     1      -5.547   2.131  25.375  0.00  0.00    -0.270 OA
ENDROOT
BRANCH  27  29
ATOM     29  C   UNL     1      -4.452   3.025  25.167  0.00  0.00    +0.056 A 
ATOM     30  C   UNL     1      -4.461   3.451  24.460  0.00  0.00    +0.005 A 
ATOM     31  C   UNL     1      -4.159   4.219  24.438  0.00  0.00    +0.002 A 
ATOM     32  C   UNL     1      -3.849   4.560  25.122  0.00  0.00    +0.030 A 
ATOM     33  C   UNL     1      -3.840   4.134  25.828  0.00  0.00    +0.140 A 
ATOM     34  F   UNL     1      -3.530   4.475  26.512  0.00  0.00    -0.204 F 
ATOM     35  C   UNL     1      -4.141   3.367  25.850  0.00  0.00    +0.034 A 
ENDBRANCH  27  29
BRANCH   9   6
ATOM      3  C   UNL     1      -3.687  -2.612  24.605  0.00  0.00    +0.139 A 
ATOM      4  C   UNL     1      -3.256  -2.318  25.246  0.00  0.00    +0.037 A 
ATOM      5  C   UNL     1      -2.955  -1.550  25.223  0.00  0.00    +0.008 A 
ATOM      6  C   UNL     1      -3.084  -1.076  24.560  0.00  0.00    +0.054 A 
ATOM      7  C   UNL     1      -3.513  -1.369  23.920  0.00  0.00    +0.008 A 
ATOM      8  C   UNL     1      -3.815  -2.137  23.943  0.00  0.00    +0.037 A 
BRANCH   3   2
ATOM      1  C   UNL     1      -3.983  -3.844  23.946  0.00  0.00    +0.252 C 
ATOM      2  O   UNL     1      -3.988  -3.379  24.627  0.00  0.00    -0.471 OA
ENDBRANCH   3   2
ENDBRANCH   9   6
BRANCH  16  17
ATOM     17  C   UNL     1      -2.180   1.227  24.493  0.00  0.00    +0.262 C 
ATOM     18  O   UNL     1      -1.873   0.944  23.781  0.00  0.00    -0.271 OA
ATOM     19  N   UNL     1      -1.694   1.636  25.018  0.00  0.00    -0.196 NA
BRANCH  19  20
ATOM     20  C   UNL     1      -0.900   1.763  24.833  0.00  0.00    +0.173 C 
ATOM     21  C   UNL     1      -0.662   1.804  24.043  0.00  0.00    +0.033 C 
ATOM     22  C   UNL     1       0.132   1.931  23.858  0.00  0.00    +0.026 C 
ATOM     23  C   UNL     1       0.688   2.016  24.462  0.00  0.00    +0.115 C 
ATOM     24  N   UNL     1       0.450   1.975  25.250  0.00  0.00    -0.204 NA
ATOM     25  C   UNL     1      -0.344   1.848  25.436  0.00  0.00    +0.261 C 
ATOM     26  O   UNL     1      -0.581   1.807  26.225  0.00  0.00    -0.271 OA
ENDBRANCH  19  20
ENDBRANCH  16  17
TORSDOF 5
ENDMDL
MODEL 4
REMARK VINA RESULT:     -11.4      1.707      4.641
REMARK  Name = 
REMARK  5 active torsions:
REMARK  status: ('A' for Active; 'I' for Inactive)
REMARK    1  A    between atoms: O_2  and  C_3
REMARK    2  A    between atoms: C_6  and  C_9
REMARK    3  A    between atoms: C_16  and  C_17
REMARK    4  A    between atoms: N_19  and  C_20
REMARK    5  A    between atoms: C_27  and  C_29
REMARK                            x       y       z     vdW  Elec       q    Type
REMARK                         _______ _______ _______ _____ _____    ______ ____
ROOT
ATOM      9  C   UNL     1      -1.332   0.646  24.533  0.00  0.00    +0.249 C 
ATOM     10  O   UNL     1      -1.464  -0.147  24.718  0.00  0.00    -0.270 OA
ATOM     11  N   UNL     1      -1.952   1.189  24.570  0.00  0.00    -0.266 N 
ATOM     12  C   UNL     1      -1.819   1.981  24.386  0.00  0.00    +0.116 C 
ATOM     13  C   UNL     1      -2.440   2.524  24.423  0.00  0.00    +0.115 C 
ATOM     14  N   UNL     1      -3.194   2.273  24.644  0.00  0.00    -0.272 N 
ATOM     15  C   UNL     1      -3.327   1.479  24.829  0.00  0.00    +0.123 C 
ATOM     16  C   UNL     1      -2.706   0.938  24.792  0.00  0.00    +0.174 C 
ATOM     27  C   UNL     1      -3.815   2.814  24.682  0.00  0.00    +0.249 C 
ATOM     28  O   UNL     1      -3.682   3.608  24.497  0.00  0.00    -0.270 OA
ENDROOT
BRANCH  27  29
ATOM     29  C   UNL     1      -4.568   2.563  24.903  0.00  0.00    +0.056 A 
ATOM     30  C   UNL     1      -5.071   2.222  24.344  0.00  0.00    +0.005 A 
ATOM     31  C   UNL     1      -5.825   1.971  24.565  0.00  0.00    +0.002 A 
ATOM     32  C   UNL     1      -6.076   2.061  25.346  0.00  0.00    +0.030 A 
ATOM     33  C   UNL     1      -5.575   2.402  25.904  0.00  0.00    +0.140 A 
ATOM     34  F   UNL     1      -5.826   2.491  26.685  0.00  0.00    -0.204 F 
ATOM     35  C   UNL     1      -4.821   2.653  25.683  0.00  0.00    +0.034 A 
ENDBRANCH  27  29
BRANCH   9   6
ATOM      3  C   UNL     1       0.932   1.399  23.869  0.00  0.00    +0.139 A 
ATOM      4  C   UNL     1       0.488   0.925  23.359  0.00  0.00    +0.037 A 
ATOM      5  C   UNL     1      -0.266   0.674  23.580  0.00  0.00    +0.008 A 
ATOM      6  C   UNL     1      -0.577   0.897  24.312  0.00  0.00    +0.054 A 
ATOM      7  C   UNL     1      -0.134   1.370  24.821  0.00  0.00    +0.008 A 
ATOM      8  C   UNL     1       0.620   1.621  24.600  0.00  0.00    +0.037 A 
BRANCH   3   2
ATOM      1  C   UNL     1       2.195   1.131  23.259  0.00  0.00    +0.252 C 
ATOM      2  O   UNL     1       1.685   1.650  23.648  0.00  0.00    -0.471 OA
ENDBRANCH   3   2
ENDBRANCH   9   6
BRANCH  16  17
ATOM     17  C   UNL     1      -2.840   0.144  24.976  0.00  0.00    +0.262 C 
ATOM     18  O   UNL     1      -2.457  -0.199  25.622  0.00  0.00    -0.271 OA
ATOM     19  N   UNL     1      -3.355  -0.305  24.516  0.00  0.00    -0.196 NA
BRANCH  19  20
ATOM     20  C   UNL     1      -3.488  -1.098  24.700  0.00  0.00    +0.173 C 
ATOM     21  C   UNL     1      -3.321  -1.379  25.458  0.00  0.00    +0.033 C 
ATOM     22  C   UNL     1      -3.455  -2.172  25.642  0.00  0.00    +0.026 C 
ATOM     23  C   UNL     1      -3.755  -2.684  25.069  0.00  0.00    +0.115 C 
ATOM     24  N   UNL     1      -3.922  -2.403  24.312  0.00  0.00    -0.204 NA
ATOM     25  C   UNL     1      -3.789  -1.610  24.127  0.00  0.00    +0.261 C 
ATOM     26  O   UNL     1      -3.956  -1.329  23.370  0.00  0.00    -0.271 OA
ENDBRANCH  19  20
ENDBRANCH  16  17
TORSDOF 5
ENDMDL
MODEL 5
REMARK VINA RESULT:     -10.9      1.504      4.167
REMARK  Name = 
REMARK  5 active torsions:
REMARK  status: ('A' for Active; 'I' for Inactive)
REMARK    1  A    between atoms: O_2  and  C_3
REMARK    2  A    between atoms: C_6  and  C_9
REMARK    3  A    between atoms: C_16  and  C_17
REMARK    4  A    between atoms: N_19  and  C_20
REMARK    5  A    between atoms: C_27  and  C_29
REMARK                            x       y       z     vdW  Elec       q    Type
REMARK                         _______ _______ _______ _____ _____    ______ ____
ROOT
ATOM      9  C   UNL     1      -4.209   1.235  24.749  0.00  0.00    +0.249 C 
ATOM     10  O   UNL     1      -4.590   0.532  24.549  0.00  0.00    -0.270 OA
ATOM     11  N   UNL     1      -3.387   1.289  24.699  0.00  0.00    -0.266 N 
ATOM     12  C   UNL     1      -3.006   1.992  24.899  0.00  0.00    +0.116 C 
ATOM     13  C   UNL     1      -2.185   2.046  24.848  0.00  0.00    +0.115 C 
ATOM     14  N   UNL     1      -1.744   1.396  24.598  0.00  0.00    -0.272 N 
ATOM     15  C   UNL     1      -2.124   0.691  24.398  0.00  0.00    +0.123 C 
ATOM     16  C   UNL     1      -2.946   0.638  24.449  0.00  0.00    +0.174 C 
ATOM     27  C   UNL     1      -0.922   1.448  24.548  0.00  0.00    +0.249 C 
ATOM     28  O   UNL     1      -0.541   2.153  24.748  0.00  0.00    -0.270 OA
ENDROOT
BRANCH  27  29
ATOM     29  C   UNL     1      -0.481   0.798  24.298  0.00  0.00    +0.056 A 
ATOM     30  C   UNL     1      -0.317   0.184  24.824  0.00  0.00    +0.005 A 
ATOM     31  C   UNL     1       0.124  -0.467  24.574  0.00  0.00    +0.002 A 
ATOM     32  C   UNL     1       0.400  -0.503  23.797  0.00  0.00    +0.030 A 
ATOM     33  C   UNL     1       0.236   0.110  23.271  0.00  0.00    +0.140 A 
ATOM     34  F   UNL     1       0.513   0.074  22.494  0.00  0.00    -0.204 F 
ATOM     35  C   UNL     1      -0.205   0.761  23.521  0.00  0.00    +0.034 A 
ENDBRANCH  27  29
BRANCH   9   6
ATOM      3  C   UNL     1      -5.532   3.188  25.500  0.00  0.00    +0.139 A 
ATOM      4  C   UNL     1      -5.498   2.508  25.967  0.00  0.00    +0.037 A 
ATOM      5  C   UNL     1      -5.057   1.858  25.717  0.00  0.00    +0.008 A 
ATOM      6  C   UNL     1      -4.650   1.887  25.000  0.00  0.00    +0.054 A 
ATOM      7  C   UNL     1      -4.685   2.565  24.533  0.00  0.00    +0.008 A 
ATOM      8  C   UNL     1      -5.126   3.216  24.783  0.00  0.00    +0.037 A 
BRANCH   3   2
ATOM      1  C   UNL     1      -5.781   4.595  25.483  0.00  0.00    +0.252 C 
ATOM      2  O   UNL     1      -5.973   3.838  25.750  0.00  0.00    -0.471 OA
ENDBRANCH   3   2
ENDBRANCH   9   6
BRANCH  16  17
ATOM     17  C   UNL     1      -3.327  -0.066  24.249  0.00  0.00    +0.262 C 
ATOM     18  O   UNL     1      -3.900  -0.071  23.656  0.00  0.00    -0.271 OA
ATOM     19  N   UNL     1      -3.134  -0.765  24.641  0.00  0.00    -0.196 NA
BRANCH  19  20
ATOM     20  C   UNL     1      -3.515  -1.469  24.441  0.00  0.00    +0.173 C 
ATOM     21  C   UNL     1      -3.900  -1.538  23.714  0.00  0.00    +0.033 C 
ATOM     22  C   UNL     1      -4.280  -2.242  23.515  0.00  0.00    +0.026 C 
ATOM     23  C   UNL     1      -4.276  -2.877  24.041  0.00  0.00    +0.115 C 
ATOM     24  N   UNL     1      -3.891  -2.808  24.767  0.00  0.00    -0.204 NA
ATOM     25  C   UNL     1      -3.510  -2.104  24.968  0.00  0.00    +0.261 C 
ATOM     26  O   UNL     1      -3.126  -2.035  25.694  0.00  0.00    -0.271 OA
ENDBRANCH  19  20
ENDBRANCH  16  17
TORSDOF 5
ENDMDL
MODEL 6
REMARK VINA RESULT:     -10.5      1.985      4.477
REMARK  Name = 
REMARK  5 active torsions:
REMARK  status: ('A' for Active; 'I' for Inactive)
REMARK    1  A    between atoms: O_2  and  C_3
REMARK    2  A    between atoms: C_6  and  C_9
REMARK    3  A    between atoms: C_16  and  C_17
REMARK    4  A    between atoms: N_19  and  C_20
REMARK    5  A    between atoms: C_27  and  C_29
REMARK                            x       y       z     vdW  Elec       q    Type
REMARK                         _______ _______ _______ _____ _____    ______ ____
ROOT
ATOM      9  C   UNL     1      -2.672   2.594  24.824  0.00  0.00    +0.249 C 
ATOM     10  O   UNL     1      -3.458   2.793  24.673  0.00  0.00    -0.270 OA
ATOM     11  N   UNL     1      -2.461   1.804  24.938  0.00  0.00    -0.266 N 
ATOM     12  C   UNL     1      -1.675   1.605  25.088  0.00  0.00    +0.116 C 
ATOM     13  C   UNL     1      -1.463   0.816  25.202  0.00  0.00    +0.115 C 
ATOM     14  N   UNL     1      -2.038   0.225  25.165  0.00  0.00    -0.272 N 
ATOM     15  C   UNL     1      -2.825   0.425  25.015  0.00  0.00    +0.123 C 
ATOM     16  C   UNL     1      -3.036   1.214  24.901  0.00  0.00    +0.174 C 
ATOM     27  C   UNL     1      -1.828  -0.564  25.279  0.00  0.00    +0.249 C 
ATOM     28  O   UNL     1      -1.041  -0.763  25.430  0.00  0.00    -0.270 OA
ENDROOT
BRANCH  27  29
ATOM     29  C   UNL     1      -2.402  -1.154  25.242  0.00  0.00    +0.056 A 
ATOM     30  C   UNL     1      -2.829  -1.357  25.920  0.00  0.00    +0.005 A 
ATOM     31  C   UNL     1      -3.404  -1.947  25.883  0.00  0.00    +0.002 A 
ATOM     32  C   UNL     1      -3.553  -2.334  25.169  0.00  0.00    +0.030 A 
ATOM     33  C   UNL     1      -3.127  -2.131  24.493  0.00  0.00    +0.140 A 
ATOM     34  F   UNL     1      -3.276  -2.518  23.779  0.00  0.00    -0.204 F 
ATOM     35  C   UNL     1      -2.552  -1.541  24.530  0.00  0.00    +0.034 A 
ENDBRANCH  27  29
BRANCH   9   6
ATOM      3  C   UNL     1      -0.946   4.365  24.934  0.00  0.00    +0.139 A 
ATOM      4  C   UNL     1      -1.451   4.240  25.575  0.00  0.00    +0.037 A 
ATOM      5  C   UNL     1      -2.026   3.650  25.538  0.00  0.00    +0.008 A 
ATOM      6  C   UNL     1      -2.096   3.185  24.860  0.00  0.00    +0.054 A 
ATOM      7  C   UNL     1      -1.593   3.309  24.220  0.00  0.00    +0.008 A 
ATOM      8  C   UNL     1      -1.017   3.899  24.256  0.00  0.00    +0.037 A 
BRANCH   3   2
ATOM      1  C   UNL     1      -0.517   5.695  24.636  0.00  0.00    +0.252 C 
ATOM      2  O   UNL     1      -0.371   4.954  24.970  0.00  0.00    -0.471 OA
ENDBRANCH   3   2
ENDBRANCH   9   6
BRANCH  16  17
ATOM     17  C   UNL     1      -3.823   1.413  24.750  0.00  0.00    +0.262 C 
ATOM     18  O   UNL     1      -4.046   1.668  23.998  0.00  0.00    -0.271 OA
ATOM     19  N   UNL     1      -4.384   1.357  25.351  0.00  0.00    -0.196 NA
BRANCH  19  20
ATOM     20  C   UNL     1      -5.171   1.556  25.201  0.00  0.00    +0.173 C 
ATOM     21  C   UNL     1      -5.527   1.323  24.494  0.00  0.00    +0.033 C 
ATOM     22  C   UNL     1      -6.313   1.522  24.344  0.00  0.00    +0.026 C 
ATOM     23  C   UNL     1      -6.744   1.953  24.900  0.00  0.00    +0.115 C 
ATOM     24  N   UNL     1      -6.387   2.186  25.606  0.00  0.00    -0.204 NA
ATOM     25  C   UNL     1      -5.601   1.988  25.757  0.00  0.00    +0.261 C 
ATOM     26  O   UNL     1      -5.245   2.221  26.463  0.00  0.00    -0.271 OA
ENDBRANCH  19  20
ENDBRANCH  16  17
TORSDOF 5
ENDMDL
MODEL 7
REMARK VINA RESULT:     -10.5      2.383      4.619
REMARK  Name = 
REMARK  5 active torsions:
REMARK  status: ('A' for Active; 'I' for Inactive)
REMARK    1  A    between atoms: O_2  and  C_3
REMARK    2  A    between atoms: C_6  and  C_9
REMARK    3  A    between atoms: C_16  and  C_17
REMARK    4  A    between atoms: N_19  and  C_20
REMARK    5  A    between atoms: C_27  and  C_29
REMARK                            x       y       z     vdW  Elec       q    Type
REMARK                         _______ _______ _______ _____ _____    ______ ____
ROOT
ATOM      9  C   UNL     1       0.151   0.776  23.616  0.00  0.00    +0.249 C 
ATOM     10  O   UNL     1      -0.129   1.551  23.621  0.00  0.00    -0.270 OA
ATOM     11  N   UNL     1      -0.323   0.162  23.898  0.00  0.00    -0.266 N 
ATOM     12  C   UNL     1      -0.043  -0.613  23.893  0.00  0.00    +0.116 C 
ATOM     13  C   UNL     1      -0.517  -1.226  24.175  0.00  0.00    +0.115 C 
ATOM     14  N   UNL     1      -1.273  -1.063  24.463  0.00  0.00    -0.272 N 
ATOM     15  C   UNL     1      -1.554  -0.287  24.468  0.00  0.00    +0.123 C 
ATOM     16  C   UNL     1      -1.079   0.325  24.186  0.00  0.00    +0.174 C 
ATOM     27  C   UNL     1      -1.748  -1.675  24.745  0.00  0.00    +0.249 C 
ATOM     28  O   UNL     1      -1.467  -2.452  24.740  0.00  0.00    -0.270 OA
ENDROOT
BRANCH  27  29
ATOM     29  C   UNL     1      -2.503  -1.512  25.033  0.00  0.00    +0.056 A 
ATOM     30  C   UNL     1      -2.613  -1.344  25.833  0.00  0.00    +0.005 A 
ATOM     31  C   UNL     1      -3.368  -1.181  26.121  0.00  0.00    +0.002 A 
ATOM     32  C   UNL     1      -4.015  -1.186  25.608  0.00  0.00    +0.030 A 
ATOM     33  C   UNL     1      -3.906  -1.355  24.809  0.00  0.00    +0.140 A 
ATOM     34  F   UNL     1      -4.552  -1.361  24.296  0.00  0.00    -0.204 F 
ATOM     35  C   UNL     1      -3.150  -1.518  24.521  0.00  0.00    +0.034 A 
ENDBRANCH  27  29
BRANCH   9   6
ATOM      3  C   UNL     1       2.419   0.286  22.752  0.00  0.00    +0.139 A 
ATOM      4  C   UNL     1       2.325   0.774  23.412  0.00  0.00    +0.037 A 
ATOM      5  C   UNL     1       1.569   0.937  23.700  0.00  0.00    +0.008 A 
ATOM      6  C   UNL     1       0.908   0.612  23.328  0.00  0.00    +0.054 A 
ATOM      7  C   UNL     1       1.002   0.126  22.669  0.00  0.00    +0.008 A 
ATOM      8  C   UNL     1       1.758  -0.037  22.381  0.00  0.00    +0.037 A 
BRANCH   3   2
ATOM      1  C   UNL     1       3.792   0.652  22.603  0.00  0.00    +0.252 C 
ATOM      2  O   UNL     1       3.174   0.124  22.465  0.00  0.00    -0.471 OA
ENDBRANCH   3   2
ENDBRANCH   9   6
BRANCH  16  17
ATOM     17  C   UNL     1      -1.360   1.102  24.192  0.00  0.00    +0.262 C 
ATOM     18  O   UNL     1      -1.439   1.516  23.483  0.00  0.00    -0.271 OA
ATOM     19  N   UNL     1      -1.562   1.462  24.905  0.00  0.00    -0.196 NA
BRANCH  19  20
ATOM     20  C   UNL     1      -1.843   2.237  24.911  0.00  0.00    +0.173 C 
ATOM     21  C   UNL     1      -2.377   2.487  24.332  0.00  0.00    +0.033 C 
ATOM     22  C   UNL     1      -2.658   3.262  24.338  0.00  0.00    +0.026 C 
ATOM     23  C   UNL     1      -2.406   3.788  24.922  0.00  0.00    +0.115 C 
ATOM     24  N   UNL     1      -1.873   3.539  25.499  0.00  0.00    -0.204 NA
ATOM     25  C   UNL     1      -1.591   2.763  25.494  0.00  0.00    +0.261 C 
ATOM     26  O   UNL     1      -1.058   2.514  26.071  0.00  0.00    -0.271 OA
ENDBRANCH  19  20
ENDBRANCH  16  17
TORSDOF 5
ENDMDL
MODEL 8
REMARK VINA RESULT:     -10.2      1.792      4.729
REMARK  Name = 
REMARK  5 active torsions:
REMARK  status: ('A' for Active; 'I' for Inactive)
REMARK    1  A    between atoms: O_2  and  C_3
REMARK    2  A    between atoms: C_6  and  C_9
REMARK    3  A    between atoms: C_16  and  C_17
REMARK    4  A    between atoms: N_19  and  C_20
REMARK    5  A    between atoms: C_27  and  C_29
REMARK                            x       y       z     vdW  Elec       q    Type
REMARK                         _______ _______ _______ _____ _____    ______ ____
ROOT
ATOM      9  C   UNL     1      -3.335   1.966  24.843  0.00  0.00    +0.249 C 
ATOM     10  O   UNL     1      -2.644   2.339  24.594  0.00  0.00    -0.270 OA
ATOM     11  N   UNL     1      -3.351   1.146  24.937  0.00  0.00    -0.266 N 
ATOM     12  C   UNL     1      -4.043   0.773  25.186  0.00  0.00    +0.116 C 
ATOM     13  C   UNL     1      -4.059  -0.047  25.281  0.00  0.00    +0.115 C 
ATOM     14  N   UNL     1      -3.382  -0.493  25.126  0.00  0.00    -0.272 N 
ATOM     15  C   UNL     1      -2.689  -0.119  24.877  0.00  0.00    +0.123 C 
ATOM     16  C   UNL     1      -2.675   0.700  24.783  0.00  0.00    +0.174 C 
ATOM     27  C   UNL     1      -3.397  -1.312  25.220  0.00  0.00    +0.249 C 
ATOM     28  O   UNL     1      -4.090  -1.686  25.469  0.00  0.00    -0.270 OA
ENDROOT
BRANCH  27  29
ATOM     29  C   UNL     1      -2.721  -1.758  25.065  0.00  0.00    +0.056 A 
ATOM     30  C   UNL     1      -2.118  -1.801  25.627  0.00  0.00    +0.005 A 
ATOM     31  C   UNL     1      -1.441  -2.247  25.473  0.00  0.00    +0.002 A 
ATOM     32  C   UNL     1      -1.368  -2.649  24.756  0.00  0.00    +0.030 A 
ATOM     33  C   UNL     1      -1.970  -2.606  24.194  0.00  0.00    +0.140 A 
ATOM     34  F   UNL     1      -1.896  -3.008  23.477  0.00  0.00    -0.204 F 
ATOM     35  C   UNL     1      -2.646  -2.160  24.349  0.00  0.00    +0.034 A 
ENDBRANCH  27  29
BRANCH   9   6
ATOM      3  C   UNL     1      -5.366   3.304  25.308  0.00  0.00    +0.139 A 
ATOM      4  C   UNL     1      -5.318   2.851  24.618  0.00  0.00    +0.037 A 
ATOM      5  C   UNL     1      -4.642   2.405  24.464  0.00  0.00    +0.008 A 
ATOM      6  C   UNL     1      -4.013   2.412  24.998  0.00  0.00    +0.054 A 
ATOM      7  C   UNL     1      -4.060   2.864  25.686  0.00  0.00    +0.008 A 
ATOM      8  C   UNL     1      -4.737   3.309  25.841  0.00  0.00    +0.037 A 
BRANCH   3   2
ATOM      1  C   UNL     1      -5.976   4.551  25.641  0.00  0.00    +0.252 C 
ATOM      2  O   UNL     1      -6.042   3.749  25.462  0.00  0.00    -0.471 OA
ENDBRANCH   3   2
ENDBRANCH   9   6
BRANCH  16  17
ATOM     17  C   UNL     1      -1.982   1.074  24.533  0.00  0.00    +0.262 C 
ATOM     18  O   UNL     1      -1.960   1.457  23.803  0.00  0.00    -0.271 OA
ATOM     19  N   UNL     1      -1.313   1.064  25.014  0.00  0.00    -0.196 NA
BRANCH  19  20
ATOM     20  C   UNL     1      -0.620   1.438  24.766  0.00  0.00    +0.173 C 
ATOM     21  C   UNL     1      -0.395   1.402  23.972  0.00  0.00    +0.033 C 
ATOM     22  C   UNL     1       0.297   1.776  23.723  0.00  0.00    +0.026 C 
ATOM     23  C   UNL     1       0.764   2.184  24.267  0.00  0.00    +0.115 C 
ATOM     24  N   UNL     1       0.539   2.219  25.059  0.00  0.00    -0.204 NA
ATOM     25  C   UNL     1      -0.153   1.846  25.309  0.00  0.00    +0.261 C 
ATOM     26  O   UNL     1      -0.378   1.881  26.102  0.00  0.00    -0.271 OA
ENDBRANCH  19  20
ENDBRANCH  16  17
TORSDOF 5
ENDMDL
