MODEL 1
REMARK VINA RESULT:     -13.6      0.000      0.000
REMARK  Name = 
REMARK  5 active torsions:
REMARK  status: ('A' for Active; 'I' for Inactive)
REMARK    1  A    between atoms: O_2  and  C_3
REMARK    2  A    between atoms: C_6  and  C_7
REMARK    3  A    between atoms: C_7  and  N_8
REMARK    4  A    between atoms: N_11  and  C_12
REMARK    5  A    between atoms: C_12  and  C_13
REMARK                            x       y       z     vdW  Elec       q    Type
REMARK                         _______ _______ _______ _____ _____    ______ ____
ROOT
ATOM      8  N   UNL     1      -4.231   2.931  24.859  0.00  0.00    -0.271 N 
ATOM      9  C   UNL     1      -4.429   2.132  24.808  0.00  0.00    +0.120 C 
ATOM     10  C   UNL     1      -4.096   1.505  24.387  0.00  0.00    +0.095 C 
ATOM     11  N   UNL     1      -4.533   0.826  24.554  0.00  0.00    -0.265 NA
ATOM     22  C   UNL     1      -5.136   1.031  25.077  0.00  0.00    +0.104 C 
ATOM     23  C   UNL     1      -5.072   1.839  25.234  0.00  0.00    +0.151 C 
ATOM     24  O   UNL     1      -5.516   2.346  25.711  0.00  0.00    -0.344 OA
ATOM     25  C   UNL     1      -5.317   3.145  25.761  0.00  0.00    +0.227 C 
ATOM     26  C   UNL     1      -4.674   3.437  25.334  0.00  0.00    +0.256 C 
ATOM     27  O   UNL     1      -4.476   4.237  25.385  0.00  0.00    -0.272 OA
ENDROOT
BRANCH   8   7
ATOM      7  C   UNL     1      -3.588   3.223  24.432  0.00  0.00    +0.120 C 
BRANCH   7   6
ATOM      3  C   UNL     1      -1.332   3.247  25.451  0.00  0.00    +0.139 A 
ATOM      4  C   UNL     1      -1.948   3.666  25.804  0.00  0.00    +0.037 A 
ATOM      5  C   UNL     1      -2.701   3.659  25.465  0.00  0.00    +0.001 A 
ATOM      6  C   UNL     1      -2.836   3.232  24.772  0.00  0.00    -0.002 A 
ATOM     28  C   UNL     1      -2.219   2.812  24.418  0.00  0.00    +0.001 A 
ATOM     29  C   UNL     1      -1.468   2.821  24.758  0.00  0.00    +0.037 A 
BRANCH   3   2
ATOM      1  C   UNL     1      -0.272   2.568  26.126  0.00  0.00    +0.252 C 
ATOM      2  O   UNL     1      -0.581   3.255  25.790  0.00  0.00    -0.471 OA
ENDBRANCH   3   2
ENDBRANCH   7   6
ENDBRANCH   8   7
BRANCH  11  12
ATOM     12  C   UNL     1      -4.392   0.071  24.250  0.00  0.00    +0.101 C 
BRANCH  12  13
ATOM     13  C   UNL     1      -4.011  -0.495  24.713  0.00  0.00    +0.014 A 
ATOM     14  C   UNL     1      -3.642  -0.360  25.439  0.00  0.00    +0.096 A 
ATOM     15  N   UNL     1      -3.336  -1.079  25.706  0.00  0.00    -0.244 NA
ATOM     16  C   UNL     1      -3.515  -1.656  25.145  0.00  0.00    +0.081 A 
ATOM     17  C   UNL     1      -3.932  -1.297  24.532  0.00  0.00    +0.016 A 
ATOM     18  C   UNL     1      -4.187  -1.744  23.888  0.00  0.00    +0.001 A 
ATOM     19  C   UNL     1      -4.024  -2.552  23.857  0.00  0.00    +0.000 A 
ATOM     20  C   UNL     1      -3.606  -2.913  24.471  0.00  0.00    +0.002 A 
ATOM     21  C   UNL     1      -3.352  -2.465  25.115  0.00  0.00    +0.019 A 
ENDBRANCH  12  13
ENDBRANCH  11  12
TORSDOF 5
ENDMDL
MODEL 2
REMARK VINA RESULT:     -12.4      1.998      4.888
REMARK  Name = 
REMARK  5 active torsions:
REMARK  status: ('A' for Active; 'I' for Inactive)
REMARK    1  A    between atoms: O_2  and  C_3
REMARK    2  A    between atoms: C_6  and  C_7
REMARK    3  A    between atoms: C_7  and  N_8
REMARK    4  A    between atoms: N_11  and  C_12
REMARK    5  A    between atoms: C_12  and  C_13
REMARK                            x       y       z     vdW  Elec       q    Type
REMARK                         _______ _______ _______ _____ _____    ______ ____
ROOT
ATOM      8  N   UNL     1      -1.404   0.127  24.757  0.00  0.00    -0.271 N 
ATOM      9  C   UNL     1      -1.815   0.726  24.366  0.00  0.00    +0.120 C 
ATOM     10  C   UNL     1      -2.577   1.028  24.463  0.00  0.00    +0.095 C 
ATOM     11  N   UNL     1      -2.684   1.630  23.910  0.00  0.00    -0.265 NA
ATOM     22  C   UNL     1      -1.990   1.701  23.471  0.00  0.00    +0.104 C 
ATOM     23  C   UNL     1      -1.452   1.143  23.753  0.00  0.00    +0.151 C 
ATOM     24  O   UNL     1      -0.678   0.959  23.530  0.00  0.00    -0.344 OA
ATOM     25  C   UNL     1      -0.269   0.359  23.922  0.00  0.00    +0.227 C 
ATOM     26  C   UNL     1      -0.631  -0.057  24.535  0.00  0.00    +0.256 C 
ATOM     27  O   UNL     1      -0.220  -0.656  24.925  0.00  0.00    -0.272 OA
ENDROOT
BRANCH   8   7
ATOM      7  C   UNL     1      -1.766  -0.289  25.370  0.00  0.00    +0.120 C 
BRANCH   7   6
ATOM      3  C   UNL     1      -3.145  -2.283  24.870  0.00  0.00    +0.139 A 
ATOM      4  C   UNL     1      -2.365  -2.244  24.605  0.00  0.00    +0.037 A 
ATOM      5  C   UNL     1      -1.905  -1.579  24.771  0.00  0.00    +0.001 A 
ATOM      6  C   UNL     1      -2.225  -0.954  25.203  0.00  0.00    -0.002 A 
ATOM     28  C   UNL     1      -3.006  -0.993  25.469  0.00  0.00    +0.001 A 
ATOM     29  C   UNL     1      -3.465  -1.657  25.302  0.00  0.00    +0.037 A 
BRANCH   3   2
ATOM      1  C   UNL     1      -4.057  -2.974  24.015  0.00  0.00    +0.252 C 
ATOM      2  O   UNL     1      -3.604  -2.947  24.704  0.00  0.00    -0.471 OA
ENDBRANCH   3   2
ENDBRANCH   7   6
ENDBRANCH   8   7
BRANCH  11  12
ATOM     12  C   UNL     1      -3.368   2.083  23.812  0.00  0.00    +0.101 C 
BRANCH  12  13
ATOM     13  C   UNL     1      -3.577   2.641  24.381  0.00  0.00    +0.014 A 
ATOM     14  C   UNL     1      -3.087   3.232  24.685  0.00  0.00    +0.096 A 
ATOM     15  N   UNL     1      -3.521   3.663  25.239  0.00  0.00    -0.244 NA
ATOM     16  C   UNL     1      -4.278   3.339  25.277  0.00  0.00    +0.081 A 
ATOM     17  C   UNL     1      -4.314   2.708  24.748  0.00  0.00    +0.016 A 
ATOM     18  C   UNL     1      -5.010   2.275  24.667  0.00  0.00    +0.001 A 
ATOM     19  C   UNL     1      -5.674   2.473  25.116  0.00  0.00    +0.000 A 
ATOM     20  C   UNL     1      -5.639   3.106  25.647  0.00  0.00    +0.002 A 
ATOM     21  C   UNL     1      -4.942   3.538  25.727  0.00  0.00    +0.019 A 
ENDBRANCH  12  13
ENDBRANCH  11  12
TORSDOF 5
ENDMDL
MODEL 3
REMARK VINA RESULT:     -12.3      1.203      2.850
REMARK  Name = 
REMARK  5 active torsions:
REMARK  status: ('A' for Active; 'I' for Inactive)
REMARK    1  A    between atoms: O_2  and  C_3
REMARK    2  A    between atoms: C_6  and  C_7
REMARK    3  A    between atoms: C_7  and  N_8
REMARK    4  A    between atoms: N_11  and  C_12
REMARK    5  A    between atoms: C_12  and  C_13
REMARK                            x       y       z     vdW  Elec       q    Type
REMARK                         _______ _______ _______ _____ _____    ______ ____
ROOT
ATOM      8  N   UNL     1      -1.407   2.638  25.000  0.00  0.00    -0.271 N 
ATOM      9  C   UNL     1      -1.361   1.815  25.036  0.00  0.00    +0.120 C 
ATOM     10  C   UNL     1      -1.753   1.221  24.617  0.00  0.00    +0.095 C 
ATOM     11  N   UNL     1      -1.479   0.493  24.893  0.00  0.00    -0.265 NA
ATOM     22  C   UNL     1      -0.919   0.636  25.481  0.00  0.00    +0.104 C 
ATOM     23  C   UNL     1      -0.846   1.454  25.569  0.00  0.00    +0.151 C 
ATOM     24  O   UNL     1      -0.377   1.916  26.068  0.00  0.00    -0.344 OA
ATOM     25  C   UNL     1      -0.424   2.738  26.031  0.00  0.00    +0.227 C 
ATOM     26  C   UNL     1      -0.939   3.100  25.497  0.00  0.00    +0.256 C 
ATOM     27  O   UNL     1      -0.985   3.923  25.462  0.00  0.00    -0.272 OA
ENDROOT
BRANCH   8   7
ATOM      7  C   UNL     1      -1.922   2.999  24.467  0.00  0.00    +0.120 C 
BRANCH   7   6
ATOM      3  C   UNL     1      -4.245   3.520  25.144  0.00  0.00    +0.139 A 
ATOM      4  C   UNL     1      -3.615   3.740  25.628  0.00  0.00    +0.037 A 
ATOM      5  C   UNL     1      -2.840   3.567  25.403  0.00  0.00    +0.001 A 
ATOM      6  C   UNL     1      -2.696   3.173  24.693  0.00  0.00    -0.002 A 
ATOM     28  C   UNL     1      -3.327   2.952  24.208  0.00  0.00    +0.001 A 
ATOM     29  C   UNL     1      -4.101   3.126  24.434  0.00  0.00    +0.037 A 
BRANCH   3   2
ATOM      1  C   UNL     1      -5.493   3.107  25.704  0.00  0.00    +0.252 C 
ATOM      2  O   UNL     1      -5.019   3.694  25.370  0.00  0.00    -0.471 OA
ENDBRANCH   3   2
ENDBRANCH   7   6
ENDBRANCH   8   7
BRANCH  11  12
ATOM     12  C   UNL     1      -1.723  -0.249  24.626  0.00  0.00    +0.101 C 
BRANCH  12  13
ATOM     13  C   UNL     1      -2.366  -0.624  24.981  0.00  0.00    +0.014 A 
ATOM     14  C   UNL     1      -2.867  -0.294  25.548  0.00  0.00    +0.096 A 
ATOM     15  N   UNL     1      -3.433  -0.861  25.748  0.00  0.00    -0.244 NA
ATOM     16  C   UNL     1      -3.281  -1.540  25.305  0.00  0.00    +0.081 A 
ATOM     17  C   UNL     1      -2.623  -1.394  24.832  0.00  0.00    +0.016 A 
ATOM     18  C   UNL     1      -2.341  -1.980  24.325  0.00  0.00    +0.001 A 
ATOM     19  C   UNL     1      -2.717  -2.713  24.292  0.00  0.00    +0.000 A 
ATOM     20  C   UNL     1      -3.377  -2.860  24.766  0.00  0.00    +0.002 A 
ATOM     21  C   UNL     1      -3.658  -2.273  25.273  0.00  0.00    +0.019 A 
ENDBRANCH  12  13
ENDBRANCH  11  12
TORSDOF 5
ENDMDL
MODEL 4
REMARK VINA RESULT:     -12.2      1.878      3.263
REMARK  Name = 
REMARK  5 active torsions:
REMARK  status: ('A' for Active; 'I' for Inactive)
REMARK    1  A    between atoms: O_2  and  C_3
REMARK    2  A    between atoms: C_6  and  C_7
REMARK    3  A    between atoms: C_7  and  N_8
REMARK    4  A    between atoms: N_11  and  C_12
REMARK    5  A    between atoms: C_12  and  C_13
REMARK                            x       y       z     vdW  Elec       q    Type
REMARK                         _______ _______ _______ _____ _____    ______ ____
ROOT
ATOM      8  N   UNL     1      -0.187   1.537  25.062  0.00  0.00    -0.271 N 
ATOM      9  C   UNL     1      -0.648   0.860  24.956  0.00  0.00    +0.120 C 
ATOM     10  C   UNL     1      -1.278   0.548  25.388  0.00  0.00    +0.095 C 
ATOM     11  N   UNL     1      -1.523  -0.146  25.014  0.00  0.00    -0.265 NA
ATOM     22  C   UNL     1      -1.045  -0.263  24.353  0.00  0.00    +0.104 C 
ATOM     23  C   UNL     1      -0.504   0.360  24.316  0.00  0.00    +0.151 C 
ATOM     24  O   UNL     1       0.102   0.535  23.783  0.00  0.00    -0.344 OA
ATOM     25  C   UNL     1       0.562   1.211  23.890  0.00  0.00    +0.227 C 
ATOM     26  C   UNL     1       0.417   1.712  24.530  0.00  0.00    +0.256 C 
ATOM     27  O   UNL     1       0.879   2.388  24.636  0.00  0.00    -0.272 OA
ENDROOT
BRANCH   8   7
ATOM      7  C   UNL     1      -0.332   2.037  25.702  0.00  0.00    +0.120 C 
BRANCH   7   6
ATOM      3  C   UNL     1      -1.633   4.117  25.378  0.00  0.00    +0.139 A 
ATOM      4  C   UNL     1      -0.868   4.059  25.077  0.00  0.00    +0.037 A 
ATOM      5  C   UNL     1      -0.434   3.366  25.184  0.00  0.00    +0.001 A 
ATOM      6  C   UNL     1      -0.765   2.731  25.594  0.00  0.00    -0.002 A 
ATOM     28  C   UNL     1      -1.531   2.789  25.896  0.00  0.00    +0.001 A 
ATOM     29  C   UNL     1      -1.965   3.482  25.788  0.00  0.00    +0.037 A 
BRANCH   3   2
ATOM      1  C   UNL     1      -1.680   5.518  25.098  0.00  0.00    +0.252 C 
ATOM      2  O   UNL     1      -2.067   4.810  25.271  0.00  0.00    -0.471 OA
ENDBRANCH   3   2
ENDBRANCH   7   6
ENDBRANCH   8   7
BRANCH  11  12
ATOM     12  C   UNL     1      -2.139  -0.638  25.260  0.00  0.00    +0.101 C 
BRANCH  12  13
ATOM     13  C   UNL     1      -2.830  -0.688  24.814  0.00  0.00    +0.014 A 
ATOM     14  C   UNL     1      -3.247  -0.052  24.493  0.00  0.00    +0.096 A 
ATOM     15  N   UNL     1      -3.901  -0.354  24.090  0.00  0.00    -0.244 NA
ATOM     16  C   UNL     1      -3.888  -1.175  24.162  0.00  0.00    +0.081 A 
ATOM     17  C   UNL     1      -3.227  -1.382  24.609  0.00  0.00    +0.016 A 
ATOM     18  C   UNL     1      -3.070  -2.174  24.772  0.00  0.00    +0.001 A 
ATOM     19  C   UNL     1      -3.575  -2.762  24.489  0.00  0.00    +0.000 A 
ATOM     20  C   UNL     1      -4.238  -2.555  24.041  0.00  0.00    +0.002 A 
ATOM     21  C   UNL     1      -4.394  -1.763  23.878  0.00  0.00    +0.019 A 
ENDBRANCH  12  13
ENDBRANCH  11  12
TORSDOF 5
ENDMDL
MODEL 5
REMARK VINA RESULT:     -11.8      1.325      4.022
REMARK  Name = 
REMARK  5 active torsions:
REMARK  status: ('A' for Active; 'I' for Inactive)
REMARK    1  A    between atoms: O_2  and  C_3
REMARK    2  A    between atoms: C_6  and  C_7
REMARK    3  A    between atoms: C_7  and  N_8
REMARK    4  A    between atoms: N_11  and  C_12
REMARK    5  A    between atoms: C_12  and  C_13
REMARK                            x       y       z     vdW  Elec       q    Type
REMARK                         _______ _______ _______ _____ _____    ______ ____
ROOT
ATOM      8  N   UNL     1      -4.753   2.291  24.794  0.00  0.00    -0.271 N 
ATOM      9  C   UNL     1      -4.130   2.802  24.970  0.00  0.00    +0.120 C 
ATOM     10  C   UNL     1      -3.352   2.839  24.697  0.00  0.00    +0.095 C 
ATOM     11  N   UNL     1      -2.981   3.473  25.073  0.00  0.00    -0.265 NA
ATOM     22  C   UNL     1      -3.528   3.827  25.578  0.00  0.00    +0.104 C 
ATOM     23  C   UNL     1      -4.239   3.412  25.515  0.00  0.00    +0.151 C 
ATOM     24  O   UNL     1      -4.971   3.511  25.883  0.00  0.00    -0.344 OA
ATOM     25  C   UNL     1      -5.594   2.999  25.706  0.00  0.00    +0.227 C 
ATOM     26  C   UNL     1      -5.485   2.389  25.161  0.00  0.00    +0.256 C 
ATOM     27  O   UNL     1      -6.108   1.878  24.985  0.00  0.00    -0.272 OA
ENDROOT
BRANCH   8   7
ATOM      7  C   UNL     1      -4.645   1.680  24.249  0.00  0.00    +0.120 C 
BRANCH   7   6
ATOM      3  C   UNL     1      -3.736  -0.498  24.993  0.00  0.00    +0.139 A 
ATOM      4  C   UNL     1      -4.349  -0.142  25.414  0.00  0.00    +0.037 A 
ATOM      5  C   UNL     1      -4.652   0.585  25.167  0.00  0.00    +0.001 A 
ATOM      6  C   UNL     1      -4.342   0.954  24.497  0.00  0.00    -0.002 A 
ATOM     28  C   UNL     1      -3.729   0.597  24.075  0.00  0.00    +0.001 A 
ATOM     29  C   UNL     1      -3.426  -0.129  24.324  0.00  0.00    +0.037 A 
BRANCH   3   2
ATOM      1  C   UNL     1      -3.581  -1.905  24.799  0.00  0.00    +0.252 C 
ATOM      2  O   UNL     1      -3.434  -1.224  25.240  0.00  0.00    -0.471 OA
ENDBRANCH   3   2
ENDBRANCH   7   6
ENDBRANCH   8   7
BRANCH  11  12
ATOM     12  C   UNL     1      -2.198   3.711  24.963  0.00  0.00    +0.101 C 
BRANCH  12  13
ATOM     13  C   UNL     1      -1.588   3.313  25.349  0.00  0.00    +0.014 A 
ATOM     14  C   UNL     1      -1.512   3.217  26.165  0.00  0.00    +0.096 A 
ATOM     15  N   UNL     1      -0.822   2.785  26.307  0.00  0.00    -0.244 NA
ATOM     16  C   UNL     1      -0.474   2.615  25.579  0.00  0.00    +0.081 A 
ATOM     17  C   UNL     1      -0.946   2.941  24.987  0.00  0.00    +0.016 A 
ATOM     18  C   UNL     1      -0.733   2.857  24.195  0.00  0.00    +0.001 A 
ATOM     19  C   UNL     1      -0.046   2.447  23.994  0.00  0.00    +0.000 A 
ATOM     20  C   UNL     1       0.428   2.120  24.587  0.00  0.00    +0.002 A 
ATOM     21  C   UNL     1       0.213   2.205  25.378  0.00  0.00    +0.019 A 
ENDBRANCH  12  13
ENDBRANCH  11  12
TORSDOF 5
ENDMDL
MODEL 6
REMARK VINA RESULT:     -11.7      2.162      4.468
REMARK  Name = 
REMARK  5 active torsions:
REMARK  status: ('A' for Active; 'I' for Inactive)
REMARK    1  A    between atoms: O_2  and  C_3
REMARK    2  A    between atoms: C_6  and  C_7
REMARK    3  A    between atoms: C_7  and  N_8
REMARK    4  A    between atoms: N_11  and  C_12
REMARK    5  A    between atoms: C_12  and  C_13
REMARK                            x       y       z     vdW  Elec       q    Type
REMARK                         _______ _______ _______ _____ _____    ______ ____
ROOT
ATOM      8  N   UNL     1      -3.178  -1.547  24.948  0.00  0.00    -0.271 N 
ATOM      9  C   UNL     1      -3.710  -0.929  24.826  0.00  0.00    +0.120 C 
ATOM     10  C   UNL     1      -3.740  -0.159  25.121  0.00  0.00    +0.095 C 
ATOM     11  N   UNL     1      -4.406   0.210  24.801  0.00  0.00    -0.265 NA
ATOM     22  C   UNL     1      -4.787  -0.331  24.309  0.00  0.00    +0.104 C 
ATOM     23  C   UNL     1      -4.357  -1.036  24.324  0.00  0.00    +0.151 C 
ATOM     24  O   UNL     1      -4.471  -1.761  23.946  0.00  0.00    -0.344 OA
ATOM     25  C   UNL     1      -3.938  -2.378  24.069  0.00  0.00    +0.227 C 
ATOM     26  C   UNL     1      -3.291  -2.271  24.571  0.00  0.00    +0.256 C 
ATOM     27  O   UNL     1      -2.759  -2.890  24.693  0.00  0.00    -0.272 OA
ENDROOT
BRANCH   8   7
ATOM      7  C   UNL     1      -2.531  -1.441  25.450  0.00  0.00    +0.120 C 
BRANCH   7   6
ATOM      3  C   UNL     1      -0.379  -0.625  24.541  0.00  0.00    +0.139 A 
ATOM      4  C   UNL     1      -0.714  -1.318  24.246  0.00  0.00    +0.037 A 
ATOM      5  C   UNL     1      -1.432  -1.591  24.549  0.00  0.00    +0.001 A 
ATOM      6  C   UNL     1      -1.814  -1.169  25.146  0.00  0.00    -0.002 A 
ATOM     28  C   UNL     1      -1.478  -0.475  25.441  0.00  0.00    +0.001 A 
ATOM     29  C   UNL     1      -0.761  -0.204  25.138  0.00  0.00    +0.037 A 
BRANCH   3   2
ATOM      1  C   UNL     1       0.357   0.048  23.517  0.00  0.00    +0.252 C 
ATOM      2  O   UNL     1       0.338  -0.353  24.238  0.00  0.00    -0.471 OA
ENDBRANCH   3   2
ENDBRANCH   7   6
ENDBRANCH   8   7
BRANCH  11  12
ATOM     12  C   UNL     1      -4.648   0.985  24.948  0.00  0.00    +0.101 C 
BRANCH  12  13
ATOM     13  C   UNL     1      -4.287   1.612  24.552  0.00  0.00    +0.014 A 
ATOM     14  C   UNL     1      -3.851   1.557  23.854  0.00  0.00    +0.096 A 
ATOM     15  N   UNL     1      -3.593   2.316  23.654  0.00  0.00    -0.244 NA
ATOM     16  C   UNL     1      -3.871   2.838  24.229  0.00  0.00    +0.081 A 
ATOM     17  C   UNL     1      -4.299   2.404  24.783  0.00  0.00    +0.016 A 
ATOM     18  C   UNL     1      -4.646   2.785  25.427  0.00  0.00    +0.001 A 
ATOM     19  C   UNL     1      -4.564   3.601  25.518  0.00  0.00    +0.000 A 
ATOM     20  C   UNL     1      -4.135   4.036  24.962  0.00  0.00    +0.002 A 
ATOM     21  C   UNL     1      -3.789   3.655  24.319  0.00  0.00    +0.019 A 
ENDBRANCH  12  13
ENDBRANCH  11  12
TORSDOF 5
ENDMDL
MODEL 7
REMARK VINA RESULT:     -11.6      1.800      4.927
REMARK  Name = 
REMARK  5 active torsions:
REMARK  status: ('A' for Active; 'I' for Inactive)
REMARK    1  A    between atoms: O_2  and  C_3
REMARK    2  A    between atoms: C_6  and  C_7
REMARK    3  A    between atoms: C_7  and  N_8
REMARK    4  A    between atoms: N_11  and  C_12
REMARK    5  A    between atoms: C_12  and  C_13
REMARK                            x       y       z     vdW  Elec       q    Type
REMARK                         _______ _______ _______ _____ _____    ______ ____
ROOT
ATOM      8  N   UNL     1      -2.662   0.065  24.629  0.00  0.00    -0.271 N 
ATOM      9  C   UNL     1      -2.036   0.533  24.893  0.00  0.00    +0.120 C 
ATOM     10  C   UNL     1      -1.814   1.309  24.720  0.00  0.00    +0.095 C 
ATOM     11  N   UNL     1      -1.134   1.481  25.154  0.00  0.00    -0.265 NA
ATOM     22  C   UNL     1      -0.934   0.814  25.594  0.00  0.00    +0.104 C 
ATOM     23  C   UNL     1      -1.492   0.227  25.433  0.00  0.00    +0.151 C 
ATOM     24  O   UNL     1      -1.574  -0.547  25.708  0.00  0.00    -0.344 OA
ATOM     25  C   UNL     1      -2.201  -1.014  25.443  0.00  0.00    +0.227 C 
ATOM     26  C   UNL     1      -2.744  -0.708  24.903  0.00  0.00    +0.256 C 
ATOM     27  O   UNL     1      -3.370  -1.176  24.639  0.00  0.00    -0.272 OA
ENDROOT
BRANCH   8   7
ATOM      7  C   UNL     1      -3.205   0.371  24.089  0.00  0.00    +0.120 C 
BRANCH   7   6
ATOM      3  C   UNL     1      -5.143   1.685  24.891  0.00  0.00    +0.139 A 
ATOM      4  C   UNL     1      -5.003   0.931  25.193  0.00  0.00    +0.037 A 
ATOM      5  C   UNL     1      -4.357   0.492  24.926  0.00  0.00    +0.001 A 
ATOM      6  C   UNL     1      -3.851   0.808  24.356  0.00  0.00    -0.002 A 
ATOM     28  C   UNL     1      -3.992   1.563  24.053  0.00  0.00    +0.001 A 
ATOM     29  C   UNL     1      -4.637   2.001  24.321  0.00  0.00    +0.037 A 
BRANCH   3   2
ATOM      1  C   UNL     1      -5.671   2.771  25.654  0.00  0.00    +0.252 C 
ATOM      2  O   UNL     1      -5.789   2.123  25.158  0.00  0.00    -0.471 OA
ENDBRANCH   3   2
ENDBRANCH   7   6
ENDBRANCH   8   7
BRANCH  11  12
ATOM     12  C   UNL     1      -0.724   2.198  25.148  0.00  0.00    +0.101 C 
BRANCH  12  13
ATOM     13  C   UNL     1      -1.086   2.882  25.433  0.00  0.00    +0.014 A 
ATOM     14  C   UNL     1      -1.587   2.928  26.087  0.00  0.00    +0.096 A 
ATOM     15  N   UNL     1      -1.821   3.716  26.173  0.00  0.00    -0.244 NA
ATOM     16  C   UNL     1      -1.464   4.154  25.573  0.00  0.00    +0.081 A 
ATOM     17  C   UNL     1      -1.010   3.640  25.116  0.00  0.00    +0.016 A 
ATOM     18  C   UNL     1      -0.586   3.927  24.470  0.00  0.00    +0.001 A 
ATOM     19  C   UNL     1      -0.616   4.729  24.280  0.00  0.00    +0.000 A 
ATOM     20  C   UNL     1      -1.071   5.245  24.737  0.00  0.00    +0.002 A 
ATOM     21  C   UNL     1      -1.494   4.957  25.383  0.00  0.00    +0.019 A 
ENDBRANCH  12  13
ENDBRANCH  11  12
TORSDOF 5
ENDMDL
