MODEL 1
REMARK VINA RESULT:     -12.7      0.000      0.000
REMARK  Name = 
REMARK  5 active torsions:
REMARK  status: ('A' for Active; 'I' for Inactive)
REMARK    1  A    between atoms: C_2  and  C_5
REMARK    2  A    between atoms: N_7  and  C_8
REMARK    3  A    between atoms: C_8  and  C_9
REMARK    4  A    between atoms: C_16  and  C_17
REMARK    5  A    between atoms: N_19  and  C_20
REMARK                            x       y       z     vdW  Elec       q    Type
REMARK                         _______ _______ _______ _____ _____    ______ ____
ROOT
ATOM      9  C   UNL     1      -4.139   2.665  24.571  0.00  0.00    +0.082 C 
ATOM     10  C   UNL     1      -4.645   2.197  24.931  0.00  0.00    +0.019 C 
ATOM     11  C   UNL     1      -4.593   1.390  24.974  0.00  0.00    +0.013 C 
ATOM     12  C   UNL     1      -5.276   1.035  25.434  0.00  0.00    +0.018 C 
ATOM     13  C   UNL     1      -4.924   1.517  25.169  0.00  0.00    +0.072 C 
ATOM     14  N   UNL     1      -4.092   1.843  24.619  0.00  0.00    -0.272 NA
ATOM     15  C   UNL     1      -3.483   1.246  24.295  0.00  0.00    +0.081 C 
ATOM     16  C   UNL     1      -4.003   0.821  24.659  0.00  0.00    +0.095 C 
ENDROOT
BRANCH  16  17
ATOM     17  C   UNL     1      -4.008  -0.000  24.740  0.00  0.00    +0.246 C 
ATOM     18  O   UNL     1      -4.333  -0.345  25.415  0.00  0.00    -0.273 OA
ATOM     19  N   UNL     1      -3.690  -0.475  24.145  0.00  0.00    -0.179 NA
BRANCH  19  20
ATOM     20  C   UNL     1      -3.696  -1.295  24.226  0.00  0.00    +0.073 A 
ATOM     21  C   UNL     1      -3.136  -1.667  24.706  0.00  0.00    +0.017 A 
ATOM     22  C   UNL     1      -3.142  -2.487  24.787  0.00  0.00    +0.001 A 
ATOM     23  C   UNL     1      -3.707  -2.937  24.389  0.00  0.00    +0.000 A 
ATOM     24  C   UNL     1      -4.267  -2.567  23.910  0.00  0.00    +0.001 A 
ATOM     25  C   UNL     1      -4.261  -1.746  23.829  0.00  0.00    +0.017 A 
ENDBRANCH  19  20
ENDBRANCH  16  17
BRANCH   9   8
ATOM      8  C   UNL     1      -3.864   3.404  24.330  0.00  0.00    +0.145 C 
BRANCH   8   7
ATOM      5  C   UNL     1      -2.143   4.376  25.138  0.00  0.00    +0.128 A 
ATOM      6  C   UNL     1      -2.530   3.990  24.519  0.00  0.00    +0.116 A 
ATOM      7  N   UNL     1      -3.289   3.796  24.774  0.00  0.00    -0.229 N 
ATOM     26  N   UNL     1      -3.373   4.061  25.550  0.00  0.00    -0.064 NA
ATOM     27  N   UNL     1      -2.665   4.420  25.775  0.00  0.00    -0.131 NA
BRANCH   5   2
ATOM      1  C   UNL     1      -0.600   4.959  25.107  0.00  0.00    +0.039 C 
ATOM      2  C   UNL     1      -1.371   4.667  25.123  0.00  0.00    +0.165 C 
ATOM      3  C   UNL     1      -1.080   3.897  25.174  0.00  0.00    +0.039 C 
ATOM      4  O   UNL     1      -1.663   5.437  25.071  0.00  0.00    -0.219 OA
ENDBRANCH   5   2
ENDBRANCH   8   7
ENDBRANCH   9   8
TORSDOF 5
ENDMDL
MODEL 2
REMARK VINA RESULT:     -12.3      1.080      5.565
REMARK  Name = 
REMARK  5 active torsions:
REMARK  status: ('A' for Active; 'I' for Inactive)
REMARK    1  A    between atoms: C_2  and  C_5
REMARK    2  A    between atoms: N_7  and  C_8
REMARK    3  A    between atoms: C_8  and  C_9
REMARK    4  A    between atoms: C_16  and  C_17
REMARK    5  A    between atoms: N_19  and  C_20
REMARK                            x       y       z     vdW  Elec       q    Type
REMARK                         _______ _______ _______ _____ _____    ______ ____
ROOT
ATOM      9  C   UNL     1      -3.998   0.761  24.421  0.00  0.00    +0.082 C 
ATOM     10  C   UNL     1      -3.586   1.089  23.849  0.00  0.00    +0.019 C 
ATOM     11  C   UNL     1      -3.206   1.803  23.890  0.00  0.00    +0.013 C 
ATOM     12  C   UNL     1      -2.786   2.003  23.123  0.00  0.00    +0.018 C 
ATOM     13  C   UNL     1      -3.150   1.638  23.525  0.00  0.00    +0.072 C 
ATOM     14  N   UNL     1      -3.608   1.488  24.456  0.00  0.00    -0.272 NA
ATOM     15  C   UNL     1      -3.531   2.109  25.120  0.00  0.00    +0.081 C 
ATOM     16  C   UNL     1      -3.136   2.395  24.534  0.00  0.00    +0.095 C 
ENDROOT
BRANCH  16  17
ATOM     17  C   UNL     1      -2.728   3.113  24.510  0.00  0.00    +0.246 C 
ATOM     18  O   UNL     1      -2.922   3.679  23.944  0.00  0.00    -0.273 OA
ATOM     19  N   UNL     1      -2.125   3.262  25.054  0.00  0.00    -0.179 NA
BRANCH  19  20
ATOM     20  C   UNL     1      -1.717   3.978  25.030  0.00  0.00    +0.073 A 
ATOM     21  C   UNL     1      -2.094   4.675  25.264  0.00  0.00    +0.017 A 
ATOM     22  C   UNL     1      -1.686   5.391  25.240  0.00  0.00    +0.001 A 
ATOM     23  C   UNL     1      -0.903   5.412  24.982  0.00  0.00    +0.000 A 
ATOM     24  C   UNL     1      -0.527   4.716  24.748  0.00  0.00    +0.001 A 
ATOM     25  C   UNL     1      -0.934   4.000  24.772  0.00  0.00    +0.017 A 
ENDBRANCH  19  20
ENDBRANCH  16  17
BRANCH   9   8
ATOM      8  C   UNL     1      -4.462   0.160  24.742  0.00  0.00    +0.145 C 
BRANCH   8   7
ATOM      5  C   UNL     1      -3.864  -1.883  24.584  0.00  0.00    +0.128 A 
ATOM      6  C   UNL     1      -3.870  -1.162  24.987  0.00  0.00    +0.116 A 
ATOM      7  N   UNL     1      -4.313  -0.627  24.544  0.00  0.00    -0.229 N 
ATOM     26  N   UNL     1      -4.581  -1.015  23.867  0.00  0.00    -0.064 NA
ATOM     27  N   UNL     1      -4.303  -1.792  23.892  0.00  0.00    -0.131 NA
BRANCH   5   2
ATOM      1  C   UNL     1      -3.106  -3.263  25.078  0.00  0.00    +0.039 C 
ATOM      2  C   UNL     1      -3.485  -2.574  24.831  0.00  0.00    +0.165 C 
ATOM      3  C   UNL     1      -3.553  -2.883  24.069  0.00  0.00    +0.039 C 
ATOM      4  O   UNL     1      -3.417  -2.264  25.593  0.00  0.00    -0.219 OA
ENDBRANCH   5   2
ENDBRANCH   8   7
ENDBRANCH   9   8
TORSDOF 5
ENDMDL
MODEL 3
REMARK VINA RESULT:     -11.8      2.157      2.686
REMARK  Name = 
REMARK  5 active torsions:
REMARK  status: ('A' for Active; 'I' for Inactive)
REMARK    1  A    between atoms: C_2  and  C_5
REMARK    2  A    between atoms: N_7  and  C_8
REMARK    3  A    between atoms: C_8  and  C_9
REMARK    4  A    between atoms: C_16  and  C_17
REMARK    5  A    between atoms: N_19  and  C_20
REMARK                            x       y       z     vdW  Elec       q    Type
REMARK                         _______ _______ _______ _____ _____    ______ ____
ROOT
ATOM      9  C   UNL     1      -0.628   1.426  25.445  0.00  0.00    +0.082 C 
ATOM     10  C   UNL     1      -0.492   0.944  24.850  0.00  0.00    +0.019 C 
ATOM     11  C   UNL     1      -0.918   0.277  24.677  0.00  0.00    +0.013 C 
ATOM     12  C   UNL     1      -0.601  -0.142  23.950  0.00  0.00    +0.018 C 
ATOM     13  C   UNL     1      -0.620   0.325  24.407  0.00  0.00    +0.072 C 
ATOM     14  N   UNL     1      -1.058   0.746  25.262  0.00  0.00    -0.272 NA
ATOM     15  C   UNL     1      -1.781   0.355  25.658  0.00  0.00    +0.081 C 
ATOM     16  C   UNL     1      -1.614  -0.093  25.063  0.00  0.00    +0.095 C 
ENDROOT
BRANCH  16  17
ATOM     17  C   UNL     1      -2.005  -0.782  24.832  0.00  0.00    +0.246 C 
ATOM     18  O   UNL     1      -1.577  -1.417  24.527  0.00  0.00    -0.273 OA
ATOM     19  N   UNL     1      -2.826  -0.834  24.906  0.00  0.00    -0.179 NA
BRANCH  19  20
ATOM     20  C   UNL     1      -3.216  -1.523  24.674  0.00  0.00    +0.073 A 
ATOM     21  C   UNL     1      -3.732  -1.508  24.030  0.00  0.00    +0.017 A 
ATOM     22  C   UNL     1      -4.123  -2.196  23.798  0.00  0.00    +0.001 A 
ATOM     23  C   UNL     1      -3.998  -2.900  24.211  0.00  0.00    +0.000 A 
ATOM     24  C   UNL     1      -3.483  -2.915  24.855  0.00  0.00    +0.001 A 
ATOM     25  C   UNL     1      -3.092  -2.227  25.086  0.00  0.00    +0.017 A 
ENDBRANCH  19  20
ENDBRANCH  16  17
BRANCH   9   8
ATOM      8  C   UNL     1      -0.469   2.094  25.902  0.00  0.00    +0.145 C 
BRANCH   8   7
ATOM      5  C   UNL     1      -1.098   4.048  25.313  0.00  0.00    +0.128 A 
ATOM      6  C   UNL     1      -1.207   3.356  25.751  0.00  0.00    +0.116 A 
ATOM      7  N   UNL     1      -0.580   2.848  25.584  0.00  0.00    -0.229 N 
ATOM     26  N   UNL     1      -0.083   3.224  25.044  0.00  0.00    -0.064 NA
ATOM     27  N   UNL     1      -0.403   3.966  24.877  0.00  0.00    -0.131 NA
BRANCH   5   2
ATOM      1  C   UNL     1      -2.095   5.362  25.313  0.00  0.00    +0.039 C 
ATOM      2  C   UNL     1      -1.597   4.705  25.313  0.00  0.00    +0.165 C 
ATOM      3  C   UNL     1      -1.022   5.140  24.912  0.00  0.00    +0.039 C 
ATOM      4  O   UNL     1      -2.172   4.270  25.714  0.00  0.00    -0.219 OA
ENDBRANCH   5   2
ENDBRANCH   8   7
ENDBRANCH   9   8
TORSDOF 5
ENDMDL
MODEL 4
REMARK VINA RESULT:     -11.6      2.076      5.960
REMARK  Name = 
REMARK  5 active torsions:
REMARK  status: ('A' for Active; 'I' for Inactive)
REMARK    1  A    between atoms: C_2  and  C_5
REMARK    2  A    between atoms: N_7  and  C_8
REMARK    3  A    between atoms: C_8  and  C_9
REMARK    4  A    between atoms: C_16  and  C_17
REMARK    5  A    between atoms: N_19  and  C_20
REMARK                            x       y       z     vdW  Elec       q    Type
REMARK                         _______ _______ _______ _____ _____    ______ ____
ROOT
ATOM      9  C   UNL     1      -1.121  -0.219  25.161  0.00  0.00    +0.082 C 
ATOM     10  C   UNL     1      -0.706   0.231  24.681  0.00  0.00    +0.019 C 
ATOM     11  C   UNL     1      -0.794   1.031  24.592  0.00  0.00    +0.013 C 
ATOM     12  C   UNL     1      -0.220   1.365  23.989  0.00  0.00    +0.018 C 
ATOM     13  C   UNL     1      -0.500   0.897  24.348  0.00  0.00    +0.072 C 
ATOM     14  N   UNL     1      -1.204   0.596  25.064  0.00  0.00    -0.272 NA
ATOM     15  C   UNL     1      -1.764   1.203  25.454  0.00  0.00    +0.081 C 
ATOM     16  C   UNL     1      -1.335   1.609  24.970  0.00  0.00    +0.095 C 
ENDROOT
BRANCH  16  17
ATOM     17  C   UNL     1      -1.373   2.422  24.832  0.00  0.00    +0.246 C 
ATOM     18  O   UNL     1      -1.503   2.705  24.069  0.00  0.00    -0.273 OA
ATOM     19  N   UNL     1      -1.280   2.951  25.458  0.00  0.00    -0.179 NA
BRANCH  19  20
ATOM     20  C   UNL     1      -1.318   3.763  25.320  0.00  0.00    +0.073 A 
ATOM     21  C   UNL     1      -2.027   4.169  25.436  0.00  0.00    +0.017 A 
ATOM     22  C   UNL     1      -2.065   4.981  25.297  0.00  0.00    +0.001 A 
ATOM     23  C   UNL     1      -1.394   5.388  25.043  0.00  0.00    +0.000 A 
ATOM     24  C   UNL     1      -0.685   4.983  24.928  0.00  0.00    +0.001 A 
ATOM     25  C   UNL     1      -0.647   4.171  25.066  0.00  0.00    +0.017 A 
ENDBRANCH  19  20
ENDBRANCH  16  17
BRANCH   9   8
ATOM      8  C   UNL     1      -1.321  -0.944  25.500  0.00  0.00    +0.145 C 
BRANCH   8   7
ATOM      5  C   UNL     1      -2.749  -2.175  24.499  0.00  0.00    +0.128 A 
ATOM      6  C   UNL     1      -2.564  -1.531  24.981  0.00  0.00    +0.116 A 
ATOM      7  N   UNL     1      -1.744  -1.501  25.064  0.00  0.00    -0.229 N 
ATOM     26  N   UNL     1      -1.421  -2.127  24.633  0.00  0.00    -0.064 NA
ATOM     27  N   UNL     1      -2.042  -2.543  24.285  0.00  0.00    -0.131 NA
BRANCH   5   2
ATOM      1  C   UNL     1      -4.264  -2.644  24.045  0.00  0.00    +0.039 C 
ATOM      2  C   UNL     1      -3.507  -2.410  24.273  0.00  0.00    +0.165 C 
ATOM      3  C   UNL     1      -3.399  -3.131  24.660  0.00  0.00    +0.039 C 
ATOM      4  O   UNL     1      -3.614  -1.689  23.885  0.00  0.00    -0.219 OA
ENDBRANCH   5   2
ENDBRANCH   8   7
ENDBRANCH   9   8
TORSDOF 5
ENDMDL
