MODEL 1
REMARK VINA RESULT:     -10.0      0.000      0.000
REMARK  Name = 
REMARK  6 active torsions:
REMARK  status: ('A' for Active; 'I' for Inactive)
REMARK    1  A    between atoms: C_2  and  N_4
REMARK    2  A    between atoms: N_7  and  C_8
REMARK    3  A    between atoms: C_8  and  C_9
REMARK    4  A    between atoms: C_11  and  C_12
REMARK    5  A    between atoms: C_12  and  C_13
REMARK    6  A    between atoms: N_18  and  C_21
REMARK                            x       y       z     vdW  Elec       q    Type
REMARK                         _______ _______ _______ _____ _____    ______ ____
ROOT
ATOM      9  C   UNL     1      -4.377   3.383  25.578  0.00  0.00    +0.170 C 
ATOM     10  O   UNL     1      -4.223   2.600  25.367  0.00  0.00    -0.351 OA
ATOM     11  C   UNL     1      -4.932   2.181  25.408  0.00  0.00    +0.157 C 
ATOM     27  C   UNL     1      -5.525   2.705  25.644  0.00  0.00    +0.212 C 
ATOM     28  O   UNL     1      -6.320   2.518  25.756  0.00  0.00    -0.218 OA
ATOM     29  C   UNL     1      -5.181   3.448  25.749  0.00  0.00    +0.213 C 
ATOM     30  O   UNL     1      -5.573   4.135  25.983  0.00  0.00    -0.218 OA
ENDROOT
BRANCH   9   8
ATOM      8  C   UNL     1      -3.823   3.994  25.611  0.00  0.00    +0.149 C 
BRANCH   8   7
ATOM      4  N   UNL     1      -1.849   4.345  24.747  0.00  0.00    -0.189 NA
ATOM      5  C   UNL     1      -2.469   4.322  25.291  0.00  0.00    +0.339 C 
ATOM      6  O   UNL     1      -2.357   4.604  26.058  0.00  0.00    -0.249 OA
ATOM      7  N   UNL     1      -3.202   4.017  25.067  0.00  0.00    -0.185 NA
BRANCH   4   2
ATOM      1  C   UNL     1      -0.522   4.143  25.240  0.00  0.00    +0.023 C 
ATOM      2  C   UNL     1      -1.116   4.651  24.972  0.00  0.00    +0.097 C 
ATOM      3  C   UNL     1      -0.976   5.463  24.928  0.00  0.00    +0.023 C 
ENDBRANCH   4   2
ENDBRANCH   8   7
ENDBRANCH   9   8
BRANCH  11  12
ATOM     12  C   UNL     1      -5.032   1.380  25.243  0.00  0.00    +0.117 C 
BRANCH  12  13
ATOM     13  C   UNL     1      -4.731   1.062  24.543  0.00  0.00    +0.228 C 
ATOM     14  O   UNL     1      -4.816   1.474  23.833  0.00  0.00    -0.275 OA
ATOM     15  N   UNL     1      -4.346   0.333  24.552  0.00  0.00    -0.276 N 
ATOM     16  C   UNL     1      -4.045   0.015  23.852  0.00  0.00    +0.115 C 
ATOM     17  C   UNL     1      -3.660  -0.714  23.862  0.00  0.00    +0.112 C 
ATOM     18  N   UNL     1      -3.576  -1.126  24.572  0.00  0.00    -0.304 N 
ATOM     19  C   UNL     1      -3.876  -0.809  25.272  0.00  0.00    +0.112 C 
ATOM     20  C   UNL     1      -4.262  -0.079  25.263  0.00  0.00    +0.115 C 
BRANCH  18  21
ATOM     21  C   UNL     1      -3.190  -1.856  24.582  0.00  0.00    +0.048 A 
ATOM     22  C   UNL     1      -3.628  -2.554  24.576  0.00  0.00    +0.015 A 
ATOM     23  C   UNL     1      -3.242  -3.283  24.585  0.00  0.00    +0.001 A 
ATOM     24  C   UNL     1      -2.418  -3.314  24.600  0.00  0.00    +0.000 A 
ATOM     25  C   UNL     1      -1.979  -2.615  24.605  0.00  0.00    +0.001 A 
ATOM     26  C   UNL     1      -2.365  -1.886  24.596  0.00  0.00    +0.015 A 
ENDBRANCH  18  21
ENDBRANCH  12  13
ENDBRANCH  11  12
TORSDOF 6
ENDMDL
MODEL 2
REMARK VINA RESULT:      -9.5      1.752      3.339
REMARK  Name = 
REMARK  6 active torsions:
REMARK  status: ('A' for Active; 'I' for Inactive)
REMARK    1  A    between atoms: C_2  and  N_4
REMARK    2  A    between atoms: N_7  and  C_8
REMARK    3  A    between atoms: C_8  and  C_9
REMARK    4  A    between atoms: C_11  and  C_12
REMARK    5  A    between atoms: C_12  and  C_13
REMARK    6  A    between atoms: N_18  and  C_21
REMARK                            x       y       z     vdW  Elec       q    Type
REMARK                         _______ _______ _______ _____ _____    ______ ____
ROOT
ATOM      9  C   UNL     1      -1.775   3.402  25.053  0.00  0.00    +0.170 C 
ATOM     10  O   UNL     1      -1.748   2.578  25.029  0.00  0.00    -0.351 OA
ATOM     11  C   UNL     1      -0.982   2.354  24.818  0.00  0.00    +0.157 C 
ATOM     27  C   UNL     1      -0.536   3.041  24.712  0.00  0.00    +0.212 C 
ATOM     28  O   UNL     1       0.259   3.073  24.498  0.00  0.00    -0.218 OA
ATOM     29  C   UNL     1      -1.027   3.688  24.857  0.00  0.00    +0.213 C 
ATOM     30  O   UNL     1      -0.807   4.482  24.814  0.00  0.00    -0.218 OA
ENDROOT
BRANCH   9   8
ATOM      8  C   UNL     1      -2.435   3.860  25.240  0.00  0.00    +0.149 C 
BRANCH   8   7
ATOM      4  N   UNL     1      -4.586   3.536  25.041  0.00  0.00    -0.189 NA
ATOM      5  C   UNL     1      -3.851   3.718  25.372  0.00  0.00    +0.339 C 
ATOM      6  O   UNL     1      -3.800   3.938  26.165  0.00  0.00    -0.249 OA
ATOM      7  N   UNL     1      -3.170   3.678  24.909  0.00  0.00    -0.185 NA
BRANCH   4   2
ATOM      1  C   UNL     1      -5.530   2.905  25.908  0.00  0.00    +0.023 C 
ATOM      2  C   UNL     1      -5.267   3.575  25.504  0.00  0.00    +0.097 C 
ATOM      3  C   UNL     1      -5.686   4.284  25.563  0.00  0.00    +0.023 C 
ENDBRANCH   4   2
ENDBRANCH   8   7
ENDBRANCH   9   8
BRANCH  11  12
ATOM     12  C   UNL     1      -0.710   1.581  24.729  0.00  0.00    +0.117 C 
BRANCH  12  13
ATOM     13  C   UNL     1      -0.864   1.019  25.314  0.00  0.00    +0.228 C 
ATOM     14  O   UNL     1      -0.561   1.122  26.074  0.00  0.00    -0.275 OA
ATOM     15  N   UNL     1      -1.321   0.355  25.139  0.00  0.00    -0.276 N 
ATOM     16  C   UNL     1      -1.475  -0.206  25.724  0.00  0.00    +0.115 C 
ATOM     17  C   UNL     1      -1.931  -0.870  25.548  0.00  0.00    +0.112 C 
ATOM     18  N   UNL     1      -2.234  -0.973  24.787  0.00  0.00    -0.304 N 
ATOM     19  C   UNL     1      -2.081  -0.412  24.203  0.00  0.00    +0.112 C 
ATOM     20  C   UNL     1      -1.624   0.253  24.378  0.00  0.00    +0.115 C 
BRANCH  18  21
ATOM     21  C   UNL     1      -2.691  -1.638  24.612  0.00  0.00    +0.048 A 
ATOM     22  C   UNL     1      -2.352  -2.388  24.632  0.00  0.00    +0.015 A 
ATOM     23  C   UNL     1      -2.810  -3.053  24.457  0.00  0.00    +0.001 A 
ATOM     24  C   UNL     1      -3.606  -2.965  24.262  0.00  0.00    +0.000 A 
ATOM     25  C   UNL     1      -3.946  -2.213  24.242  0.00  0.00    +0.001 A 
ATOM     26  C   UNL     1      -3.489  -1.550  24.417  0.00  0.00    +0.015 A 
ENDBRANCH  18  21
ENDBRANCH  12  13
ENDBRANCH  11  12
TORSDOF 6
ENDMDL
MODEL 3
REMARK VINA RESULT:      -8.8      2.550      5.862
REMARK  Name = 
REMARK  6 active torsions:
REMARK  status: ('A' for Active; 'I' for Inactive)
REMARK    1  A    between atoms: C_2  and  N_4
REMARK    2  A    between atoms: N_7  and  C_8
REMARK    3  A    between atoms: C_8  and  C_9
REMARK    4  A    between atoms: C_11  and  C_12
REMARK    5  A    between atoms: C_12  and  C_13
REMARK    6  A    between atoms: N_18  and  C_21
REMARK                            x       y       z     vdW  Elec       q    Type
REMARK                         _______ _______ _______ _____ _____    ______ ____
ROOT
ATOM      9  C   UNL     1      -0.822  -0.348  24.244  0.00  0.00    +0.170 C 
ATOM     10  O   UNL     1      -1.302   0.324  24.241  0.00  0.00    -0.351 OA
ATOM     11  C   UNL     1      -0.829   0.974  24.057  0.00  0.00    +0.157 C 
ATOM     27  C   UNL     1      -0.056   0.705  23.948  0.00  0.00    +0.212 C 
ATOM     28  O   UNL     1       0.597   1.171  23.756  0.00  0.00    -0.218 OA
ATOM     29  C   UNL     1      -0.053  -0.112  24.063  0.00  0.00    +0.213 C 
ATOM     30  O   UNL     1       0.605  -0.607  24.007  0.00  0.00    -0.218 OA
ENDROOT
BRANCH   9   8
ATOM      8  C   UNL     1      -1.069  -1.119  24.401  0.00  0.00    +0.149 C 
BRANCH   8   7
ATOM      4  N   UNL     1      -2.970  -2.064  24.912  0.00  0.00    -0.189 NA
ATOM      5  C   UNL     1      -2.234  -1.931  24.562  0.00  0.00    +0.339 C 
ATOM      6  O   UNL     1      -1.928  -2.475  24.023  0.00  0.00    -0.249 OA
ATOM      7  N   UNL     1      -1.805  -1.252  24.751  0.00  0.00    -0.185 NA
BRANCH   4   2
ATOM      1  C   UNL     1      -3.278  -3.439  25.148  0.00  0.00    +0.023 C 
ATOM      2  C   UNL     1      -3.399  -2.743  24.722  0.00  0.00    +0.097 C 
ATOM      3  C   UNL     1      -3.949  -2.725  24.107  0.00  0.00    +0.023 C 
ENDBRANCH   4   2
ENDBRANCH   8   7
ENDBRANCH   9   8
BRANCH  11  12
ATOM     12  C   UNL     1      -1.082   1.756  23.995  0.00  0.00    +0.117 C 
BRANCH  12  13
ATOM     13  C   UNL     1      -1.749   1.939  23.543  0.00  0.00    +0.228 C 
ATOM     14  O   UNL     1      -1.740   1.815  22.728  0.00  0.00    -0.275 OA
ATOM     15  N   UNL     1      -2.422   2.246  23.907  0.00  0.00    -0.276 N 
ATOM     16  C   UNL     1      -3.088   2.429  23.455  0.00  0.00    +0.115 C 
ATOM     17  C   UNL     1      -3.761   2.736  23.819  0.00  0.00    +0.112 C 
ATOM     18  N   UNL     1      -3.769   2.860  24.635  0.00  0.00    -0.304 N 
ATOM     19  C   UNL     1      -3.104   2.678  25.086  0.00  0.00    +0.112 C 
ATOM     20  C   UNL     1      -2.430   2.370  24.723  0.00  0.00    +0.115 C 
BRANCH  18  21
ATOM     21  C   UNL     1      -4.444   3.168  24.998  0.00  0.00    +0.048 A 
ATOM     22  C   UNL     1      -5.060   2.665  25.217  0.00  0.00    +0.015 A 
ATOM     23  C   UNL     1      -5.734   2.974  25.581  0.00  0.00    +0.001 A 
ATOM     24  C   UNL     1      -5.791   3.783  25.725  0.00  0.00    +0.000 A 
ATOM     25  C   UNL     1      -5.174   4.286  25.505  0.00  0.00    +0.001 A 
ATOM     26  C   UNL     1      -4.501   3.978  25.142  0.00  0.00    +0.015 A 
ENDBRANCH  18  21
ENDBRANCH  12  13
ENDBRANCH  11  12
TORSDOF 6
ENDMDL
MODEL 4
REMARK VINA RESULT:      -8.5      3.948      5.727
REMARK  Name = 
REMARK  6 active torsions:
REMARK  status: ('A' for Active; 'I' for Inactive)
REMARK    1  A    between atoms: C_2  and  N_4
REMARK    2  A    between atoms: N_7  and  C_8
REMARK    3  A    between atoms: C_8  and  C_9
REMARK    4  A    between atoms: C_11  and  C_12
REMARK    5  A    between atoms: C_12  and  C_13
REMARK    6  A    between atoms: N_18  and  C_21
REMARK                            x       y       z     vdW  Elec       q    Type
REMARK                         _______ _______ _______ _____ _____    ______ ____
ROOT
ATOM      9  C   UNL     1       0.463   0.064  23.496  0.00  0.00    +0.170 C 
ATOM     10  O   UNL     1       0.006   0.727  23.679  0.00  0.00    -0.351 OA
ATOM     11  C   UNL     1      -0.634   0.477  24.135  0.00  0.00    +0.157 C 
ATOM     27  C   UNL     1      -0.572  -0.341  24.234  0.00  0.00    +0.212 C 
ATOM     28  O   UNL     1      -1.097  -0.819  24.653  0.00  0.00    -0.218 OA
ATOM     29  C   UNL     1       0.106  -0.595  23.838  0.00  0.00    +0.213 C 
ATOM     30  O   UNL     1       0.378  -1.372  23.794  0.00  0.00    -0.218 OA
ENDROOT
BRANCH   9   8
ATOM      8  C   UNL     1       1.156   0.063  23.048  0.00  0.00    +0.149 C 
BRANCH   8   7
ATOM      4  N   UNL     1       3.171   0.899  23.146  0.00  0.00    -0.189 NA
ATOM      5  C   UNL     1       2.531   0.431  22.916  0.00  0.00    +0.339 C 
ATOM      6  O   UNL     1       2.625  -0.135  22.323  0.00  0.00    -0.249 OA
ATOM      7  N   UNL     1       1.797   0.531  23.278  0.00  0.00    -0.185 NA
BRANCH   4   2
ATOM      1  C   UNL     1       4.035   1.104  22.027  0.00  0.00    +0.023 C 
ATOM      2  C   UNL     1       3.905   0.799  22.783  0.00  0.00    +0.097 C 
ATOM      3  C   UNL     1       4.508   0.396  23.175  0.00  0.00    +0.023 C 
ENDBRANCH   4   2
ENDBRANCH   8   7
ENDBRANCH   9   8
BRANCH  11  12
ATOM     12  C   UNL     1      -1.230   0.958  24.439  0.00  0.00    +0.117 C 
BRANCH  12  13
ATOM     13  C   UNL     1      -1.710   1.394  23.928  0.00  0.00    +0.228 C 
ATOM     14  O   UNL     1      -1.483   1.502  23.142  0.00  0.00    -0.275 OA
ATOM     15  N   UNL     1      -2.416   1.720  24.202  0.00  0.00    -0.276 N 
ATOM     16  C   UNL     1      -2.896   2.155  23.691  0.00  0.00    +0.115 C 
ATOM     17  C   UNL     1      -3.601   2.482  23.965  0.00  0.00    +0.112 C 
ATOM     18  N   UNL     1      -3.828   2.372  24.752  0.00  0.00    -0.304 N 
ATOM     19  C   UNL     1      -3.349   1.938  25.263  0.00  0.00    +0.112 C 
ATOM     20  C   UNL     1      -2.642   1.611  24.988  0.00  0.00    +0.115 C 
BRANCH  18  21
ATOM     21  C   UNL     1      -4.535   2.699  25.026  0.00  0.00    +0.048 A 
ATOM     22  C   UNL     1      -4.569   3.498  25.229  0.00  0.00    +0.015 A 
ATOM     23  C   UNL     1      -5.276   3.824  25.502  0.00  0.00    +0.001 A 
ATOM     24  C   UNL     1      -5.948   3.351  25.573  0.00  0.00    +0.000 A 
ATOM     25  C   UNL     1      -5.914   2.552  25.370  0.00  0.00    +0.001 A 
ATOM     26  C   UNL     1      -5.207   2.226  25.096  0.00  0.00    +0.015 A 
ENDBRANCH  18  21
ENDBRANCH  12  13
ENDBRANCH  11  12
TORSDOF 6
ENDMDL
MODEL 5
REMARK VINA RESULT:      -8.0      2.694      5.195
REMARK  Name = 
REMARK  6 active torsions:
REMARK  status: ('A' for Active; 'I' for Inactive)
REMARK    1  A    between atoms: C_2  and  N_4
REMARK    2  A    between atoms: N_7  and  C_8
REMARK    3  A    between atoms: C_8  and  C_9
REMARK    4  A    between atoms: C_11  and  C_12
REMARK    5  A    between atoms: C_12  and  C_13
REMARK    6  A    between atoms: N_18  and  C_21
REMARK                            x       y       z     vdW  Elec       q    Type
REMARK                         _______ _______ _______ _____ _____    ______ ____
ROOT
ATOM      9  C   UNL     1      -1.596  -1.557  24.564  0.00  0.00    +0.170 C 
ATOM     10  O   UNL     1      -2.216  -1.012  24.585  0.00  0.00    -0.351 OA
ATOM     11  C   UNL     1      -2.907  -1.419  24.775  0.00  0.00    +0.157 C 
ATOM     27  C   UNL     1      -2.715  -2.216  24.871  0.00  0.00    +0.212 C 
ATOM     28  O   UNL     1      -3.242  -2.821  25.064  0.00  0.00    -0.218 OA
ATOM     29  C   UNL     1      -1.905  -2.301  24.741  0.00  0.00    +0.213 C 
ATOM     30  O   UNL     1      -1.479  -3.006  24.780  0.00  0.00    -0.218 OA
ENDROOT
BRANCH   9   8
ATOM      8  C   UNL     1      -0.807  -1.387  24.396  0.00  0.00    +0.149 C 
BRANCH   8   7
ATOM      4  N   UNL     1       0.356   0.053  23.238  0.00  0.00    -0.189 NA
ATOM      5  C   UNL     1       0.169  -0.561  23.757  0.00  0.00    +0.339 C 
ATOM      6  O   UNL     1       0.769  -0.962  24.155  0.00  0.00    -0.249 OA
ATOM      7  N   UNL     1      -0.620  -0.773  23.876  0.00  0.00    -0.185 NA
BRANCH   4   2
ATOM      1  C   UNL     1       1.473   0.890  23.547  0.00  0.00    +0.023 C 
ATOM      2  C   UNL     1       1.144   0.265  23.118  0.00  0.00    +0.097 C 
ATOM      3  C   UNL     1       1.604  -0.146  22.571  0.00  0.00    +0.023 C 
ENDBRANCH   4   2
ENDBRANCH   8   7
ENDBRANCH   9   8
BRANCH  11  12
ATOM     12  C   UNL     1      -3.658  -1.088  24.855  0.00  0.00    +0.117 C 
BRANCH  12  13
ATOM     13  C   UNL     1      -3.938  -0.557  24.288  0.00  0.00    +0.228 C 
ATOM     14  O   UNL     1      -3.961  -0.776  23.494  0.00  0.00    -0.275 OA
ATOM     15  N   UNL     1      -4.193   0.193  24.517  0.00  0.00    -0.276 N 
ATOM     16  C   UNL     1      -4.473   0.725  23.950  0.00  0.00    +0.115 C 
ATOM     17  C   UNL     1      -4.728   1.474  24.179  0.00  0.00    +0.112 C 
ATOM     18  N   UNL     1      -4.704   1.694  24.975  0.00  0.00    -0.304 N 
ATOM     19  C   UNL     1      -4.425   1.164  25.541  0.00  0.00    +0.112 C 
ATOM     20  C   UNL     1      -4.169   0.413  25.312  0.00  0.00    +0.115 C 
BRANCH  18  21
ATOM     21  C   UNL     1      -4.960   2.445  25.203  0.00  0.00    +0.048 A 
ATOM     22  C   UNL     1      -4.452   3.091  25.138  0.00  0.00    +0.015 A 
ATOM     23  C   UNL     1      -4.709   3.841  25.366  0.00  0.00    +0.001 A 
ATOM     24  C   UNL     1      -5.473   3.945  25.659  0.00  0.00    +0.000 A 
ATOM     25  C   UNL     1      -5.981   3.298  25.723  0.00  0.00    +0.001 A 
ATOM     26  C   UNL     1      -5.725   2.548  25.495  0.00  0.00    +0.015 A 
ENDBRANCH  18  21
ENDBRANCH  12  13
ENDBRANCH  11  12
TORSDOF 6
ENDMDL
MODEL 6
REMARK VINA RESULT:      -7.8      3.511      5.247
REMARK  Name = 
REMARK  6 active torsions:
REMARK  status: ('A' for Active; 'I' for Inactive)
REMARK    1  A    between atoms: C_2  and  N_4
REMARK    2  A    between atoms: N_7  and  C_8
REMARK    3  A    between atoms: C_8  and  C_9
REMARK    4  A    between atoms: C_11  and  C_12
REMARK    5  A    between atoms: C_12  and  C_13
REMARK    6  A    between atoms: N_18  and  C_21
REMARK                            x       y       z     vdW  Elec       q    Type
REMARK                         _______ _______ _______ _____ _____    ______ ____
ROOT
ATOM      9  C   UNL     1      -3.234  -0.496  25.038  0.00  0.00    +0.170 C 
ATOM     10  O   UNL     1      -2.564  -0.179  24.674  0.00  0.00    -0.351 OA
ATOM     11  C   UNL     1      -1.994  -0.774  24.628  0.00  0.00    +0.157 C 
ATOM     27  C   UNL     1      -2.312  -1.458  24.963  0.00  0.00    +0.212 C 
ATOM     28  O   UNL     1      -1.930  -2.186  25.033  0.00  0.00    -0.218 OA
ATOM     29  C   UNL     1      -3.078  -1.286  25.216  0.00  0.00    +0.213 C 
ATOM     30  O   UNL     1      -3.597  -1.812  25.584  0.00  0.00    -0.218 OA
ENDROOT
BRANCH   9   8
ATOM      8  C   UNL     1      -3.936  -0.092  25.195  0.00  0.00    +0.149 C 
BRANCH   8   7
ATOM      4  N   UNL     1      -4.868   1.822  24.710  0.00  0.00    -0.189 NA
ATOM      5  C   UNL     1      -4.717   1.098  25.079  0.00  0.00    +0.339 C 
ATOM      6  O   UNL     1      -5.197   0.844  25.701  0.00  0.00    -0.249 OA
ATOM      7  N   UNL     1      -4.087   0.631  24.826  0.00  0.00    -0.185 NA
BRANCH   4   2
ATOM      1  C   UNL     1      -5.353   3.018  25.323  0.00  0.00    +0.023 C 
ATOM      2  C   UNL     1      -5.499   2.289  24.963  0.00  0.00    +0.097 C 
ATOM      3  C   UNL     1      -6.274   2.030  24.857  0.00  0.00    +0.023 C 
ENDBRANCH   4   2
ENDBRANCH   8   7
ENDBRANCH   9   8
BRANCH  11  12
ATOM     12  C   UNL     1      -1.240  -0.699  24.304  0.00  0.00    +0.117 C 
BRANCH  12  13
ATOM     13  C   UNL     1      -0.860   0.034  24.309  0.00  0.00    +0.228 C 
ATOM     14  O   UNL     1      -1.219   0.682  24.672  0.00  0.00    -0.275 OA
ATOM     15  N   UNL     1      -0.121   0.118  23.952  0.00  0.00    -0.276 N 
ATOM     16  C   UNL     1       0.259   0.851  23.957  0.00  0.00    +0.115 C 
ATOM     17  C   UNL     1       0.997   0.935  23.600  0.00  0.00    +0.112 C 
ATOM     18  N   UNL     1       1.356   0.287  23.237  0.00  0.00    -0.304 N 
ATOM     19  C   UNL     1       0.977  -0.445  23.232  0.00  0.00    +0.112 C 
ATOM     20  C   UNL     1       0.238  -0.530  23.589  0.00  0.00    +0.115 C 
BRANCH  18  21
ATOM     21  C   UNL     1       2.095   0.372  22.880  0.00  0.00    +0.048 A 
ATOM     22  C   UNL     1       2.681   0.823  23.245  0.00  0.00    +0.015 A 
ATOM     23  C   UNL     1       3.420   0.907  22.887  0.00  0.00    +0.001 A 
ATOM     24  C   UNL     1       3.572   0.541  22.164  0.00  0.00    +0.000 A 
ATOM     25  C   UNL     1       2.986   0.089  21.798  0.00  0.00    +0.001 A 
ATOM     26  C   UNL     1       2.248   0.005  22.156  0.00  0.00    +0.015 A 
ENDBRANCH  18  21
ENDBRANCH  12  13
ENDBRANCH  11  12
TORSDOF 6
ENDMDL
MODEL 7
REMARK VINA RESULT:      -7.7      2.845      6.586
REMARK  Name = 
REMARK  6 active torsions:
REMARK  status: ('A' for Active; 'I' for Inactive)
REMARK    1  A    between atoms: C_2  and  N_4
REMARK    2  A    between atoms: N_7  and  C_8
REMARK    3  A    between atoms: C_8  and  C_9
REMARK    4  A    between atoms: C_11  and  C_12
REMARK    5  A    between atoms: C_12  and  C_13
REMARK    6  A    between atoms: N_18  and  C_21
REMARK                            x       y       z     vdW  Elec       q    Type
REMARK                         _______ _______ _______ _____ _____    ______ ____
ROOT
ATOM      9  C   UNL     1      -0.306  -0.586  23.984  0.00  0.00    +0.170 C 
ATOM     10  O   UNL     1      -0.426   0.207  24.181  0.00  0.00    -0.351 OA
ATOM     11  C   UNL     1       0.160   0.653  23.810  0.00  0.00    +0.157 C 
ATOM     27  C   UNL     1       0.643   0.137  23.383  0.00  0.00    +0.212 C 
ATOM     28  O   UNL     1       1.297   0.349  22.929  0.00  0.00    -0.218 OA
ATOM     29  C   UNL     1       0.354  -0.629  23.491  0.00  0.00    +0.213 C 
ATOM     30  O   UNL     1       0.670  -1.317  23.163  0.00  0.00    -0.218 OA
ENDROOT
BRANCH   9   8
ATOM      8  C   UNL     1      -0.766  -1.222  24.236  0.00  0.00    +0.149 C 
BRANCH   8   7
ATOM      4  N   UNL     1      -2.849  -1.600  24.769  0.00  0.00    -0.189 NA
ATOM      5  C   UNL     1      -2.072  -1.727  24.518  0.00  0.00    +0.339 C 
ATOM      6  O   UNL     1      -1.827  -2.484  24.299  0.00  0.00    -0.249 OA
ATOM      7  N   UNL     1      -1.542  -1.096  24.487  0.00  0.00    -0.185 NA
BRANCH   4   2
ATOM      1  C   UNL     1      -3.943  -2.326  24.205  0.00  0.00    +0.023 C 
ATOM      2  C   UNL     1      -3.379  -2.231  24.801  0.00  0.00    +0.097 C 
ATOM      3  C   UNL     1      -3.346  -2.767  25.427  0.00  0.00    +0.023 C 
ENDBRANCH   4   2
ENDBRANCH   8   7
ENDBRANCH   9   8
BRANCH  11  12
ATOM     12  C   UNL     1       0.249   1.472  23.856  0.00  0.00    +0.117 C 
BRANCH  12  13
ATOM     13  C   UNL     1       0.295   1.840  24.593  0.00  0.00    +0.228 C 
ATOM     14  O   UNL     1       0.866   1.602  25.138  0.00  0.00    -0.275 OA
ATOM     15  N   UNL     1      -0.229   2.447  24.784  0.00  0.00    -0.276 N 
ATOM     16  C   UNL     1      -0.183   2.816  25.522  0.00  0.00    +0.115 C 
ATOM     17  C   UNL     1      -0.708   3.423  25.713  0.00  0.00    +0.112 C 
ATOM     18  N   UNL     1      -1.279   3.662  25.167  0.00  0.00    -0.304 N 
ATOM     19  C   UNL     1      -1.325   3.294  24.431  0.00  0.00    +0.112 C 
ATOM     20  C   UNL     1      -0.801   2.686  24.238  0.00  0.00    +0.115 C 
BRANCH  18  21
ATOM     21  C   UNL     1      -1.804   4.269  25.359  0.00  0.00    +0.048 A 
ATOM     22  C   UNL     1      -2.498   4.100  25.770  0.00  0.00    +0.015 A 
ATOM     23  C   UNL     1      -3.022   4.709  25.961  0.00  0.00    +0.001 A 
ATOM     24  C   UNL     1      -2.852   5.485  25.742  0.00  0.00    +0.000 A 
ATOM     25  C   UNL     1      -2.156   5.654  25.330  0.00  0.00    +0.001 A 
ATOM     26  C   UNL     1      -1.633   5.046  25.138  0.00  0.00    +0.015 A 
ENDBRANCH  18  21
ENDBRANCH  12  13
ENDBRANCH  11  12
TORSDOF 6
ENDMDL
MODEL 8
REMARK VINA RESULT:      -7.6      2.035      5.494
REMARK  Name = 
REMARK  6 active torsions:
REMARK  status: ('A' for Active; 'I' for Inactive)
REMARK    1  A    between atoms: C_2  and  N_4
REMARK    2  A    between atoms: N_7  and  C_8
REMARK    3  A    between atoms: C_8  and  C_9
REMARK    4  A    between atoms: C_11  and  C_12
REMARK    5  A    between atoms: C_12  and  C_13
REMARK    6  A    between atoms: N_18  and  C_21
REMARK                            x       y       z     vdW  Elec       q    Type
REMARK                         _______ _______ _______ _____ _____    ______ ____
ROOT
ATOM      9  C   UNL     1      -3.229  -0.517  24.747  0.00  0.00    +0.170 C 
ATOM     10  O   UNL     1      -2.655   0.075  24.796  0.00  0.00    -0.351 OA
ATOM     11  C   UNL     1      -1.916  -0.279  24.703  0.00  0.00    +0.157 C 
ATOM     27  C   UNL     1      -2.032  -1.089  24.596  0.00  0.00    +0.212 C 
ATOM     28  O   UNL     1      -1.441  -1.652  24.481  0.00  0.00    -0.218 OA
ATOM     29  C   UNL     1      -2.844  -1.235  24.623  0.00  0.00    +0.213 C 
ATOM     30  O   UNL     1      -3.207  -1.972  24.541  0.00  0.00    -0.218 OA
ENDROOT
BRANCH   9   8
ATOM      8  C   UNL     1      -4.044  -0.407  24.811  0.00  0.00    +0.149 C 
BRANCH   8   7
ATOM      4  N   UNL     1      -5.247   1.407  24.648  0.00  0.00    -0.189 NA
ATOM      5  C   UNL     1      -4.897   0.729  24.963  0.00  0.00    +0.339 C 
ATOM      6  O   UNL     1      -5.048   0.510  25.744  0.00  0.00    -0.249 OA
ATOM      7  N   UNL     1      -4.394   0.271  24.496  0.00  0.00    -0.185 NA
BRANCH   4   2
ATOM      1  C   UNL     1      -5.448   2.511  25.533  0.00  0.00    +0.023 C 
ATOM      2  C   UNL     1      -5.749   1.865  25.116  0.00  0.00    +0.097 C 
ATOM      3  C   UNL     1      -6.552   1.679  25.165  0.00  0.00    +0.023 C 
ENDBRANCH   4   2
ENDBRANCH   8   7
ENDBRANCH   9   8
BRANCH  11  12
ATOM     12  C   UNL     1      -1.188   0.109  24.714  0.00  0.00    +0.117 C 
BRANCH  12  13
ATOM     13  C   UNL     1      -0.985   0.588  25.355  0.00  0.00    +0.228 C 
ATOM     14  O   UNL     1      -0.774   0.245  26.075  0.00  0.00    -0.275 OA
ATOM     15  N   UNL     1      -0.995   1.408  25.276  0.00  0.00    -0.276 N 
ATOM     16  C   UNL     1      -0.792   1.887  25.917  0.00  0.00    +0.115 C 
ATOM     17  C   UNL     1      -0.801   2.708  25.838  0.00  0.00    +0.112 C 
ATOM     18  N   UNL     1      -1.014   3.051  25.118  0.00  0.00    -0.304 N 
ATOM     19  C   UNL     1      -1.216   2.573  24.478  0.00  0.00    +0.112 C 
ATOM     20  C   UNL     1      -1.207   1.751  24.556  0.00  0.00    +0.115 C 
BRANCH  18  21
ATOM     21  C   UNL     1      -1.023   3.872  25.040  0.00  0.00    +0.048 A 
ATOM     22  C   UNL     1      -0.386   4.260  24.689  0.00  0.00    +0.015 A 
ATOM     23  C   UNL     1      -0.396   5.082  24.611  0.00  0.00    +0.001 A 
ATOM     24  C   UNL     1      -1.043   5.515  24.884  0.00  0.00    +0.000 A 
ATOM     25  C   UNL     1      -1.680   5.126  25.236  0.00  0.00    +0.001 A 
ATOM     26  C   UNL     1      -1.670   4.305  25.314  0.00  0.00    +0.015 A 
ENDBRANCH  18  21
ENDBRANCH  12  13
ENDBRANCH  11  12
TORSDOF 6
ENDMDL
MODEL 9
REMARK VINA RESULT:      -6.7     14.420     16.220
REMARK  Name = 
REMARK  6 active torsions:
REMARK  status: ('A' for Active; 'I' for Inactive)
REMARK    1  A    between atoms: C_2  and  N_4
REMARK    2  A    between atoms: N_7  and  C_8
REMARK    3  A    between atoms: C_8  and  C_9
REMARK    4  A    between atoms: C_11  and  C_12
REMARK    5  A    between atoms: C_12  and  C_13
REMARK    6  A    between atoms: N_18  and  C_21
REMARK                            x       y       z     vdW  Elec       q    Type
REMARK                         _______ _______ _______ _____ _____    ______ ____
ROOT
ATOM      9  C   UNL     1      -4.282 -10.523  14.137  0.00  0.00    +0.170 C 
ATOM     10  O   UNL     1      -5.051 -10.349  14.380  0.00  0.00    -0.351 OA
ATOM     11  C   UNL     1      -5.058 -10.324  15.204  0.00  0.00    +0.157 C 
ATOM     27  C   UNL     1      -4.293 -10.483  15.471  0.00  0.00    +0.212 C 
ATOM     28  O   UNL     1      -4.051 -10.513  16.258  0.00  0.00    -0.218 OA
ATOM     29  C   UNL     1      -3.813 -10.606  14.810  0.00  0.00    +0.213 C 
ATOM     30  O   UNL     1      -3.007 -10.781  14.822  0.00  0.00    -0.218 OA
ENDROOT
BRANCH   9   8
ATOM      8  C   UNL     1      -4.026 -10.601  13.356  0.00  0.00    +0.149 C 
BRANCH   8   7
ATOM      4  N   UNL     1      -4.436  -9.736  11.394  0.00  0.00    -0.189 NA
ATOM      5  C   UNL     1      -4.107 -10.210  11.984  0.00  0.00    +0.339 C 
ATOM      6  O   UNL     1      -3.530 -10.768  11.791  0.00  0.00    -0.249 OA
ATOM      7  N   UNL     1      -4.355 -10.126  12.766  0.00  0.00    -0.185 NA
BRANCH   4   2
ATOM      1  C   UNL     1      -4.551 -10.376  10.121  0.00  0.00    +0.023 C 
ATOM      2  C   UNL     1      -4.188  -9.820  10.612  0.00  0.00    +0.097 C 
ATOM      3  C   UNL     1      -3.577  -9.348  10.319  0.00  0.00    +0.023 C 
ENDBRANCH   4   2
ENDBRANCH   8   7
ENDBRANCH   9   8
BRANCH  11  12
ATOM     12  C   UNL     1      -5.714 -10.168  15.679  0.00  0.00    +0.117 C 
BRANCH  12  13
ATOM     13  C   UNL     1      -6.475 -10.303  15.389  0.00  0.00    +0.228 C 
ATOM     14  O   UNL     1      -6.584 -10.778  14.724  0.00  0.00    -0.275 OA
ATOM     15  N   UNL     1      -7.125  -9.962  15.764  0.00  0.00    -0.276 N 
ATOM     16  C   UNL     1      -7.886 -10.097  15.474  0.00  0.00    +0.115 C 
ATOM     17  C   UNL     1      -8.537  -9.757  15.850  0.00  0.00    +0.112 C 
ATOM     18  N   UNL     1      -8.427  -9.281  16.515  0.00  0.00    -0.304 N 
ATOM     19  C   UNL     1      -7.667  -9.146  16.805  0.00  0.00    +0.112 C 
ATOM     20  C   UNL     1      -7.015  -9.487  16.430  0.00  0.00    +0.115 C 
BRANCH  18  21
ATOM     21  C   UNL     1      -9.079  -8.941  16.890  0.00  0.00    +0.048 A 
ATOM     22  C   UNL     1      -9.289  -8.161  16.726  0.00  0.00    +0.015 A 
ATOM     23  C   UNL     1      -9.941  -7.821  17.101  0.00  0.00    +0.001 A 
ATOM     24  C   UNL     1     -10.382  -8.262  17.641  0.00  0.00    +0.000 A 
ATOM     25  C   UNL     1     -10.172  -9.043  17.805  0.00  0.00    +0.001 A 
ATOM     26  C   UNL     1      -9.520  -9.382  17.430  0.00  0.00    +0.015 A 
ENDBRANCH  18  21
ENDBRANCH  12  13
ENDBRANCH  11  12
TORSDOF 6
ENDMDL
MODEL 10
REMARK VINA RESULT:      -6.7     14.313     16.504
REMARK  Name = 
REMARK  6 active torsions:
REMARK  status: ('A' for Active; 'I' for Inactive)
REMARK    1  A    between atoms: C_2  and  N_4
REMARK    2  A    between atoms: N_7  and  C_8
REMARK    3  A    between atoms: C_8  and  C_9
REMARK    4  A    between atoms: C_11  and  C_12
REMARK    5  A    between atoms: C_12  and  C_13
REMARK    6  A    between atoms: N_18  and  C_21
REMARK                            x       y       z     vdW  Elec       q    Type
REMARK                         _______ _______ _______ _____ _____    ______ ____
ROOT
ATOM      9  C   UNL     1      -3.520 -10.598  12.770  0.00  0.00    +0.170 C 
ATOM     10  O   UNL     1      -4.025 -10.637  13.422  0.00  0.00    -0.351 OA
ATOM     11  C   UNL     1      -3.562 -10.619  14.104  0.00  0.00    +0.157 C 
ATOM     27  C   UNL     1      -2.771 -10.569  13.874  0.00  0.00    +0.212 C 
ATOM     28  O   UNL     1      -2.121 -10.538  14.380  0.00  0.00    -0.218 OA
ATOM     29  C   UNL     1      -2.746 -10.557  13.050  0.00  0.00    +0.213 C 
ATOM     30  O   UNL     1      -2.065 -10.511  12.586  0.00  0.00    -0.218 OA
ENDROOT
BRANCH   9   8
ATOM      8  C   UNL     1      -3.751 -10.601  11.978  0.00  0.00    +0.149 C 
BRANCH   8   7
ATOM      4  N   UNL     1      -4.609  -9.226  10.515  0.00  0.00    -0.189 NA
ATOM      5  C   UNL     1      -4.353  -9.925  10.872  0.00  0.00    +0.339 C 
ATOM      6  O   UNL     1      -4.441 -10.646  10.480  0.00  0.00    -0.249 OA
ATOM      7  N   UNL     1      -4.008  -9.902  11.621  0.00  0.00    -0.185 NA
BRANCH   4   2
ATOM      1  C   UNL     1      -4.585  -8.872   9.131  0.00  0.00    +0.023 C 
ATOM      2  C   UNL     1      -4.954  -9.249   9.766  0.00  0.00    +0.097 C 
ATOM      3  C   UNL     1      -5.667  -9.648   9.652  0.00  0.00    +0.023 C 
ENDBRANCH   4   2
ENDBRANCH   8   7
ENDBRANCH   9   8
BRANCH  11  12
ATOM     12  C   UNL     1      -3.841 -10.645  14.880  0.00  0.00    +0.117 C 
BRANCH  12  13
ATOM     13  C   UNL     1      -4.610 -10.398  15.051  0.00  0.00    +0.228 C 
ATOM     14  O   UNL     1      -5.093 -10.109  14.449  0.00  0.00    -0.275 OA
ATOM     15  N   UNL     1      -4.894 -10.442  15.824  0.00  0.00    -0.276 N 
ATOM     16  C   UNL     1      -5.663 -10.195  15.995  0.00  0.00    +0.115 C 
ATOM     17  C   UNL     1      -5.947 -10.238  16.768  0.00  0.00    +0.112 C 
ATOM     18  N   UNL     1      -5.463 -10.528  17.370  0.00  0.00    -0.304 N 
ATOM     19  C   UNL     1      -4.695 -10.775  17.200  0.00  0.00    +0.112 C 
ATOM     20  C   UNL     1      -4.410 -10.732  16.426  0.00  0.00    +0.115 C 
BRANCH  18  21
ATOM     21  C   UNL     1      -5.748 -10.571  18.144  0.00  0.00    +0.048 A 
ATOM     22  C   UNL     1      -5.233 -10.735  18.765  0.00  0.00    +0.015 A 
ATOM     23  C   UNL     1      -5.519 -10.778  19.538  0.00  0.00    +0.001 A 
ATOM     24  C   UNL     1      -6.321 -10.656  19.689  0.00  0.00    +0.000 A 
ATOM     25  C   UNL     1      -6.837 -10.492  19.066  0.00  0.00    +0.001 A 
ATOM     26  C   UNL     1      -6.551 -10.449  18.294  0.00  0.00    +0.015 A 
ENDBRANCH  18  21
ENDBRANCH  12  13
ENDBRANCH  11  12
TORSDOF 6
ENDMDL
