MODEL 1
REMARK VINA RESULT:     -10.0      0.000      0.000
REMARK  Name = 
REMARK  7 active torsions:
REMARK  status: ('A' for Active; 'I' for Inactive)
REMARK    1  A    between atoms: C_2  and  C_4
REMARK    2  A    between atoms: C_4  and  C_5
REMARK    3  A    between atoms: C_5  and  C_6
REMARK    4  A    between atoms: C_6  and  C_7
REMARK    5  A    between atoms: N_9  and  C_10
REMARK    6  A    between atoms: C_14  and  N_18
REMARK    7  A    between atoms: C_21  and  C_25
REMARK                            x       y       z     vdW  Elec       q    Type
REMARK                         _______ _______ _______ _____ _____    ______ ____
ROOT
ATOM     10  C   UNL     1       0.927   0.868  23.592  0.00  0.00    +0.154 C 
ATOM     11  C   UNL     1       0.495   0.177  23.463  0.00  0.00    +0.166 C 
ATOM     12  O   UNL     1      -0.249   0.273  23.807  0.00  0.00    -0.350 OA
ATOM     13  C   UNL     1      -0.276   1.025  24.149  0.00  0.00    +0.166 C 
ATOM     14  C   UNL     1      -0.753   1.548  24.572  0.00  0.00    +0.154 C 
ATOM     15  C   UNL     1      -0.320   2.239  24.700  0.00  0.00    +0.166 C 
ATOM     16  O   UNL     1       0.423   2.142  24.356  0.00  0.00    -0.350 OA
ATOM     17  C   UNL     1       0.450   1.392  24.015  0.00  0.00    +0.166 C 
ENDROOT
BRANCH  14  18
ATOM     18  N   UNL     1      -1.526   1.406  24.823  0.00  0.00    -0.200 NA
ATOM     19  C   UNL     1      -2.129   1.929  24.616  0.00  0.00    +0.237 A 
ATOM     20  N   UNL     1      -2.902   1.787  24.867  0.00  0.00    -0.212 NA
ATOM     21  C   UNL     1      -3.506   2.309  24.660  0.00  0.00    +0.086 A 
ATOM     22  C   UNL     1      -3.337   2.974  24.202  0.00  0.00    +0.040 A 
ATOM     23  C   UNL     1      -2.564   3.117  23.950  0.00  0.00    +0.103 A 
ATOM     24  N   UNL     1      -1.960   2.593  24.158  0.00  0.00    -0.211 NA
BRANCH  21  25
ATOM     25  C   UNL     1      -4.279   2.168  24.911  0.00  0.00    +0.020 A 
ATOM     26  C   UNL     1      -4.675   1.489  24.661  0.00  0.00    +0.002 A 
ATOM     27  C   UNL     1      -5.448   1.346  24.911  0.00  0.00    +0.002 A 
ATOM     28  C   UNL     1      -5.825   1.883  25.412  0.00  0.00    +0.030 A 
ATOM     29  C   UNL     1      -5.429   2.562  25.662  0.00  0.00    +0.140 A 
ATOM     30  F   UNL     1      -5.805   3.098  26.163  0.00  0.00    -0.204 F 
ATOM     31  C   UNL     1      -4.655   2.704  25.411  0.00  0.00    +0.031 A 
ENDBRANCH  21  25
ENDBRANCH  14  18
BRANCH  10   9
ATOM      7  C   UNL     1       2.100   0.442  22.896  0.00  0.00    +0.241 C 
ATOM      8  O   UNL     1       1.727  -0.268  22.702  0.00  0.00    -0.273 OA
ATOM      9  N   UNL     1       1.700   1.010  23.341  0.00  0.00    -0.202 NA
BRANCH   7   6
ATOM      6  C   UNL     1       2.873   0.584  22.645  0.00  0.00    +0.087 C 
BRANCH   6   5
ATOM      5  C   UNL     1       3.508   0.270  23.068  0.00  0.00    +0.021 C 
BRANCH   5   4
ATOM      4  C   UNL     1       4.280   0.482  22.870  0.00  0.00    +0.115 C 
BRANCH   4   2
ATOM      1  O   UNL     1       5.282   0.863  23.816  0.00  0.00    -0.246 OA
ATOM      2  C   UNL     1       4.905   0.280  23.371  0.00  0.00    +0.365 C 
ATOM      3  O   UNL     1       5.151  -0.506  23.427  0.00  0.00    -0.246 OA
ENDBRANCH   4   2
ENDBRANCH   5   4
ENDBRANCH   6   5
ENDBRANCH   7   6
ENDBRANCH  10   9
TORSDOF 7
ENDMDL
MODEL 2
REMARK VINA RESULT:      -9.4      1.880      2.298
REMARK  Name = 
REMARK  7 active torsions:
REMARK  status: ('A' for Active; 'I' for Inactive)
REMARK    1  A    between atoms: C_2  and  C_4
REMARK    2  A    between atoms: C_4  and  C_5
REMARK    3  A    between atoms: C_5  and  C_6
REMARK    4  A    between atoms: C_6  and  C_7
REMARK    5  A    between atoms: N_9  and  C_10
REMARK    6  A    between atoms: C_14  and  N_18
REMARK    7  A    between atoms: C_21  and  C_25
REMARK                            x       y       z     vdW  Elec       q    Type
REMARK                         _______ _______ _______ _____ _____    ______ ____
ROOT
ATOM     10  C   UNL     1       1.866   0.691  23.204  0.00  0.00    +0.154 C 
ATOM     11  C   UNL     1       1.567   0.135  22.674  0.00  0.00    +0.166 C 
ATOM     12  O   UNL     1       0.746   0.117  22.760  0.00  0.00    -0.350 OA
ATOM     13  C   UNL     1       0.539   0.662  23.344  0.00  0.00    +0.166 C 
ATOM     14  C   UNL     1      -0.096   0.987  23.757  0.00  0.00    +0.154 C 
ATOM     15  C   UNL     1       0.204   1.544  24.288  0.00  0.00    +0.166 C 
ATOM     16  O   UNL     1       1.024   1.561  24.202  0.00  0.00    -0.350 OA
ATOM     17  C   UNL     1       1.231   1.017  23.619  0.00  0.00    +0.166 C 
ENDROOT
BRANCH  14  18
ATOM     18  N   UNL     1      -0.891   0.792  23.658  0.00  0.00    -0.200 NA
ATOM     19  C   UNL     1      -1.303   0.418  24.267  0.00  0.00    +0.237 A 
ATOM     20  N   UNL     1      -2.098   0.222  24.168  0.00  0.00    -0.212 NA
ATOM     21  C   UNL     1      -2.510  -0.152  24.776  0.00  0.00    +0.086 A 
ATOM     22  C   UNL     1      -2.127  -0.331  25.485  0.00  0.00    +0.040 A 
ATOM     23  C   UNL     1      -1.332  -0.135  25.585  0.00  0.00    +0.103 A 
ATOM     24  N   UNL     1      -0.920   0.239  24.975  0.00  0.00    -0.211 NA
BRANCH  21  25
ATOM     25  C   UNL     1      -3.306  -0.348  24.678  0.00  0.00    +0.020 A 
ATOM     26  C   UNL     1      -3.893   0.174  24.929  0.00  0.00    +0.002 A 
ATOM     27  C   UNL     1      -4.688  -0.021  24.831  0.00  0.00    +0.002 A 
ATOM     28  C   UNL     1      -4.897  -0.739  24.481  0.00  0.00    +0.030 A 
ATOM     29  C   UNL     1      -4.309  -1.261  24.229  0.00  0.00    +0.140 A 
ATOM     30  F   UNL     1      -4.518  -1.978  23.880  0.00  0.00    -0.204 F 
ATOM     31  C   UNL     1      -3.514  -1.065  24.328  0.00  0.00    +0.031 A 
ENDBRANCH  21  25
ENDBRANCH  14  18
BRANCH  10   9
ATOM      7  C   UNL     1       3.217   0.656  22.739  0.00  0.00    +0.241 C 
ATOM      8  O   UNL     1       2.977   0.228  22.075  0.00  0.00    -0.273 OA
ATOM      9  N   UNL     1       2.661   0.887  23.304  0.00  0.00    -0.202 NA
BRANCH   7   6
ATOM      6  C   UNL     1       4.012   0.852  22.839  0.00  0.00    +0.087 C 
BRANCH   6   5
ATOM      5  C   UNL     1       4.556   0.271  23.058  0.00  0.00    +0.021 C 
BRANCH   5   4
ATOM      4  C   UNL     1       5.236   0.479  23.476  0.00  0.00    +0.115 C 
BRANCH   4   2
ATOM      1  O   UNL     1       5.628  -0.502  24.438  0.00  0.00    -0.246 OA
ATOM      2  C   UNL     1       5.761  -0.106  23.726  0.00  0.00    +0.365 C 
ATOM      3  O   UNL     1       6.419  -0.294  23.266  0.00  0.00    -0.246 OA
ENDBRANCH   4   2
ENDBRANCH   5   4
ENDBRANCH   6   5
ENDBRANCH   7   6
ENDBRANCH  10   9
TORSDOF 7
ENDMDL
MODEL 3
REMARK VINA RESULT:      -6.6     15.173     15.995
REMARK  Name = 
REMARK  7 active torsions:
REMARK  status: ('A' for Active; 'I' for Inactive)
REMARK    1  A    between atoms: C_2  and  C_4
REMARK    2  A    between atoms: C_4  and  C_5
REMARK    3  A    between atoms: C_5  and  C_6
REMARK    4  A    between atoms: C_6  and  C_7
REMARK    5  A    between atoms: N_9  and  C_10
REMARK    6  A    between atoms: C_14  and  N_18
REMARK    7  A    between atoms: C_21  and  C_25
REMARK                            x       y       z     vdW  Elec       q    Type
REMARK                         _______ _______ _______ _____ _____    ______ ____
ROOT
ATOM     10  C   UNL     1      -5.614 -10.003  12.468  0.00  0.00    +0.154 C 
ATOM     11  C   UNL     1      -6.181  -9.468  12.199  0.00  0.00    +0.166 C 
ATOM     12  O   UNL     1      -6.772  -9.413  12.772  0.00  0.00    -0.350 OA
ATOM     13  C   UNL     1      -6.570  -9.915  13.396  0.00  0.00    +0.166 C 
ATOM     14  C   UNL     1      -6.811 -10.191  14.135  0.00  0.00    +0.154 C 
ATOM     15  C   UNL     1      -6.243 -10.727  14.403  0.00  0.00    +0.166 C 
ATOM     16  O   UNL     1      -5.653 -10.781  13.830  0.00  0.00    -0.350 OA
ATOM     17  C   UNL     1      -5.855 -10.280  13.208  0.00  0.00    +0.166 C 
ENDROOT
BRANCH  14  18
ATOM     18  N   UNL     1      -7.498  -9.971  14.535  0.00  0.00    -0.200 NA
ATOM     19  C   UNL     1      -7.460  -9.752  15.329  0.00  0.00    +0.237 A 
ATOM     20  N   UNL     1      -8.147  -9.532  15.730  0.00  0.00    -0.212 NA
ATOM     21  C   UNL     1      -8.109  -9.313  16.524  0.00  0.00    +0.086 A 
ATOM     22  C   UNL     1      -7.385  -9.315  16.918  0.00  0.00    +0.040 A 
ATOM     23  C   UNL     1      -6.698  -9.535  16.519  0.00  0.00    +0.103 A 
ATOM     24  N   UNL     1      -6.735  -9.754  15.723  0.00  0.00    -0.211 NA
BRANCH  21  25
ATOM     25  C   UNL     1      -8.796  -9.093  16.925  0.00  0.00    +0.020 A 
ATOM     26  C   UNL     1      -9.213  -9.651  17.366  0.00  0.00    +0.002 A 
ATOM     27  C   UNL     1      -9.900  -9.432  17.767  0.00  0.00    +0.002 A 
ATOM     28  C   UNL     1     -10.170  -8.653  17.727  0.00  0.00    +0.030 A 
ATOM     29  C   UNL     1      -9.753  -8.094  17.286  0.00  0.00    +0.140 A 
ATOM     30  F   UNL     1     -10.022  -7.316  17.246  0.00  0.00    -0.204 F 
ATOM     31  C   UNL     1      -9.066  -8.315  16.885  0.00  0.00    +0.031 A 
ENDBRANCH  21  25
ENDBRANCH  14  18
BRANCH  10   9
ATOM      7  C   UNL     1      -4.602  -9.722  11.499  0.00  0.00    +0.241 C 
ATOM      8  O   UNL     1      -4.964  -9.000  11.331  0.00  0.00    -0.273 OA
ATOM      9  N   UNL     1      -4.928 -10.224  12.068  0.00  0.00    -0.202 NA
BRANCH   7   6
ATOM      6  C   UNL     1      -3.915  -9.942  11.100  0.00  0.00    +0.087 C 
BRANCH   6   5
ATOM      5  C   UNL     1      -3.190  -9.607  11.309  0.00  0.00    +0.021 C 
BRANCH   5   4
ATOM      4  C   UNL     1      -2.505  -9.821  10.903  0.00  0.00    +0.115 C 
BRANCH   4   2
ATOM      1  O   UNL     1      -1.367  -8.964  10.790  0.00  0.00    -0.246 OA
ATOM      2  C   UNL     1      -1.768  -9.571  11.179  0.00  0.00    +0.365 C 
ATOM      3  O   UNL     1      -1.433  -9.928  11.843  0.00  0.00    -0.246 OA
ENDBRANCH   4   2
ENDBRANCH   5   4
ENDBRANCH   6   5
ENDBRANCH   7   6
ENDBRANCH  10   9
TORSDOF 7
ENDMDL
MODEL 4
REMARK VINA RESULT:      -6.6     15.547     16.967
REMARK  Name = 
REMARK  7 active torsions:
REMARK  status: ('A' for Active; 'I' for Inactive)
REMARK    1  A    between atoms: C_2  and  C_4
REMARK    2  A    between atoms: C_4  and  C_5
REMARK    3  A    between atoms: C_5  and  C_6
REMARK    4  A    between atoms: C_6  and  C_7
REMARK    5  A    between atoms: N_9  and  C_10
REMARK    6  A    between atoms: C_14  and  N_18
REMARK    7  A    between atoms: C_21  and  C_25
REMARK                            x       y       z     vdW  Elec       q    Type
REMARK                         _______ _______ _______ _____ _____    ______ ____
ROOT
ATOM     10  C   UNL     1      -5.155 -10.210  15.974  0.00  0.00    +0.154 C 
ATOM     11  C   UNL     1      -5.814  -9.778  15.734  0.00  0.00    +0.166 C 
ATOM     12  O   UNL     1      -5.772  -9.681  14.916  0.00  0.00    -0.350 OA
ATOM     13  C   UNL     1      -5.085 -10.054  14.650  0.00  0.00    +0.166 C 
ATOM     14  C   UNL     1      -4.635 -10.224  13.980  0.00  0.00    +0.154 C 
ATOM     15  C   UNL     1      -3.975 -10.658  14.221  0.00  0.00    +0.166 C 
ATOM     16  O   UNL     1      -4.018 -10.754  15.039  0.00  0.00    -0.350 OA
ATOM     17  C   UNL     1      -4.704 -10.381  15.304  0.00  0.00    +0.166 C 
ENDROOT
BRANCH  14  18
ATOM     18  N   UNL     1      -4.813 -10.002  13.206  0.00  0.00    -0.200 NA
ATOM     19  C   UNL     1      -4.266 -10.131  12.603  0.00  0.00    +0.237 A 
ATOM     20  N   UNL     1      -4.444  -9.908  11.829  0.00  0.00    -0.212 NA
ATOM     21  C   UNL     1      -3.896 -10.037  11.226  0.00  0.00    +0.086 A 
ATOM     22  C   UNL     1      -3.170 -10.389  11.397  0.00  0.00    +0.040 A 
ATOM     23  C   UNL     1      -2.991 -10.612  12.171  0.00  0.00    +0.103 A 
ATOM     24  N   UNL     1      -3.540 -10.483  12.774  0.00  0.00    -0.211 NA
BRANCH  21  25
ATOM     25  C   UNL     1      -4.074  -9.814  10.452  0.00  0.00    +0.020 A 
ATOM     26  C   UNL     1      -3.535  -9.365  10.018  0.00  0.00    +0.002 A 
ATOM     27  C   UNL     1      -3.711  -9.142   9.244  0.00  0.00    +0.002 A 
ATOM     28  C   UNL     1      -4.428  -9.368   8.903  0.00  0.00    +0.030 A 
ATOM     29  C   UNL     1      -4.968  -9.816   9.337  0.00  0.00    +0.140 A 
ATOM     30  F   UNL     1      -5.684 -10.041   8.997  0.00  0.00    -0.204 F 
ATOM     31  C   UNL     1      -4.790 -10.039  10.111  0.00  0.00    +0.031 A 
ENDBRANCH  21  25
ENDBRANCH  14  18
BRANCH  10   9
ATOM      7  C   UNL     1      -5.584 -10.551  17.294  0.00  0.00    +0.241 C 
ATOM      8  O   UNL     1      -6.370 -10.445  17.066  0.00  0.00    -0.273 OA
ATOM      9  N   UNL     1      -4.976 -10.434  16.748  0.00  0.00    -0.202 NA
BRANCH   7   6
ATOM      6  C   UNL     1      -5.405 -10.774  18.067  0.00  0.00    +0.087 C 
BRANCH   6   5
ATOM      5  C   UNL     1      -5.973 -10.695  18.661  0.00  0.00    +0.021 C 
BRANCH   5   4
ATOM      4  C   UNL     1      -5.743 -10.689  19.453  0.00  0.00    +0.115 C 
BRANCH   4   2
ATOM      1  O   UNL     1      -6.060  -9.683  20.417  0.00  0.00    -0.246 OA
ATOM      2  C   UNL     1      -6.252 -10.385  20.028  0.00  0.00    +0.365 C 
ATOM      3  O   UNL     1      -6.951 -10.781  20.212  0.00  0.00    -0.246 OA
ENDBRANCH   4   2
ENDBRANCH   5   4
ENDBRANCH   6   5
ENDBRANCH   7   6
ENDBRANCH  10   9
TORSDOF 7
ENDMDL
