MODEL 1
REMARK VINA RESULT:      -9.5      0.000      0.000
REMARK  Name = 
REMARK  7 active torsions:
REMARK  status: ('A' for Active; 'I' for Inactive)
REMARK    1  A    between atoms: O_2  and  C_3
REMARK    2  A    between atoms: C_6  and  C_7
REMARK    3  A    between atoms: C_7  and  N_8
REMARK    4  A    between atoms: C_13  and  O_15
REMARK    5  A    between atoms: O_15  and  C_16
REMARK    6  A    between atoms: C_16  and  C_17
REMARK    7  A    between atoms: C_17  and  C_18
REMARK                            x       y       z     vdW  Elec       q    Type
REMARK                         _______ _______ _______ _____ _____    ______ ____
ROOT
ATOM      8  N   UNL     1      -3.923   1.684  24.466  0.00  0.00    -0.265 NA
ATOM      9  C   UNL     1      -4.743   1.749  24.412  0.00  0.00    +0.105 C 
ATOM     10  C   UNL     1      -5.239   2.312  24.757  0.00  0.00    +0.160 C 
ATOM     11  O   UNL     1      -5.036   2.948  25.241  0.00  0.00    -0.350 OA
ATOM     12  C   UNL     1      -4.287   3.180  25.499  0.00  0.00    +0.173 C 
ATOM     13  C   UNL     1      -3.557   2.831  25.337  0.00  0.00    +0.161 C 
ATOM     14  C   UNL     1      -3.395   2.166  24.877  0.00  0.00    +0.105 C 
ENDROOT
BRANCH   8   7
ATOM      7  C   UNL     1      -3.586   1.055  24.053  0.00  0.00    +0.099 C 
BRANCH   7   6
ATOM      3  C   UNL     1      -3.671  -1.231  24.996  0.00  0.00    +0.139 A 
ATOM      4  C   UNL     1      -4.230  -0.995  24.437  0.00  0.00    +0.037 A 
ATOM      5  C   UNL     1      -4.202  -0.233  24.123  0.00  0.00    +0.000 A 
ATOM      6  C   UNL     1      -3.614   0.292  24.367  0.00  0.00    -0.006 A 
ATOM     21  C   UNL     1      -3.055   0.056  24.926  0.00  0.00    +0.000 A 
ATOM     22  C   UNL     1      -3.083  -0.706  25.241  0.00  0.00    +0.037 A 
BRANCH   3   2
ATOM      1  C   UNL     1      -3.317  -2.615  24.922  0.00  0.00    +0.252 C 
ATOM      2  O   UNL     1      -3.699  -1.994  25.311  0.00  0.00    -0.471 OA
ENDBRANCH   3   2
ENDBRANCH   7   6
ENDBRANCH   8   7
BRANCH  13  15
ATOM     15  O   UNL     1      -2.902   3.197  25.681  0.00  0.00    -0.352 OA
BRANCH  15  16
ATOM     16  C   UNL     1      -2.494   3.785  25.268  0.00  0.00    +0.142 C 
BRANCH  16  17
ATOM     17  C   UNL     1      -1.861   4.174  25.625  0.00  0.00    +0.032 C 
BRANCH  17  18
ATOM     18  C   UNL     1      -1.351   4.637  25.169  0.00  0.00    +0.002 C 
ATOM     19  C   UNL     1      -1.520   5.434  25.043  0.00  0.00    +0.000 C 
ATOM     20  C   UNL     1      -0.674   4.301  24.839  0.00  0.00    +0.000 C 
ENDBRANCH  17  18
ENDBRANCH  16  17
ENDBRANCH  15  16
ENDBRANCH  13  15
TORSDOF 7
ENDMDL
MODEL 2
REMARK VINA RESULT:      -9.5      1.279      4.276
REMARK  Name = 
REMARK  7 active torsions:
REMARK  status: ('A' for Active; 'I' for Inactive)
REMARK    1  A    between atoms: O_2  and  C_3
REMARK    2  A    between atoms: C_6  and  C_7
REMARK    3  A    between atoms: C_7  and  N_8
REMARK    4  A    between atoms: C_13  and  O_15
REMARK    5  A    between atoms: O_15  and  C_16
REMARK    6  A    between atoms: C_16  and  C_17
REMARK    7  A    between atoms: C_17  and  C_18
REMARK                            x       y       z     vdW  Elec       q    Type
REMARK                         _______ _______ _______ _____ _____    ______ ____
ROOT
ATOM      8  N   UNL     1      -4.145   3.009  24.889  0.00  0.00    -0.265 NA
ATOM      9  C   UNL     1      -4.636   3.332  25.468  0.00  0.00    +0.105 C 
ATOM     10  C   UNL     1      -5.276   2.981  25.855  0.00  0.00    +0.160 C 
ATOM     11  O   UNL     1      -5.582   2.221  25.757  0.00  0.00    -0.350 OA
ATOM     12  C   UNL     1      -5.325   1.625  25.249  0.00  0.00    +0.173 C 
ATOM     13  C   UNL     1      -4.697   1.640  24.712  0.00  0.00    +0.161 C 
ATOM     14  C   UNL     1      -4.173   2.257  24.553  0.00  0.00    +0.105 C 
ENDROOT
BRANCH   8   7
ATOM      7  C   UNL     1      -3.548   3.505  24.609  0.00  0.00    +0.099 C 
BRANCH   7   6
ATOM      3  C   UNL     1      -1.260   3.334  25.535  0.00  0.00    +0.139 A 
ATOM      4  C   UNL     1      -1.434   2.996  24.803  0.00  0.00    +0.037 A 
ATOM      5  C   UNL     1      -2.197   3.053  24.494  0.00  0.00    +0.000 A 
ATOM      6  C   UNL     1      -2.786   3.448  24.918  0.00  0.00    -0.006 A 
ATOM     21  C   UNL     1      -2.611   3.785  25.650  0.00  0.00    +0.000 A 
ATOM     22  C   UNL     1      -1.848   3.728  25.959  0.00  0.00    +0.037 A 
BRANCH   3   2
ATOM      1  C   UNL     1      -0.216   2.549  26.117  0.00  0.00    +0.252 C 
ATOM      2  O   UNL     1      -0.497   3.277  25.844  0.00  0.00    -0.471 OA
ENDBRANCH   3   2
ENDBRANCH   7   6
ENDBRANCH   8   7
BRANCH  13  15
ATOM     15  O   UNL     1      -4.580   0.948  24.280  0.00  0.00    -0.352 OA
BRANCH  15  16
ATOM     16  C   UNL     1      -4.330   0.260  24.662  0.00  0.00    +0.142 C 
BRANCH  16  17
ATOM     17  C   UNL     1      -3.908  -0.313  24.245  0.00  0.00    +0.032 C 
BRANCH  17  18
ATOM     18  C   UNL     1      -3.914  -1.097  24.502  0.00  0.00    +0.002 C 
ATOM     19  C   UNL     1      -4.259  -1.682  24.033  0.00  0.00    +0.000 C 
ATOM     20  C   UNL     1      -3.575  -1.296  25.228  0.00  0.00    +0.000 C 
ENDBRANCH  17  18
ENDBRANCH  16  17
ENDBRANCH  15  16
ENDBRANCH  13  15
TORSDOF 7
ENDMDL
MODEL 3
REMARK VINA RESULT:      -9.3      2.014      2.931
REMARK  Name = 
REMARK  7 active torsions:
REMARK  status: ('A' for Active; 'I' for Inactive)
REMARK    1  A    between atoms: O_2  and  C_3
REMARK    2  A    between atoms: C_6  and  C_7
REMARK    3  A    between atoms: C_7  and  N_8
REMARK    4  A    between atoms: C_13  and  O_15
REMARK    5  A    between atoms: O_15  and  C_16
REMARK    6  A    between atoms: C_16  and  C_17
REMARK    7  A    between atoms: C_17  and  C_18
REMARK                            x       y       z     vdW  Elec       q    Type
REMARK                         _______ _______ _______ _____ _____    ______ ____
ROOT
ATOM      8  N   UNL     1      -0.842  -0.086  25.178  0.00  0.00    -0.265 NA
ATOM      9  C   UNL     1      -0.492  -0.308  24.465  0.00  0.00    +0.105 C 
ATOM     10  C   UNL     1      -0.110   0.167  23.908  0.00  0.00    +0.160 C 
ATOM     11  O   UNL     1       0.014   0.983  23.928  0.00  0.00    -0.350 OA
ATOM     12  C   UNL     1      -0.212   1.524  24.508  0.00  0.00    +0.173 C 
ATOM     13  C   UNL     1      -0.618   1.383  25.212  0.00  0.00    +0.161 C 
ATOM     14  C   UNL     1      -0.898   0.666  25.510  0.00  0.00    +0.105 C 
ENDROOT
BRANCH   8   7
ATOM      7  C   UNL     1      -1.181  -0.697  25.616  0.00  0.00    +0.099 C 
BRANCH   7   6
ATOM      3  C   UNL     1      -3.270  -1.769  24.835  0.00  0.00    +0.139 A 
ATOM      4  C   UNL     1      -2.539  -2.095  24.633  0.00  0.00    +0.037 A 
ATOM      5  C   UNL     1      -1.843  -1.738  24.893  0.00  0.00    +0.000 A 
ATOM      6  C   UNL     1      -1.878  -1.055  25.355  0.00  0.00    -0.006 A 
ATOM     21  C   UNL     1      -2.608  -0.729  25.556  0.00  0.00    +0.000 A 
ATOM     22  C   UNL     1      -3.305  -1.087  25.296  0.00  0.00    +0.037 A 
BRANCH   3   2
ATOM      1  C   UNL     1      -4.311  -1.889  23.862  0.00  0.00    +0.252 C 
ATOM      2  O   UNL     1      -3.967  -2.128  24.574  0.00  0.00    -0.471 OA
ENDBRANCH   3   2
ENDBRANCH   7   6
ENDBRANCH   8   7
BRANCH  13  15
ATOM     15  O   UNL     1      -0.762   2.047  25.680  0.00  0.00    -0.352 OA
BRANCH  15  16
ATOM     16  C   UNL     1      -1.248   2.653  25.398  0.00  0.00    +0.142 C 
BRANCH  16  17
ATOM     17  C   UNL     1      -1.419   3.301  25.878  0.00  0.00    +0.032 C 
BRANCH  17  18
ATOM     18  C   UNL     1      -1.902   3.907  25.595  0.00  0.00    +0.002 C 
ATOM     19  C   UNL     1      -2.721   3.855  25.681  0.00  0.00    +0.000 C 
ATOM     20  C   UNL     1      -1.567   4.565  25.228  0.00  0.00    +0.000 C 
ENDBRANCH  17  18
ENDBRANCH  16  17
ENDBRANCH  15  16
ENDBRANCH  13  15
TORSDOF 7
ENDMDL
MODEL 4
REMARK VINA RESULT:      -9.1      1.567      4.633
REMARK  Name = 
REMARK  7 active torsions:
REMARK  status: ('A' for Active; 'I' for Inactive)
REMARK    1  A    between atoms: O_2  and  C_3
REMARK    2  A    between atoms: C_6  and  C_7
REMARK    3  A    between atoms: C_7  and  N_8
REMARK    4  A    between atoms: C_13  and  O_15
REMARK    5  A    between atoms: O_15  and  C_16
REMARK    6  A    between atoms: C_16  and  C_17
REMARK    7  A    between atoms: C_17  and  C_18
REMARK                            x       y       z     vdW  Elec       q    Type
REMARK                         _______ _______ _______ _____ _____    ______ ____
ROOT
ATOM      8  N   UNL     1      -1.760   1.892  24.615  0.00  0.00    -0.265 NA
ATOM      9  C   UNL     1      -1.261   2.150  25.220  0.00  0.00    +0.105 C 
ATOM     10  C   UNL     1      -0.794   1.698  25.730  0.00  0.00    +0.160 C 
ATOM     11  O   UNL     1      -0.713   0.878  25.762  0.00  0.00    -0.350 OA
ATOM     12  C   UNL     1      -1.077   0.306  25.291  0.00  0.00    +0.173 C 
ATOM     13  C   UNL     1      -1.613   0.414  24.673  0.00  0.00    +0.161 C 
ATOM     14  C   UNL     1      -1.916   1.120  24.372  0.00  0.00    +0.105 C 
ENDROOT
BRANCH   8   7
ATOM      7  C   UNL     1      -2.154   2.485  24.200  0.00  0.00    +0.099 C 
BRANCH   7   6
ATOM      3  C   UNL     1      -4.362   3.286  24.981  0.00  0.00    +0.139 A 
ATOM      4  C   UNL     1      -4.315   2.766  24.342  0.00  0.00    +0.037 A 
ATOM      5  C   UNL     1      -3.579   2.499  24.081  0.00  0.00    +0.000 A 
ATOM      6  C   UNL     1      -2.890   2.752  24.460  0.00  0.00    -0.006 A 
ATOM     21  C   UNL     1      -2.938   3.272  25.099  0.00  0.00    +0.000 A 
ATOM     22  C   UNL     1      -3.674   3.539  25.360  0.00  0.00    +0.037 A 
BRANCH   3   2
ATOM      1  C   UNL     1      -5.554   3.081  25.742  0.00  0.00    +0.252 C 
ATOM      2  O   UNL     1      -5.098   3.553  25.241  0.00  0.00    -0.471 OA
ENDBRANCH   3   2
ENDBRANCH   7   6
ENDBRANCH   8   7
BRANCH  13  15
ATOM     15  O   UNL     1      -1.880  -0.276  24.307  0.00  0.00    -0.352 OA
BRANCH  15  16
ATOM     16  C   UNL     1      -2.501  -0.705  24.640  0.00  0.00    +0.142 C 
BRANCH  16  17
ATOM     17  C   UNL     1      -2.782  -1.383  24.264  0.00  0.00    +0.032 C 
BRANCH  17  18
ATOM     18  C   UNL     1      -3.495  -1.723  24.504  0.00  0.00    +0.002 C 
ATOM     19  C   UNL     1      -3.498  -2.303  25.090  0.00  0.00    +0.000 C 
ATOM     20  C   UNL     1      -4.204  -1.482  24.158  0.00  0.00    +0.000 C 
ENDBRANCH  17  18
ENDBRANCH  16  17
ENDBRANCH  15  16
ENDBRANCH  13  15
TORSDOF 7
ENDMDL
MODEL 5
REMARK VINA RESULT:      -8.9      2.027      5.349
REMARK  Name = 
REMARK  7 active torsions:
REMARK  status: ('A' for Active; 'I' for Inactive)
REMARK    1  A    between atoms: O_2  and  C_3
REMARK    2  A    between atoms: C_6  and  C_7
REMARK    3  A    between atoms: C_7  and  N_8
REMARK    4  A    between atoms: C_13  and  O_15
REMARK    5  A    between atoms: O_15  and  C_16
REMARK    6  A    between atoms: C_16  and  C_17
REMARK    7  A    between atoms: C_17  and  C_18
REMARK                            x       y       z     vdW  Elec       q    Type
REMARK                         _______ _______ _______ _____ _____    ______ ____
ROOT
ATOM      8  N   UNL     1      -0.574   1.226  25.294  0.00  0.00    -0.265 NA
ATOM      9  C   UNL     1      -0.059   1.339  24.659  0.00  0.00    +0.105 C 
ATOM     10  C   UNL     1       0.079   0.843  24.013  0.00  0.00    +0.160 C 
ATOM     11  O   UNL     1      -0.265   0.112  23.844  0.00  0.00    -0.350 OA
ATOM     12  C   UNL     1      -0.831  -0.303  24.277  0.00  0.00    +0.173 C 
ATOM     13  C   UNL     1      -1.193  -0.091  24.988  0.00  0.00    +0.161 C 
ATOM     14  C   UNL     1      -1.078   0.590  25.440  0.00  0.00    +0.105 C 
ENDROOT
BRANCH   8   7
ATOM      7  C   UNL     1      -0.585   1.829  25.857  0.00  0.00    +0.099 C 
BRANCH   7   6
ATOM      3  C   UNL     1      -1.618   4.010  25.313  0.00  0.00    +0.139 A 
ATOM      4  C   UNL     1      -0.802   3.912  25.241  0.00  0.00    +0.037 A 
ATOM      5  C   UNL     1      -0.458   3.184  25.422  0.00  0.00    +0.000 A 
ATOM      6  C   UNL     1      -0.930   2.556  25.675  0.00  0.00    -0.006 A 
ATOM     21  C   UNL     1      -1.745   2.656  25.747  0.00  0.00    +0.000 A 
ATOM     22  C   UNL     1      -2.090   3.383  25.565  0.00  0.00    +0.037 A 
BRANCH   3   2
ATOM      1  C   UNL     1      -1.489   5.412  25.061  0.00  0.00    +0.252 C 
ATOM      2  O   UNL     1      -1.962   4.739  25.131  0.00  0.00    -0.471 OA
ENDBRANCH   3   2
ENDBRANCH   7   6
ENDBRANCH   8   7
BRANCH  13  15
ATOM     15  O   UNL     1      -1.742  -0.630  25.285  0.00  0.00    -0.352 OA
BRANCH  15  16
ATOM     16  C   UNL     1      -2.396  -0.845  24.829  0.00  0.00    +0.142 C 
BRANCH  16  17
ATOM     17  C   UNL     1      -3.029  -1.242  25.179  0.00  0.00    +0.032 C 
BRANCH  17  18
ATOM     18  C   UNL     1      -3.597  -1.609  24.707  0.00  0.00    +0.002 C 
ATOM     19  C   UNL     1      -4.163  -1.155  24.314  0.00  0.00    +0.000 C 
ATOM     20  C   UNL     1      -3.600  -2.430  24.627  0.00  0.00    +0.000 C 
ENDBRANCH  17  18
ENDBRANCH  16  17
ENDBRANCH  15  16
ENDBRANCH  13  15
TORSDOF 7
ENDMDL
MODEL 6
REMARK VINA RESULT:      -8.9      1.552      3.336
REMARK  Name = 
REMARK  7 active torsions:
REMARK  status: ('A' for Active; 'I' for Inactive)
REMARK    1  A    between atoms: O_2  and  C_3
REMARK    2  A    between atoms: C_6  and  C_7
REMARK    3  A    between atoms: C_7  and  N_8
REMARK    4  A    between atoms: C_13  and  O_15
REMARK    5  A    between atoms: O_15  and  C_16
REMARK    6  A    between atoms: C_16  and  C_17
REMARK    7  A    between atoms: C_17  and  C_18
REMARK                            x       y       z     vdW  Elec       q    Type
REMARK                         _______ _______ _______ _____ _____    ______ ____
ROOT
ATOM      8  N   UNL     1      -3.112   0.022  24.665  0.00  0.00    -0.265 NA
ATOM      9  C   UNL     1      -3.359  -0.632  25.103  0.00  0.00    +0.105 C 
ATOM     10  C   UNL     1      -2.931  -1.075  25.653  0.00  0.00    +0.160 C 
ATOM     11  O   UNL     1      -2.150  -0.973  25.899  0.00  0.00    -0.350 OA
ATOM     12  C   UNL     1      -1.605  -0.404  25.658  0.00  0.00    +0.173 C 
ATOM     13  C   UNL     1      -1.705   0.206  25.110  0.00  0.00    +0.161 C 
ATOM     14  C   UNL     1      -2.376   0.395  24.669  0.00  0.00    +0.105 C 
ENDROOT
BRANCH   8   7
ATOM      7  C   UNL     1      -3.675   0.347  24.157  0.00  0.00    +0.099 C 
BRANCH   7   6
ATOM      3  C   UNL     1      -5.082   2.237  24.913  0.00  0.00    +0.139 A 
ATOM      4  C   UNL     1      -4.455   2.372  24.394  0.00  0.00    +0.037 A 
ATOM      5  C   UNL     1      -3.985   1.742  24.142  0.00  0.00    +0.000 A 
ATOM      6  C   UNL     1      -4.144   0.977  24.409  0.00  0.00    -0.006 A 
ATOM     21  C   UNL     1      -4.771   0.842  24.928  0.00  0.00    +0.000 A 
ATOM     22  C   UNL     1      -5.240   1.472  25.180  0.00  0.00    +0.037 A 
BRANCH   3   2
ATOM      1  C   UNL     1      -5.230   3.449  25.656  0.00  0.00    +0.252 C 
ATOM      2  O   UNL     1      -5.551   2.868  25.165  0.00  0.00    -0.471 OA
ENDBRANCH   3   2
ENDBRANCH   7   6
ENDBRANCH   8   7
BRANCH  13  15
ATOM     15  O   UNL     1      -1.047   0.688  24.989  0.00  0.00    -0.352 OA
BRANCH  15  16
ATOM     16  C   UNL     1      -0.882   1.300  25.518  0.00  0.00    +0.142 C 
BRANCH  16  17
ATOM     17  C   UNL     1      -0.316   1.869  25.326  0.00  0.00    +0.032 C 
BRANCH  17  18
ATOM     18  C   UNL     1      -0.247   2.552  25.784  0.00  0.00    +0.002 C 
ATOM     19  C   UNL     1      -0.612   3.251  25.539  0.00  0.00    +0.000 C 
ATOM     20  C   UNL     1       0.186   2.537  26.486  0.00  0.00    +0.000 C 
ENDBRANCH  17  18
ENDBRANCH  16  17
ENDBRANCH  15  16
ENDBRANCH  13  15
TORSDOF 7
ENDMDL
