MODEL 1
REMARK VINA RESULT:      -9.5      0.000      0.000
REMARK  Name = 
REMARK  6 active torsions:
REMARK  status: ('A' for Active; 'I' for Inactive)
REMARK    1  A    between atoms: O_2  and  C_3
REMARK    2  A    between atoms: C_5  and  O_6
REMARK    3  A    between atoms: C_8  and  C_11
REMARK    4  A    between atoms: C_20  and  N_25
REMARK    5  A    between atoms: N_25  and  S_26
REMARK    6  A    between atoms: S_26  and  C_29
REMARK                            x       y       z     vdW  Elec       q    Type
REMARK                         _______ _______ _______ _____ _____    ______ ____
ROOT
ATOM     11  C   UNL     1      -1.522   1.781  24.991  0.00  0.00    +0.003 A 
ATOM     12  C   UNL     1      -0.838   1.784  24.531  0.00  0.00    +0.006 A 
ATOM     13  C   UNL     1      -0.500   1.071  24.290  0.00  0.00    +0.069 A 
ATOM     14  C   UNL     1      -0.846   0.355  24.510  0.00  0.00    +0.078 A 
ATOM     15  N   UNL     1      -0.600  -0.411  24.331  0.00  0.00    -0.178 NA
ATOM     16  C   UNL     1       0.053  -0.652  23.887  0.00  0.00    +0.264 C 
ATOM     17  O   UNL     1       0.151  -1.467  23.806  0.00  0.00    -0.271 OA
ATOM     18  C   UNL     1       0.620  -0.184  23.513  0.00  0.00    +0.156 C 
ATOM     19  C   UNL     1       1.252  -0.495  23.082  0.00  0.00    +0.050 C 
ATOM     20  C   UNL     1       1.698   0.136  22.793  0.00  0.00    +0.120 C 
ATOM     21  C   UNL     1       1.342   0.837  23.045  0.00  0.00    +0.113 C 
ATOM     22  N   UNL     1       0.676   0.638  23.490  0.00  0.00    -0.268 N 
ATOM     23  C   UNL     1       0.178   1.197  23.836  0.00  0.00    +0.251 C 
ATOM     24  O   UNL     1       0.383   1.987  23.711  0.00  0.00    -0.270 OA
ATOM     36  C   UNL     1      -1.530   0.352  24.971  0.00  0.00    +0.017 A 
ATOM     37  C   UNL     1      -1.869   1.065  25.212  0.00  0.00    +0.001 A 
ENDROOT
BRANCH  11   8
ATOM      3  C   UNL     1      -2.538   3.920  25.714  0.00  0.00    +0.142 A 
ATOM      4  C   UNL     1      -2.856   3.508  25.074  0.00  0.00    +0.074 A 
ATOM      5  C   UNL     1      -2.518   2.795  24.833  0.00  0.00    +0.142 A 
ATOM      8  C   UNL     1      -1.861   2.494  25.232  0.00  0.00    +0.034 A 
ATOM      9  C   UNL     1      -1.543   2.907  25.872  0.00  0.00    +0.006 A 
ATOM     10  C   UNL     1      -1.881   3.619  26.113  0.00  0.00    +0.037 A 
BRANCH   3   2
ATOM      1  C   UNL     1      -3.394   4.647  26.597  0.00  0.00    +0.252 C 
ATOM      2  O   UNL     1      -2.876   4.632  25.955  0.00  0.00    -0.471 OA
ENDBRANCH   3   2
BRANCH   5   6
ATOM      6  O   UNL     1      -2.835   2.382  24.193  0.00  0.00    -0.471 OA
ATOM      7  C   UNL     1      -3.474   2.696  23.775  0.00  0.00    +0.252 C 
ENDBRANCH   5   6
ENDBRANCH  11   8
BRANCH  20  25
ATOM     25  N   UNL     1       2.380   0.078  22.332  0.00  0.00    -0.077 NA
BRANCH  25  26
ATOM     26  S   UNL     1       3.122   0.068  22.693  0.00  0.00    +0.077 S 
ATOM     27  O   UNL     1       3.066  -0.750  22.784  0.00  0.00    -0.152 OA
ATOM     28  O   UNL     1       3.177   0.886  22.601  0.00  0.00    -0.152 OA
BRANCH  26  29
ATOM     29  C   UNL     1       3.864   0.059  23.054  0.00  0.00    +0.124 A 
ATOM     30  C   UNL     1       4.345   0.729  23.025  0.00  0.00    +0.022 A 
ATOM     31  C   UNL     1       5.087   0.718  23.386  0.00  0.00    +0.031 A 
ATOM     32  C   UNL     1       5.347   0.039  23.776  0.00  0.00    +0.140 A 
ATOM     33  F   UNL     1       6.089   0.029  24.137  0.00  0.00    -0.204 F 
ATOM     34  C   UNL     1       4.866  -0.630  23.804  0.00  0.00    +0.031 A 
ATOM     35  C   UNL     1       4.124  -0.620  23.443  0.00  0.00    +0.022 A 
ENDBRANCH  26  29
ENDBRANCH  25  26
ENDBRANCH  20  25
TORSDOF 6
ENDMDL
MODEL 2
REMARK VINA RESULT:      -9.4      1.751      3.130
REMARK  Name = 
REMARK  6 active torsions:
REMARK  status: ('A' for Active; 'I' for Inactive)
REMARK    1  A    between atoms: O_2  and  C_3
REMARK    2  A    between atoms: C_5  and  O_6
REMARK    3  A    between atoms: C_8  and  C_11
REMARK    4  A    between atoms: C_20  and  N_25
REMARK    5  A    between atoms: N_25  and  S_26
REMARK    6  A    between atoms: S_26  and  C_29
REMARK                            x       y       z     vdW  Elec       q    Type
REMARK                         _______ _______ _______ _____ _____    ______ ____
ROOT
ATOM     11  C   UNL     1      -1.746  -0.425  24.708  0.00  0.00    +0.003 A 
ATOM     12  C   UNL     1      -1.084  -0.512  24.224  0.00  0.00    +0.006 A 
ATOM     13  C   UNL     1      -0.509   0.080  24.202  0.00  0.00    +0.069 A 
ATOM     14  C   UNL     1      -0.596   0.758  24.664  0.00  0.00    +0.078 A 
ATOM     15  N   UNL     1      -0.092   1.408  24.724  0.00  0.00    -0.178 NA
ATOM     16  C   UNL     1       0.624   1.541  24.336  0.00  0.00    +0.264 C 
ATOM     17  O   UNL     1       1.002   2.252  24.515  0.00  0.00    -0.271 OA
ATOM     18  C   UNL     1       1.013   1.056  23.793  0.00  0.00    +0.156 C 
ATOM     19  C   UNL     1       1.733   1.253  23.442  0.00  0.00    +0.050 C 
ATOM     20  C   UNL     1       1.947   0.638  22.935  0.00  0.00    +0.120 C 
ATOM     21  C   UNL     1       1.359   0.061  22.974  0.00  0.00    +0.113 C 
ATOM     22  N   UNL     1       0.782   0.319  23.504  0.00  0.00    -0.268 N 
ATOM     23  C   UNL     1       0.105  -0.116  23.686  0.00  0.00    +0.251 C 
ATOM     24  O   UNL     1       0.030  -0.842  23.301  0.00  0.00    -0.270 OA
ATOM     36  C   UNL     1      -1.259   0.845  25.148  0.00  0.00    +0.017 A 
ATOM     37  C   UNL     1      -1.834   0.254  25.170  0.00  0.00    +0.001 A 
ENDROOT
BRANCH  11   8
ATOM      3  C   UNL     1      -3.472  -2.198  24.774  0.00  0.00    +0.142 A 
ATOM      4  C   UNL     1      -3.649  -1.463  24.444  0.00  0.00    +0.074 A 
ATOM      5  C   UNL     1      -3.073  -0.871  24.422  0.00  0.00    +0.142 A 
ATOM      8  C   UNL     1      -2.321  -1.015  24.730  0.00  0.00    +0.034 A 
ATOM      9  C   UNL     1      -2.145  -1.751  25.060  0.00  0.00    +0.006 A 
ATOM     10  C   UNL     1      -2.720  -2.342  25.082  0.00  0.00    +0.037 A 
BRANCH   3   2
ATOM      1  C   UNL     1      -3.976  -3.453  24.312  0.00  0.00    +0.252 C 
ATOM      2  O   UNL     1      -4.047  -2.788  24.797  0.00  0.00    -0.471 OA
ENDBRANCH   3   2
BRANCH   5   6
ATOM      6  O   UNL     1      -3.249  -0.136  24.092  0.00  0.00    -0.471 OA
ATOM      7  C   UNL     1      -4.012   0.022  23.818  0.00  0.00    +0.252 C 
ENDBRANCH   5   6
ENDBRANCH  11   8
BRANCH  20  25
ATOM     25  N   UNL     1       2.629   0.606  22.472  0.00  0.00    -0.077 NA
BRANCH  25  26
ATOM     26  S   UNL     1       3.349   0.394  22.812  0.00  0.00    +0.077 S 
ATOM     27  O   UNL     1       3.510   1.188  22.967  0.00  0.00    -0.152 OA
ATOM     28  O   UNL     1       3.188  -0.400  22.658  0.00  0.00    -0.152 OA
BRANCH  26  29
ATOM     29  C   UNL     1       4.070   0.180  23.153  0.00  0.00    +0.124 A 
ATOM     30  C   UNL     1       4.166  -0.571  23.478  0.00  0.00    +0.022 A 
ATOM     31  C   UNL     1       4.888  -0.783  23.819  0.00  0.00    +0.031 A 
ATOM     32  C   UNL     1       5.512  -0.244  23.833  0.00  0.00    +0.140 A 
ATOM     33  F   UNL     1       6.233  -0.456  24.173  0.00  0.00    -0.204 F 
ATOM     34  C   UNL     1       5.415   0.507  23.507  0.00  0.00    +0.031 A 
ATOM     35  C   UNL     1       4.694   0.720  23.167  0.00  0.00    +0.022 A 
ENDBRANCH  26  29
ENDBRANCH  25  26
ENDBRANCH  20  25
TORSDOF 6
ENDMDL
MODEL 3
REMARK VINA RESULT:      -9.3      3.342      6.797
REMARK  Name = 
REMARK  6 active torsions:
REMARK  status: ('A' for Active; 'I' for Inactive)
REMARK    1  A    between atoms: O_2  and  C_3
REMARK    2  A    between atoms: C_5  and  O_6
REMARK    3  A    between atoms: C_8  and  C_11
REMARK    4  A    between atoms: C_20  and  N_25
REMARK    5  A    between atoms: N_25  and  S_26
REMARK    6  A    between atoms: S_26  and  C_29
REMARK                            x       y       z     vdW  Elec       q    Type
REMARK                         _______ _______ _______ _____ _____    ______ ____
ROOT
ATOM     11  C   UNL     1      -0.301  -0.363  24.141  0.00  0.00    +0.003 A 
ATOM     12  C   UNL     1      -1.026   0.013  24.030  0.00  0.00    +0.006 A 
ATOM     13  C   UNL     1      -1.680  -0.211  24.481  0.00  0.00    +0.069 A 
ATOM     14  C   UNL     1      -1.609  -0.810  25.043  0.00  0.00    +0.078 A 
ATOM     15  N   UNL     1      -2.186  -1.115  25.547  0.00  0.00    -0.178 NA
ATOM     16  C   UNL     1      -2.979  -0.895  25.613  0.00  0.00    +0.264 C 
ATOM     17  O   UNL     1      -3.420  -1.309  26.174  0.00  0.00    -0.271 OA
ATOM     18  C   UNL     1      -3.389  -0.317  25.191  0.00  0.00    +0.156 C 
ATOM     19  C   UNL     1      -4.188  -0.148  25.310  0.00  0.00    +0.050 C 
ATOM     20  C   UNL     1      -4.401   0.457  24.792  0.00  0.00    +0.120 C 
ATOM     21  C   UNL     1      -3.733   0.663  24.353  0.00  0.00    +0.113 C 
ATOM     22  N   UNL     1      -3.108   0.185  24.600  0.00  0.00    -0.268 N 
ATOM     23  C   UNL     1      -2.348   0.233  24.284  0.00  0.00    +0.251 C 
ATOM     24  O   UNL     1      -2.240   0.798  23.692  0.00  0.00    -0.270 OA
ATOM     36  C   UNL     1      -0.883  -1.186  25.154  0.00  0.00    +0.017 A 
ATOM     37  C   UNL     1      -0.229  -0.963  24.704  0.00  0.00    +0.001 A 
ENDROOT
BRANCH  11   8
ATOM      3  C   UNL     1       1.661   0.305  22.789  0.00  0.00    +0.142 A 
ATOM      4  C   UNL     1       1.390   0.798  23.392  0.00  0.00    +0.074 A 
ATOM      5  C   UNL     1       0.736   0.575  23.844  0.00  0.00    +0.142 A 
ATOM      8  C   UNL     1       0.353  -0.140  23.691  0.00  0.00    +0.034 A 
ATOM      9  C   UNL     1       0.625  -0.632  23.086  0.00  0.00    +0.006 A 
ATOM     10  C   UNL     1       1.279  -0.409  22.635  0.00  0.00    +0.037 A 
BRANCH   3   2
ATOM      1  C   UNL     1       3.038   0.143  22.440  0.00  0.00    +0.252 C 
ATOM      2  O   UNL     1       2.315   0.528  22.338  0.00  0.00    -0.471 OA
ENDBRANCH   3   2
BRANCH   5   6
ATOM      6  O   UNL     1       0.464   1.066  24.448  0.00  0.00    -0.471 OA
ATOM      7  C   UNL     1       0.769   1.829  24.529  0.00  0.00    +0.252 C 
ENDBRANCH   5   6
ENDBRANCH  11   8
BRANCH  20  25
ATOM     25  N   UNL     1      -5.150   0.797  24.725  0.00  0.00    -0.077 NA
BRANCH  25  26
ATOM     26  S   UNL     1      -5.265   1.586  24.937  0.00  0.00    +0.077 S 
ATOM     27  O   UNL     1      -5.376   1.358  25.722  0.00  0.00    -0.152 OA
ATOM     28  O   UNL     1      -5.155   1.813  24.152  0.00  0.00    -0.152 OA
BRANCH  26  29
ATOM     29  C   UNL     1      -5.381   2.375  25.149  0.00  0.00    +0.124 A 
ATOM     30  C   UNL     1      -5.991   2.579  25.665  0.00  0.00    +0.022 A 
ATOM     31  C   UNL     1      -6.106   3.369  25.876  0.00  0.00    +0.031 A 
ATOM     32  C   UNL     1      -5.610   3.954  25.570  0.00  0.00    +0.140 A 
ATOM     33  F   UNL     1      -5.725   4.743  25.781  0.00  0.00    -0.204 F 
ATOM     34  C   UNL     1      -5.000   3.749  25.054  0.00  0.00    +0.031 A 
ATOM     35  C   UNL     1      -4.885   2.960  24.843  0.00  0.00    +0.022 A 
ENDBRANCH  26  29
ENDBRANCH  25  26
ENDBRANCH  20  25
TORSDOF 6
ENDMDL
MODEL 4
REMARK VINA RESULT:      -8.9      4.592      6.344
REMARK  Name = 
REMARK  6 active torsions:
REMARK  status: ('A' for Active; 'I' for Inactive)
REMARK    1  A    between atoms: O_2  and  C_3
REMARK    2  A    between atoms: C_5  and  O_6
REMARK    3  A    between atoms: C_8  and  C_11
REMARK    4  A    between atoms: C_20  and  N_25
REMARK    5  A    between atoms: N_25  and  S_26
REMARK    6  A    between atoms: S_26  and  C_29
REMARK                            x       y       z     vdW  Elec       q    Type
REMARK                         _______ _______ _______ _____ _____    ______ ____
ROOT
ATOM     11  C   UNL     1      -4.360  -0.357  24.671  0.00  0.00    +0.003 A 
ATOM     12  C   UNL     1      -3.913   0.305  24.877  0.00  0.00    +0.006 A 
ATOM     13  C   UNL     1      -4.288   1.026  25.021  0.00  0.00    +0.069 A 
ATOM     14  C   UNL     1      -5.108   1.085  24.958  0.00  0.00    +0.078 A 
ATOM     15  N   UNL     1      -5.588   1.745  25.077  0.00  0.00    -0.178 NA
ATOM     16  C   UNL     1      -5.365   2.511  25.288  0.00  0.00    +0.264 C 
ATOM     17  O   UNL     1      -5.980   3.056  25.366  0.00  0.00    -0.271 OA
ATOM     18  C   UNL     1      -4.607   2.805  25.433  0.00  0.00    +0.156 C 
ATOM     19  C   UNL     1      -4.456   3.589  25.642  0.00  0.00    +0.050 C 
ATOM     20  C   UNL     1      -3.641   3.674  25.740  0.00  0.00    +0.120 C 
ATOM     21  C   UNL     1      -3.289   2.942  25.591  0.00  0.00    +0.113 C 
ATOM     22  N   UNL     1      -3.886   2.406  25.402  0.00  0.00    -0.268 N 
ATOM     23  C   UNL     1      -3.743   1.614  25.219  0.00  0.00    +0.251 C 
ATOM     24  O   UNL     1      -2.953   1.379  25.235  0.00  0.00    -0.270 OA
ATOM     36  C   UNL     1      -5.555   0.422  24.752  0.00  0.00    +0.017 A 
ATOM     37  C   UNL     1      -5.181  -0.299  24.608  0.00  0.00    +0.001 A 
ENDROOT
BRANCH  11   8
ATOM      3  C   UNL     1      -3.238  -2.521  24.239  0.00  0.00    +0.142 A 
ATOM      4  C   UNL     1      -3.309  -2.241  25.011  0.00  0.00    +0.074 A 
ATOM      5  C   UNL     1      -3.683  -1.519  25.156  0.00  0.00    +0.142 A 
ATOM      8  C   UNL     1      -3.986  -1.078  24.527  0.00  0.00    +0.034 A 
ATOM      9  C   UNL     1      -3.914  -1.359  23.754  0.00  0.00    +0.006 A 
ATOM     10  C   UNL     1      -3.540  -2.080  23.611  0.00  0.00    +0.037 A 
BRANCH   3   2
ATOM      1  C   UNL     1      -2.063  -3.259  23.895  0.00  0.00    +0.252 C 
ATOM      2  O   UNL     1      -2.864  -3.241  24.095  0.00  0.00    -0.471 OA
ENDBRANCH   3   2
BRANCH   5   6
ATOM      6  O   UNL     1      -3.755  -1.238  25.928  0.00  0.00    -0.471 OA
ATOM      7  C   UNL     1      -3.405  -1.650  26.552  0.00  0.00    +0.252 C 
ENDBRANCH   5   6
ENDBRANCH  11   8
BRANCH  20  25
ATOM     25  N   UNL     1      -3.247   4.368  25.949  0.00  0.00    -0.077 NA
BRANCH  25  26
ATOM     26  S   UNL     1      -2.527   4.557  25.594  0.00  0.00    +0.077 S 
ATOM     27  O   UNL     1      -2.128   4.303  26.270  0.00  0.00    -0.152 OA
ATOM     28  O   UNL     1      -2.927   4.810  24.919  0.00  0.00    -0.152 OA
BRANCH  26  29
ATOM     29  C   UNL     1      -1.807   4.746  25.238  0.00  0.00    +0.124 A 
ATOM     30  C   UNL     1      -1.240   4.160  25.118  0.00  0.00    +0.022 A 
ATOM     31  C   UNL     1      -0.519   4.350  24.762  0.00  0.00    +0.031 A 
ATOM     32  C   UNL     1      -0.368   5.126  24.527  0.00  0.00    +0.140 A 
ATOM     33  F   UNL     1       0.352   5.316  24.171  0.00  0.00    -0.204 F 
ATOM     34  C   UNL     1      -0.936   5.712  24.648  0.00  0.00    +0.031 A 
ATOM     35  C   UNL     1      -1.655   5.522  25.003  0.00  0.00    +0.022 A 
ENDBRANCH  26  29
ENDBRANCH  25  26
ENDBRANCH  20  25
TORSDOF 6
ENDMDL
MODEL 5
REMARK VINA RESULT:      -8.4      4.507      5.585
REMARK  Name = 
REMARK  6 active torsions:
REMARK  status: ('A' for Active; 'I' for Inactive)
REMARK    1  A    between atoms: O_2  and  C_3
REMARK    2  A    between atoms: C_5  and  O_6
REMARK    3  A    between atoms: C_8  and  C_11
REMARK    4  A    between atoms: C_20  and  N_25
REMARK    5  A    between atoms: N_25  and  S_26
REMARK    6  A    between atoms: S_26  and  C_29
REMARK                            x       y       z     vdW  Elec       q    Type
REMARK                         _______ _______ _______ _____ _____    ______ ____
ROOT
ATOM     11  C   UNL     1      -3.017   3.766  25.251  0.00  0.00    +0.003 A 
ATOM     12  C   UNL     1      -3.038   3.004  24.938  0.00  0.00    +0.006 A 
ATOM     13  C   UNL     1      -3.704   2.530  25.049  0.00  0.00    +0.069 A 
ATOM     14  C   UNL     1      -4.350   2.818  25.474  0.00  0.00    +0.078 A 
ATOM     15  N   UNL     1      -5.062   2.441  25.647  0.00  0.00    -0.178 NA
ATOM     16  C   UNL     1      -5.305   1.680  25.438  0.00  0.00    +0.264 C 
ATOM     17  O   UNL     1      -6.057   1.460  25.697  0.00  0.00    -0.271 OA
ATOM     18  C   UNL     1      -4.895   1.110  25.005  0.00  0.00    +0.156 C 
ATOM     19  C   UNL     1      -5.202   0.364  24.831  0.00  0.00    +0.050 C 
ATOM     20  C   UNL     1      -4.638  -0.048  24.392  0.00  0.00    +0.120 C 
ATOM     21  C   UNL     1      -3.982   0.444  24.294  0.00  0.00    +0.113 C 
ATOM     22  N   UNL     1      -4.142   1.159  24.673  0.00  0.00    -0.268 N 
ATOM     23  C   UNL     1      -3.611   1.791  24.692  0.00  0.00    +0.251 C 
ATOM     24  O   UNL     1      -2.894   1.669  24.304  0.00  0.00    -0.270 OA
ATOM     36  C   UNL     1      -4.329   3.581  25.788  0.00  0.00    +0.017 A 
ATOM     37  C   UNL     1      -3.663   4.055  25.677  0.00  0.00    +0.001 A 
ENDROOT
BRANCH  11   8
ATOM      3  C   UNL     1      -1.019   5.188  24.918  0.00  0.00    +0.142 A 
ATOM      4  C   UNL     1      -0.984   4.541  25.429  0.00  0.00    +0.074 A 
ATOM      5  C   UNL     1      -1.650   4.067  25.540  0.00  0.00    +0.142 A 
ATOM      8  C   UNL     1      -2.351   4.240  25.140  0.00  0.00    +0.034 A 
ATOM      9  C   UNL     1      -2.386   4.887  24.630  0.00  0.00    +0.006 A 
ATOM     10  C   UNL     1      -1.720   5.361  24.519  0.00  0.00    +0.037 A 
BRANCH   3   2
ATOM      1  C   UNL     1       0.082   5.605  24.109  0.00  0.00    +0.252 C 
ATOM      2  O   UNL     1      -0.354   5.662  24.807  0.00  0.00    -0.471 OA
ENDBRANCH   3   2
BRANCH   5   6
ATOM      6  O   UNL     1      -1.616   3.420  26.050  0.00  0.00    -0.471 OA
ATOM      7  C   UNL     1      -0.891   3.178  26.363  0.00  0.00    +0.252 C 
ENDBRANCH   5   6
ENDBRANCH  11   8
BRANCH  20  25
ATOM     25  N   UNL     1      -4.715  -0.817  24.102  0.00  0.00    -0.077 NA
BRANCH  25  26
ATOM     26  S   UNL     1      -4.106  -1.362  24.214  0.00  0.00    +0.077 S 
ATOM     27  O   UNL     1      -4.315  -1.434  25.008  0.00  0.00    -0.152 OA
ATOM     28  O   UNL     1      -3.897  -1.291  23.419  0.00  0.00    -0.152 OA
BRANCH  26  29
ATOM     29  C   UNL     1      -3.497  -1.908  24.324  0.00  0.00    +0.124 A 
ATOM     30  C   UNL     1      -2.713  -1.680  24.207  0.00  0.00    +0.022 A 
ATOM     31  C   UNL     1      -2.104  -2.228  24.317  0.00  0.00    +0.031 A 
ATOM     32  C   UNL     1      -2.281  -3.000  24.545  0.00  0.00    +0.140 A 
ATOM     33  F   UNL     1      -1.672  -3.547  24.655  0.00  0.00    -0.204 F 
ATOM     34  C   UNL     1      -3.065  -3.227  24.662  0.00  0.00    +0.031 A 
ATOM     35  C   UNL     1      -3.673  -2.681  24.551  0.00  0.00    +0.022 A 
ENDBRANCH  26  29
ENDBRANCH  25  26
ENDBRANCH  20  25
TORSDOF 6
ENDMDL
MODEL 6
REMARK VINA RESULT:      -8.3      1.425      2.104
REMARK  Name = 
REMARK  6 active torsions:
REMARK  status: ('A' for Active; 'I' for Inactive)
REMARK    1  A    between atoms: O_2  and  C_3
REMARK    2  A    between atoms: C_5  and  O_6
REMARK    3  A    between atoms: C_8  and  C_11
REMARK    4  A    between atoms: C_20  and  N_25
REMARK    5  A    between atoms: N_25  and  S_26
REMARK    6  A    between atoms: S_26  and  C_29
REMARK                            x       y       z     vdW  Elec       q    Type
REMARK                         _______ _______ _______ _____ _____    ______ ____
ROOT
ATOM     11  C   UNL     1      -2.735   1.978  24.821  0.00  0.00    +0.003 A 
ATOM     12  C   UNL     1      -2.273   1.482  24.351  0.00  0.00    +0.006 A 
ATOM     13  C   UNL     1      -1.450   1.542  24.374  0.00  0.00    +0.069 A 
ATOM     14  C   UNL     1      -1.089   2.097  24.865  0.00  0.00    +0.078 A 
ATOM     15  N   UNL     1      -0.285   2.247  24.969  0.00  0.00    -0.178 NA
ATOM     16  C   UNL     1       0.358   1.877  24.608  0.00  0.00    +0.264 C 
ATOM     17  O   UNL     1       1.102   2.154  24.831  0.00  0.00    -0.271 OA
ATOM     18  C   UNL     1       0.355   1.267  24.053  0.00  0.00    +0.156 C 
ATOM     19  C   UNL     1       1.042   0.942  23.731  0.00  0.00    +0.050 C 
ATOM     20  C   UNL     1       0.820   0.350  23.202  0.00  0.00    +0.120 C 
ATOM     21  C   UNL     1      -0.004   0.308  23.197  0.00  0.00    +0.113 C 
ATOM     22  N   UNL     1      -0.291   0.875  23.723  0.00  0.00    -0.268 N 
ATOM     23  C   UNL     1      -1.094   0.997  23.865  0.00  0.00    +0.251 C 
ATOM     24  O   UNL     1      -1.611   0.511  23.443  0.00  0.00    -0.270 OA
ATOM     36  C   UNL     1      -1.552   2.594  25.334  0.00  0.00    +0.017 A 
ATOM     37  C   UNL     1      -2.374   2.535  25.313  0.00  0.00    +0.001 A 
ENDROOT
BRANCH  11   8
ATOM      3  C   UNL     1      -5.202   1.799  24.755  0.00  0.00    +0.142 A 
ATOM      4  C   UNL     1      -4.823   2.412  24.355  0.00  0.00    +0.074 A 
ATOM      5  C   UNL     1      -4.000   2.472  24.376  0.00  0.00    +0.142 A 
ATOM      8  C   UNL     1      -3.557   1.919  24.799  0.00  0.00    +0.034 A 
ATOM      9  C   UNL     1      -3.938   1.305  25.199  0.00  0.00    +0.006 A 
ATOM     10  C   UNL     1      -4.760   1.246  25.177  0.00  0.00    +0.037 A 
BRANCH   3   2
ATOM      1  C   UNL     1      -6.462   1.798  25.431  0.00  0.00    +0.252 C 
ATOM      2  O   UNL     1      -6.025   1.740  24.734  0.00  0.00    -0.471 OA
ENDBRANCH   3   2
BRANCH   5   6
ATOM      6  O   UNL     1      -3.620   3.085  23.976  0.00  0.00    -0.471 OA
ATOM      7  C   UNL     1      -4.056   3.608  23.510  0.00  0.00    +0.252 C 
ENDBRANCH   5   6
ENDBRANCH  11   8
BRANCH  20  25
ATOM     25  N   UNL     1       1.332  -0.119  22.756  0.00  0.00    -0.077 NA
BRANCH  25  26
ATOM     26  S   UNL     1       2.148  -0.017  22.821  0.00  0.00    +0.077 S 
ATOM     27  O   UNL     1       2.160  -0.526  23.469  0.00  0.00    -0.152 OA
ATOM     28  O   UNL     1       2.136   0.493  22.172  0.00  0.00    -0.152 OA
BRANCH  26  29
ATOM     29  C   UNL     1       2.964   0.086  22.885  0.00  0.00    +0.124 A 
ATOM     30  C   UNL     1       3.322   0.756  22.563  0.00  0.00    +0.022 A 
ATOM     31  C   UNL     1       4.139   0.858  22.628  0.00  0.00    +0.031 A 
ATOM     32  C   UNL     1       4.596   0.291  23.015  0.00  0.00    +0.140 A 
ATOM     33  F   UNL     1       5.412   0.393  23.079  0.00  0.00    -0.204 F 
ATOM     34  C   UNL     1       4.237  -0.379  23.336  0.00  0.00    +0.031 A 
ATOM     35  C   UNL     1       3.421  -0.481  23.272  0.00  0.00    +0.022 A 
ENDBRANCH  26  29
ENDBRANCH  25  26
ENDBRANCH  20  25
TORSDOF 6
ENDMDL
MODEL 7
REMARK VINA RESULT:      -7.8      3.207      4.506
REMARK  Name = 
REMARK  6 active torsions:
REMARK  status: ('A' for Active; 'I' for Inactive)
REMARK    1  A    between atoms: O_2  and  C_3
REMARK    2  A    between atoms: C_5  and  O_6
REMARK    3  A    between atoms: C_8  and  C_11
REMARK    4  A    between atoms: C_20  and  N_25
REMARK    5  A    between atoms: N_25  and  S_26
REMARK    6  A    between atoms: S_26  and  C_29
REMARK                            x       y       z     vdW  Elec       q    Type
REMARK                         _______ _______ _______ _____ _____    ______ ____
ROOT
ATOM     11  C   UNL     1      -2.646   3.339  25.113  0.00  0.00    +0.003 A 
ATOM     12  C   UNL     1      -2.591   2.516  25.105  0.00  0.00    +0.006 A 
ATOM     13  C   UNL     1      -1.860   2.154  24.979  0.00  0.00    +0.069 A 
ATOM     14  C   UNL     1      -1.185   2.613  24.862  0.00  0.00    +0.078 A 
ATOM     15  N   UNL     1      -0.411   2.365  24.728  0.00  0.00    -0.178 NA
ATOM     16  C   UNL     1      -0.118   1.595  24.678  0.00  0.00    +0.264 C 
ATOM     17  O   UNL     1       0.692   1.527  24.538  0.00  0.00    -0.271 OA
ATOM     18  C   UNL     1      -0.530   0.883  24.750  0.00  0.00    +0.156 C 
ATOM     19  C   UNL     1      -0.170   0.143  24.689  0.00  0.00    +0.050 C 
ATOM     20  C   UNL     1      -0.753  -0.433  24.791  0.00  0.00    +0.120 C 
ATOM     21  C   UNL     1      -1.472  -0.047  24.915  0.00  0.00    +0.113 C 
ATOM     22  N   UNL     1      -1.334   0.765  24.890  0.00  0.00    -0.268 N 
ATOM     23  C   UNL     1      -1.926   1.330  24.991  0.00  0.00    +0.251 C 
ATOM     24  O   UNL     1      -2.685   1.035  25.123  0.00  0.00    -0.270 OA
ATOM     36  C   UNL     1      -1.241   3.437  24.870  0.00  0.00    +0.017 A 
ATOM     37  C   UNL     1      -1.971   3.800  24.996  0.00  0.00    +0.001 A 
ENDROOT
BRANCH  11   8
ATOM      3  C   UNL     1      -4.836   4.428  25.491  0.00  0.00    +0.142 A 
ATOM      4  C   UNL     1      -4.604   4.223  24.727  0.00  0.00    +0.074 A 
ATOM      5  C   UNL     1      -3.874   3.860  24.600  0.00  0.00    +0.142 A 
ATOM      8  C   UNL     1      -3.376   3.702  25.239  0.00  0.00    +0.034 A 
ATOM      9  C   UNL     1      -3.609   3.907  26.004  0.00  0.00    +0.006 A 
ATOM     10  C   UNL     1      -4.338   4.270  26.130  0.00  0.00    +0.037 A 
BRANCH   3   2
ATOM      1  C   UNL     1      -6.222   4.337  25.826  0.00  0.00    +0.252 C 
ATOM      2  O   UNL     1      -5.566   4.791  25.617  0.00  0.00    -0.471 OA
ENDBRANCH   3   2
BRANCH   5   6
ATOM      6  O   UNL     1      -3.641   3.655  23.836  0.00  0.00    -0.471 OA
ATOM      7  C   UNL     1      -4.169   3.739  23.207  0.00  0.00    +0.252 C 
ENDBRANCH   5   6
ENDBRANCH  11   8
BRANCH  20  25
ATOM     25  N   UNL     1      -0.637  -1.249  24.772  0.00  0.00    -0.077 NA
BRANCH  25  26
ATOM     26  S   UNL     1      -1.285  -1.756  24.708  0.00  0.00    +0.077 S 
ATOM     27  O   UNL     1      -1.312  -1.824  25.530  0.00  0.00    -0.152 OA
ATOM     28  O   UNL     1      -1.258  -1.688  23.887  0.00  0.00    -0.152 OA
BRANCH  26  29
ATOM     29  C   UNL     1      -1.933  -2.263  24.644  0.00  0.00    +0.124 A 
ATOM     30  C   UNL     1      -1.996  -2.771  23.997  0.00  0.00    +0.022 A 
ATOM     31  C   UNL     1      -2.645  -3.277  23.933  0.00  0.00    +0.031 A 
ATOM     32  C   UNL     1      -3.229  -3.276  24.516  0.00  0.00    +0.140 A 
ATOM     33  F   UNL     1      -3.877  -3.782  24.452  0.00  0.00    -0.204 F 
ATOM     34  C   UNL     1      -3.164  -2.768  25.163  0.00  0.00    +0.031 A 
ATOM     35  C   UNL     1      -2.516  -2.261  25.227  0.00  0.00    +0.022 A 
ENDBRANCH  26  29
ENDBRANCH  25  26
ENDBRANCH  20  25
TORSDOF 6
ENDMDL
MODEL 8
REMARK VINA RESULT:      -7.6      2.257      3.335
REMARK  Name = 
REMARK  6 active torsions:
REMARK  status: ('A' for Active; 'I' for Inactive)
REMARK    1  A    between atoms: O_2  and  C_3
REMARK    2  A    between atoms: C_5  and  O_6
REMARK    3  A    between atoms: C_8  and  C_11
REMARK    4  A    between atoms: C_20  and  N_25
REMARK    5  A    between atoms: N_25  and  S_26
REMARK    6  A    between atoms: S_26  and  C_29
REMARK                            x       y       z     vdW  Elec       q    Type
REMARK                         _______ _______ _______ _____ _____    ______ ____
ROOT
ATOM     11  C   UNL     1      -4.635   1.541  24.937  0.00  0.00    +0.003 A 
ATOM     12  C   UNL     1      -3.816   1.461  24.983  0.00  0.00    +0.006 A 
ATOM     13  C   UNL     1      -3.460   0.742  24.788  0.00  0.00    +0.069 A 
ATOM     14  C   UNL     1      -3.923   0.104  24.548  0.00  0.00    +0.078 A 
ATOM     15  N   UNL     1      -3.682  -0.654  24.331  0.00  0.00    -0.178 NA
ATOM     16  C   UNL     1      -2.917  -0.962  24.301  0.00  0.00    +0.264 C 
ATOM     17  O   UNL     1      -2.856  -1.748  24.059  0.00  0.00    -0.271 OA
ATOM     18  C   UNL     1      -2.205  -0.586  24.480  0.00  0.00    +0.156 C 
ATOM     19  C   UNL     1      -1.470  -0.958  24.428  0.00  0.00    +0.050 C 
ATOM     20  C   UNL     1      -0.892  -0.412  24.649  0.00  0.00    +0.120 C 
ATOM     21  C   UNL     1      -1.270   0.296  24.839  0.00  0.00    +0.113 C 
ATOM     22  N   UNL     1      -2.081   0.188  24.734  0.00  0.00    -0.268 N 
ATOM     23  C   UNL     1      -2.639   0.780  24.871  0.00  0.00    +0.251 C 
ATOM     24  O   UNL     1      -2.339   1.505  25.125  0.00  0.00    -0.270 OA
ATOM     36  C   UNL     1      -4.744   0.184  24.501  0.00  0.00    +0.017 A 
ATOM     37  C   UNL     1      -5.100   0.902  24.696  0.00  0.00    +0.001 A 
ENDROOT
BRANCH  11   8
ATOM      3  C   UNL     1      -5.703   3.696  25.519  0.00  0.00    +0.142 A 
ATOM      4  C   UNL     1      -5.920   3.008  25.919  0.00  0.00    +0.074 A 
ATOM      5  C   UNL     1      -5.564   2.289  25.725  0.00  0.00    +0.142 A 
ATOM      8  C   UNL     1      -4.991   2.259  25.131  0.00  0.00    +0.034 A 
ATOM      9  C   UNL     1      -4.775   2.949  24.732  0.00  0.00    +0.006 A 
ATOM     10  C   UNL     1      -5.131   3.667  24.926  0.00  0.00    +0.037 A 
BRANCH   3   2
ATOM      1  C   UNL     1      -5.824   5.108  25.333  0.00  0.00    +0.252 C 
ATOM      2  O   UNL     1      -6.059   4.414  25.714  0.00  0.00    -0.471 OA
ENDBRANCH   3   2
BRANCH   5   6
ATOM      6  O   UNL     1      -5.780   1.600  26.123  0.00  0.00    -0.471 OA
ATOM      7  C   UNL     1      -6.347   1.629  26.722  0.00  0.00    +0.252 C 
ENDBRANCH   5   6
ENDBRANCH  11   8
BRANCH  20  25
ATOM     25  N   UNL     1      -0.079  -0.550  24.676  0.00  0.00    -0.077 NA
BRANCH  25  26
ATOM     26  S   UNL     1       0.382  -0.433  24.003  0.00  0.00    +0.077 S 
ATOM     27  O   UNL     1       0.411   0.376  24.163  0.00  0.00    -0.152 OA
ATOM     28  O   UNL     1       0.354  -1.241  23.842  0.00  0.00    -0.152 OA
BRANCH  26  29
ATOM     29  C   UNL     1       0.844  -0.316  23.329  0.00  0.00    +0.124 A 
ATOM     30  C   UNL     1       1.570   0.071  23.388  0.00  0.00    +0.022 A 
ATOM     31  C   UNL     1       2.031   0.188  22.713  0.00  0.00    +0.031 A 
ATOM     32  C   UNL     1       1.765  -0.083  21.980  0.00  0.00    +0.140 A 
ATOM     33  F   UNL     1       2.226   0.033  21.306  0.00  0.00    -0.204 F 
ATOM     34  C   UNL     1       1.039  -0.471  21.922  0.00  0.00    +0.031 A 
ATOM     35  C   UNL     1       0.579  -0.587  22.596  0.00  0.00    +0.022 A 
ENDBRANCH  26  29
ENDBRANCH  25  26
ENDBRANCH  20  25
TORSDOF 6
ENDMDL
MODEL 9
REMARK VINA RESULT:      -7.5      3.314      7.010
REMARK  Name = 
REMARK  6 active torsions:
REMARK  status: ('A' for Active; 'I' for Inactive)
REMARK    1  A    between atoms: O_2  and  C_3
REMARK    2  A    between atoms: C_5  and  O_6
REMARK    3  A    between atoms: C_8  and  C_11
REMARK    4  A    between atoms: C_20  and  N_25
REMARK    5  A    between atoms: N_25  and  S_26
REMARK    6  A    between atoms: S_26  and  C_29
REMARK                            x       y       z     vdW  Elec       q    Type
REMARK                         _______ _______ _______ _____ _____    ______ ____
ROOT
ATOM     11  C   UNL     1       0.428   1.579  24.265  0.00  0.00    +0.003 A 
ATOM     12  C   UNL     1      -0.351   1.770  24.074  0.00  0.00    +0.006 A 
ATOM     13  C   UNL     1      -0.793   2.251  24.579  0.00  0.00    +0.069 A 
ATOM     14  C   UNL     1      -0.456   2.541  25.273  0.00  0.00    +0.078 A 
ATOM     15  N   UNL     1      -0.796   3.025  25.847  0.00  0.00    -0.178 NA
ATOM     16  C   UNL     1      -1.559   3.339  25.869  0.00  0.00    +0.264 C 
ATOM     17  O   UNL     1      -1.735   3.808  26.525  0.00  0.00    -0.271 OA
ATOM     18  C   UNL     1      -2.169   3.246  25.322  0.00  0.00    +0.156 C 
ATOM     19  C   UNL     1      -2.914   3.591  25.408  0.00  0.00    +0.050 C 
ATOM     20  C   UNL     1      -3.372   3.375  24.757  0.00  0.00    +0.120 C 
ATOM     21  C   UNL     1      -2.910   2.896  24.269  0.00  0.00    +0.113 C 
ATOM     22  N   UNL     1      -2.168   2.816  24.618  0.00  0.00    -0.268 N 
ATOM     23  C   UNL     1      -1.555   2.373  24.287  0.00  0.00    +0.251 C 
ATOM     24  O   UNL     1      -1.727   2.004  23.569  0.00  0.00    -0.270 OA
ATOM     36  C   UNL     1       0.325   2.351  25.464  0.00  0.00    +0.017 A 
ATOM     37  C   UNL     1       0.767   1.870  24.960  0.00  0.00    +0.001 A 
ENDROOT
BRANCH  11   8
ATOM      3  C   UNL     1       1.755   0.137  22.754  0.00  0.00    +0.142 A 
ATOM      4  C   UNL     1       1.141  -0.187  23.198  0.00  0.00    +0.074 A 
ATOM      5  C   UNL     1       0.698   0.294  23.702  0.00  0.00    +0.142 A 
ATOM      8  C   UNL     1       0.871   1.098  23.762  0.00  0.00    +0.034 A 
ATOM      9  C   UNL     1       1.486   1.422  23.317  0.00  0.00    +0.006 A 
ATOM     10  C   UNL     1       1.928   0.941  22.813  0.00  0.00    +0.037 A 
BRANCH   3   2
ATOM      1  C   UNL     1       2.949  -0.106  22.006  0.00  0.00    +0.252 C 
ATOM      2  O   UNL     1       2.198  -0.344  22.250  0.00  0.00    -0.471 OA
ENDBRANCH   3   2
BRANCH   5   6
ATOM      6  O   UNL     1       0.083  -0.030  24.146  0.00  0.00    -0.471 OA
ATOM      7  C   UNL     1      -0.059  -0.843  24.127  0.00  0.00    +0.252 C 
ENDBRANCH   5   6
ENDBRANCH  11   8
BRANCH  20  25
ATOM     25  N   UNL     1      -4.154   3.598  24.618  0.00  0.00    -0.077 NA
BRANCH  25  26
ATOM     26  S   UNL     1      -4.772   3.160  24.944  0.00  0.00    +0.077 S 
ATOM     27  O   UNL     1      -4.800   3.676  25.586  0.00  0.00    -0.152 OA
ATOM     28  O   UNL     1      -4.744   2.643  24.301  0.00  0.00    -0.152 OA
BRANCH  26  29
ATOM     29  C   UNL     1      -5.391   2.720  25.268  0.00  0.00    +0.124 A 
ATOM     30  C   UNL     1      -5.769   2.144  24.816  0.00  0.00    +0.022 A 
ATOM     31  C   UNL     1      -6.388   1.705  25.142  0.00  0.00    +0.031 A 
ATOM     32  C   UNL     1      -6.627   1.843  25.919  0.00  0.00    +0.140 A 
ATOM     33  F   UNL     1      -7.245   1.404  26.245  0.00  0.00    -0.204 F 
ATOM     34  C   UNL     1      -6.248   2.419  26.371  0.00  0.00    +0.031 A 
ATOM     35  C   UNL     1      -5.630   2.858  26.046  0.00  0.00    +0.022 A 
ENDBRANCH  26  29
ENDBRANCH  25  26
ENDBRANCH  20  25
TORSDOF 6
ENDMDL
