MODEL 1
REMARK VINA RESULT:     -11.1      0.000      0.000
REMARK  Name = 
REMARK  8 active torsions:
REMARK  status: ('A' for Active; 'I' for Inactive)
REMARK    1  A    between atoms: O_2  and  C_3
REMARK    2  A    between atoms: C_6  and  C_9
REMARK    3  A    between atoms: C_15  and  C_18
REMARK    4  A    between atoms: C_21  and  C_23
REMARK    5  A    between atoms: N_27  and  C_28
REMARK    6  A    between atoms: C_28  and  C_29
REMARK    7  A    between atoms: C_29  and  C_30
REMARK    8  A    between atoms: C_30  and  C_31
REMARK                            x       y       z     vdW  Elec       q    Type
REMARK                         _______ _______ _______ _____ _____    ______ ____
ROOT
ATOM     18  C   UNL     1      -1.607   2.263  24.870  0.00  0.00    +0.205 A 
ATOM     19  N   UNL     1      -1.818   2.715  25.528  0.00  0.00    -0.056 NA
ATOM     20  O   UNL     1      -2.642   2.763  25.551  0.00  0.00    -0.336 OA
ATOM     21  C   UNL     1      -2.940   2.341  24.907  0.00  0.00    +0.251 A 
ATOM     22  N   UNL     1      -2.300   2.032  24.486  0.00  0.00    -0.190 NA
ENDROOT
BRANCH  18  15
ATOM      9  C   UNL     1       1.598   0.903  23.398  0.00  0.00    +0.270 C 
ATOM     10  O   UNL     1       0.960   0.479  23.092  0.00  0.00    -0.268 OA
ATOM     11  N   UNL     1       1.468   1.514  23.937  0.00  0.00    -0.157 NA
ATOM     12  C   UNL     1       0.699   1.701  24.170  0.00  0.00    +0.155 A 
ATOM     13  N   UNL     1       0.569   2.313  24.709  0.00  0.00    -0.227 NA
ATOM     14  C   UNL     1      -0.200   2.500  24.942  0.00  0.00    +0.103 A 
ATOM     15  C   UNL     1      -0.838   2.076  24.636  0.00  0.00    +0.058 A 
ATOM     16  C   UNL     1      -0.708   1.465  24.098  0.00  0.00    +0.008 A 
ATOM     17  C   UNL     1       0.060   1.278  23.865  0.00  0.00    +0.036 A 
BRANCH   9   6
ATOM      3  C   UNL     1       3.905   0.342  22.698  0.00  0.00    +0.139 A 
ATOM      4  C   UNL     1       3.358  -0.260  22.836  0.00  0.00    +0.037 A 
ATOM      5  C   UNL     1       2.589  -0.072  23.069  0.00  0.00    +0.008 A 
ATOM      6  C   UNL     1       2.367   0.716  23.165  0.00  0.00    +0.056 A 
ATOM      7  C   UNL     1       2.915   1.318  23.027  0.00  0.00    +0.008 A 
ATOM      8  C   UNL     1       3.684   1.131  22.794  0.00  0.00    +0.037 A 
BRANCH   3   2
ATOM      1  C   UNL     1       5.270   0.077  23.031  0.00  0.00    +0.252 C 
ATOM      2  O   UNL     1       4.674   0.154  22.465  0.00  0.00    -0.471 OA
ENDBRANCH   3   2
ENDBRANCH   9   6
ENDBRANCH  18  15
BRANCH  21  23
ATOM     23  C   UNL     1      -3.736   2.245  24.717  0.00  0.00    +0.138 C 
ATOM     24  C   UNL     1      -4.226   2.814  24.375  0.00  0.00    +0.027 C 
ATOM     25  C   UNL     1      -4.976   2.484  24.282  0.00  0.00    +0.019 C 
ATOM     26  C   UNL     1      -4.951   1.710  24.568  0.00  0.00    +0.073 C 
ATOM     27  N   UNL     1      -4.184   1.562  24.837  0.00  0.00    -0.266 NA
BRANCH  27  28
ATOM     28  C   UNL     1      -3.914   0.856  25.167  0.00  0.00    +0.073 C 
BRANCH  28  29
ATOM     29  C   UNL     1      -4.190   0.134  24.878  0.00  0.00    +0.022 C 
BRANCH  29  30
ATOM     30  C   UNL     1      -4.075  -0.556  25.315  0.00  0.00    +0.028 C 
BRANCH  30  31
ATOM     31  C   UNL     1      -3.917  -1.268  24.929  0.00  0.00    -0.022 A 
ATOM     32  C   UNL     1      -3.366  -1.794  25.245  0.00  0.00    -0.004 A 
ATOM     33  C   UNL     1      -3.208  -2.506  24.859  0.00  0.00    -0.000 A 
ATOM     34  C   UNL     1      -3.601  -2.692  24.158  0.00  0.00    -0.000 A 
ATOM     35  C   UNL     1      -4.152  -2.166  23.843  0.00  0.00    -0.000 A 
ATOM     36  C   UNL     1      -4.310  -1.454  24.228  0.00  0.00    -0.004 A 
ENDBRANCH  30  31
ENDBRANCH  29  30
ENDBRANCH  28  29
ENDBRANCH  27  28
ENDBRANCH  21  23
TORSDOF 8
ENDMDL
MODEL 2
REMARK VINA RESULT:      -9.7      1.636      3.416
REMARK  Name = 
REMARK  8 active torsions:
REMARK  status: ('A' for Active; 'I' for Inactive)
REMARK    1  A    between atoms: O_2  and  C_3
REMARK    2  A    between atoms: C_6  and  C_9
REMARK    3  A    between atoms: C_15  and  C_18
REMARK    4  A    between atoms: C_21  and  C_23
REMARK    5  A    between atoms: N_27  and  C_28
REMARK    6  A    between atoms: C_28  and  C_29
REMARK    7  A    between atoms: C_29  and  C_30
REMARK    8  A    between atoms: C_30  and  C_31
REMARK                            x       y       z     vdW  Elec       q    Type
REMARK                         _______ _______ _______ _____ _____    ______ ____
ROOT
ATOM     18  C   UNL     1      -2.963   0.516  24.758  0.00  0.00    +0.205 A 
ATOM     19  N   UNL     1      -3.468  -0.046  25.091  0.00  0.00    -0.056 NA
ATOM     20  O   UNL     1      -4.189   0.321  25.249  0.00  0.00    -0.336 OA
ATOM     21  C   UNL     1      -4.131   1.110  25.015  0.00  0.00    +0.251 A 
ATOM     22  N   UNL     1      -3.373   1.230  24.711  0.00  0.00    -0.190 NA
ENDROOT
BRANCH  18  15
ATOM      9  C   UNL     1       0.539   0.564  23.335  0.00  0.00    +0.270 C 
ATOM     10  O   UNL     1       0.153   1.262  23.125  0.00  0.00    -0.268 OA
ATOM     11  N   UNL     1       0.148  -0.004  23.787  0.00  0.00    -0.157 NA
ATOM     12  C   UNL     1      -0.630   0.126  24.030  0.00  0.00    +0.155 A 
ATOM     13  N   UNL     1      -1.022  -0.443  24.483  0.00  0.00    -0.227 NA
ATOM     14  C   UNL     1      -1.799  -0.313  24.725  0.00  0.00    +0.103 A 
ATOM     15  C   UNL     1      -2.185   0.386  24.515  0.00  0.00    +0.058 A 
ATOM     16  C   UNL     1      -1.794   0.954  24.063  0.00  0.00    +0.008 A 
ATOM     17  C   UNL     1      -1.017   0.824  23.820  0.00  0.00    +0.036 A 
BRANCH   9   6
ATOM      3  C   UNL     1       2.872   0.173  22.607  0.00  0.00    +0.139 A 
ATOM      4  C   UNL     1       2.706   0.758  23.164  0.00  0.00    +0.037 A 
ATOM      5  C   UNL     1       1.929   0.888  23.407  0.00  0.00    +0.008 A 
ATOM      6  C   UNL     1       1.316   0.433  23.092  0.00  0.00    +0.056 A 
ATOM      7  C   UNL     1       1.482  -0.152  22.534  0.00  0.00    +0.008 A 
ATOM      8  C   UNL     1       2.260  -0.282  22.291  0.00  0.00    +0.037 A 
BRANCH   3   2
ATOM      1  C   UNL     1       4.269   0.447  22.731  0.00  0.00    +0.252 C 
ATOM      2  O   UNL     1       3.649   0.043  22.364  0.00  0.00    -0.471 OA
ENDBRANCH   3   2
ENDBRANCH   9   6
ENDBRANCH  18  15
BRANCH  21  23
ATOM     23  C   UNL     1      -4.725   1.679  25.073  0.00  0.00    +0.138 C 
ATOM     24  C   UNL     1      -5.502   1.598  24.805  0.00  0.00    +0.027 C 
ATOM     25  C   UNL     1      -5.904   2.297  24.975  0.00  0.00    +0.019 C 
ATOM     26  C   UNL     1      -5.377   2.811  25.349  0.00  0.00    +0.073 C 
ATOM     27  N   UNL     1      -4.648   2.428  25.409  0.00  0.00    -0.266 NA
BRANCH  27  28
ATOM     28  C   UNL     1      -3.963   2.741  25.745  0.00  0.00    +0.073 C 
BRANCH  28  29
ATOM     29  C   UNL     1      -3.757   3.528  25.605  0.00  0.00    +0.022 C 
BRANCH  29  30
ATOM     30  C   UNL     1      -3.198   3.899  26.085  0.00  0.00    +0.028 C 
BRANCH  30  31
ATOM     31  C   UNL     1      -2.525   4.239  25.748  0.00  0.00    -0.022 A 
ATOM     32  C   UNL     1      -1.793   3.866  25.825  0.00  0.00    -0.004 A 
ATOM     33  C   UNL     1      -1.120   4.207  25.488  0.00  0.00    -0.000 A 
ATOM     34  C   UNL     1      -1.181   4.919  25.076  0.00  0.00    -0.000 A 
ATOM     35  C   UNL     1      -1.913   5.290  25.000  0.00  0.00    -0.000 A 
ATOM     36  C   UNL     1      -2.585   4.951  25.336  0.00  0.00    -0.004 A 
ENDBRANCH  30  31
ENDBRANCH  29  30
ENDBRANCH  28  29
ENDBRANCH  27  28
ENDBRANCH  21  23
TORSDOF 8
ENDMDL
