MODEL 1
REMARK VINA RESULT:     -12.3      0.000      0.000
REMARK  Name = 
REMARK  6 active torsions:
REMARK  status: ('A' for Active; 'I' for Inactive)
REMARK    1  A    between atoms: C_2  and  C_4
REMARK    2  A    between atoms: C_4  and  N_5
REMARK    3  A    between atoms: C_9  and  C_10
REMARK    4  A    between atoms: C_12  and  C_15
REMARK    5  A    between atoms: C_19  and  N_21
REMARK    6  A    between atoms: C_24  and  C_27
REMARK                            x       y       z     vdW  Elec       q    Type
REMARK                         _______ _______ _______ _____ _____    ______ ____
ROOT
ATOM     15  C   UNL     1      -4.281   2.295  25.174  0.00  0.00    +0.043 A 
ATOM     16  C   UNL     1      -5.072   2.486  25.035  0.00  0.00    +0.024 A 
ATOM     17  C   UNL     1      -5.603   1.901  24.799  0.00  0.00    +0.100 A 
ATOM     18  N   UNL     1      -5.343   1.124  24.702  0.00  0.00    -0.229 NA
ATOM     19  C   UNL     1      -4.553   0.932  24.840  0.00  0.00    +0.132 A 
ATOM     20  C   UNL     1      -4.022   1.519  25.076  0.00  0.00    +0.037 A 
ENDROOT
BRANCH  19  21
ATOM     21  N   UNL     1      -4.293   0.156  24.742  0.00  0.00    -0.293 N 
ATOM     22  C   UNL     1      -4.255  -0.174  23.987  0.00  0.00    +0.093 C 
ATOM     23  C   UNL     1      -3.995  -0.951  23.890  0.00  0.00    +0.031 C 
ATOM     24  C   UNL     1      -3.773  -1.398  24.546  0.00  0.00    +0.083 C 
ATOM     25  C   UNL     1      -3.812  -1.068  25.302  0.00  0.00    +0.031 C 
ATOM     26  C   UNL     1      -4.071  -0.291  25.400  0.00  0.00    +0.093 C 
BRANCH  24  27
ATOM     27  C   UNL     1      -3.514  -2.175  24.449  0.00  0.00    +0.260 C 
ATOM     28  N   UNL     1      -2.731  -2.373  24.621  0.00  0.00    -0.088 NA
ATOM     29  O   UNL     1      -4.037  -2.753  24.179  0.00  0.00    -0.272 OA
ENDBRANCH  24  27
ENDBRANCH  19  21
BRANCH  15  12
ATOM     10  C   UNL     1      -2.682   3.679  25.467  0.00  0.00    +0.251 A 
ATOM     11  N   UNL     1      -3.029   3.057  25.052  0.00  0.00    -0.190 NA
ATOM     12  C   UNL     1      -3.751   2.882  25.410  0.00  0.00    +0.203 A 
ATOM     13  N   UNL     1      -3.851   3.397  26.047  0.00  0.00    -0.056 NA
ATOM     14  O   UNL     1      -3.191   3.890  26.082  0.00  0.00    -0.336 OA
BRANCH  10   9
ATOM      5  N   UNL     1      -1.214   3.680  25.388  0.00  0.00    -0.266 NA
ATOM      6  C   UNL     1      -0.643   4.228  25.155  0.00  0.00    +0.073 C 
ATOM      7  C   UNL     1      -1.032   4.917  24.919  0.00  0.00    +0.019 C 
ATOM      8  C   UNL     1      -1.843   4.795  25.008  0.00  0.00    +0.027 C 
ATOM      9  C   UNL     1      -1.956   4.030  25.298  0.00  0.00    +0.138 C 
BRANCH   5   4
ATOM      4  C   UNL     1      -1.069   2.917  25.664  0.00  0.00    +0.072 C 
BRANCH   4   2
ATOM      1  C   UNL     1       0.058   2.298  25.040  0.00  0.00    +0.001 C 
ATOM      2  C   UNL     1      -0.296   2.633  25.706  0.00  0.00    +0.016 C 
ATOM      3  C   UNL     1       0.123   2.683  26.416  0.00  0.00    +0.001 C 
ENDBRANCH   4   2
ENDBRANCH   5   4
ENDBRANCH  10   9
ENDBRANCH  15  12
TORSDOF 6
ENDMDL
MODEL 2
REMARK VINA RESULT:     -11.6      1.330      4.976
REMARK  Name = 
REMARK  6 active torsions:
REMARK  status: ('A' for Active; 'I' for Inactive)
REMARK    1  A    between atoms: C_2  and  C_4
REMARK    2  A    between atoms: C_4  and  N_5
REMARK    3  A    between atoms: C_9  and  C_10
REMARK    4  A    between atoms: C_12  and  C_15
REMARK    5  A    between atoms: C_19  and  N_21
REMARK    6  A    between atoms: C_24  and  C_27
REMARK                            x       y       z     vdW  Elec       q    Type
REMARK                         _______ _______ _______ _____ _____    ______ ____
ROOT
ATOM     15  C   UNL     1      -4.357   1.243  24.982  0.00  0.00    +0.043 A 
ATOM     16  C   UNL     1      -5.117   1.492  24.777  0.00  0.00    +0.024 A 
ATOM     17  C   UNL     1      -5.266   2.290  24.636  0.00  0.00    +0.100 A 
ATOM     18  N   UNL     1      -4.655   2.841  24.700  0.00  0.00    -0.229 NA
ATOM     19  C   UNL     1      -3.896   2.594  24.905  0.00  0.00    +0.132 A 
ATOM     20  C   UNL     1      -3.747   1.794  25.046  0.00  0.00    +0.037 A 
ENDROOT
BRANCH  19  21
ATOM     21  N   UNL     1      -3.285   3.145  24.969  0.00  0.00    -0.293 N 
ATOM     22  C   UNL     1      -3.225   3.616  25.642  0.00  0.00    +0.093 C 
ATOM     23  C   UNL     1      -2.614   4.167  25.706  0.00  0.00    +0.031 C 
ATOM     24  C   UNL     1      -2.064   4.246  25.096  0.00  0.00    +0.083 C 
ATOM     25  C   UNL     1      -2.124   3.774  24.422  0.00  0.00    +0.031 C 
ATOM     26  C   UNL     1      -2.735   3.223  24.359  0.00  0.00    +0.093 C 
BRANCH  24  27
ATOM     27  C   UNL     1      -1.453   4.797  25.160  0.00  0.00    +0.260 C 
ATOM     28  N   UNL     1      -0.667   4.548  25.129  0.00  0.00    -0.088 NA
ATOM     29  O   UNL     1      -1.629   5.598  25.256  0.00  0.00    -0.272 OA
ENDBRANCH  24  27
ENDBRANCH  19  21
BRANCH  15  12
ATOM     10  C   UNL     1      -3.832  -0.826  24.959  0.00  0.00    +0.251 A 
ATOM     11  N   UNL     1      -3.880  -0.090  24.589  0.00  0.00    -0.190 NA
ATOM     12  C   UNL     1      -4.209   0.444  25.123  0.00  0.00    +0.203 A 
ATOM     13  N   UNL     1      -4.365   0.039  25.825  0.00  0.00    -0.056 NA
ATOM     14  O   UNL     1      -4.132  -0.746  25.724  0.00  0.00    -0.336 OA
BRANCH  10   9
ATOM      5  N   UNL     1      -2.747  -1.761  24.627  0.00  0.00    -0.266 NA
ATOM      6  C   UNL     1      -2.702  -2.485  24.234  0.00  0.00    +0.073 C 
ATOM      7  C   UNL     1      -3.463  -2.691  23.989  0.00  0.00    +0.019 C 
ATOM      8  C   UNL     1      -3.978  -2.094  24.231  0.00  0.00    +0.027 C 
ATOM      9  C   UNL     1      -3.536  -1.519  24.626  0.00  0.00    +0.138 C 
BRANCH   5   4
ATOM      4  C   UNL     1      -2.116  -1.352  24.963  0.00  0.00    +0.072 C 
BRANCH   4   2
ATOM      1  C   UNL     1      -1.023  -2.198  25.328  0.00  0.00    +0.001 C 
ATOM      2  C   UNL     1      -1.343  -1.613  24.841  0.00  0.00    +0.016 C 
ATOM      3  C   UNL     1      -0.889  -1.289  24.232  0.00  0.00    +0.001 C 
ENDBRANCH   4   2
ENDBRANCH   5   4
ENDBRANCH  10   9
ENDBRANCH  15  12
TORSDOF 6
ENDMDL
MODEL 3
REMARK VINA RESULT:     -11.5      1.730      3.043
REMARK  Name = 
REMARK  6 active torsions:
REMARK  status: ('A' for Active; 'I' for Inactive)
REMARK    1  A    between atoms: C_2  and  C_4
REMARK    2  A    between atoms: C_4  and  N_5
REMARK    3  A    between atoms: C_9  and  C_10
REMARK    4  A    between atoms: C_12  and  C_15
REMARK    5  A    between atoms: C_19  and  N_21
REMARK    6  A    between atoms: C_24  and  C_27
REMARK                            x       y       z     vdW  Elec       q    Type
REMARK                         _______ _______ _______ _____ _____    ______ ____
ROOT
ATOM     15  C   UNL     1      -0.472   1.006  24.651  0.00  0.00    +0.043 A 
ATOM     16  C   UNL     1       0.176   0.836  24.168  0.00  0.00    +0.024 A 
ATOM     17  C   UNL     1       0.227   0.107  23.788  0.00  0.00    +0.100 A 
ATOM     18  N   UNL     1      -0.369  -0.454  23.889  0.00  0.00    -0.229 NA
ATOM     19  C   UNL     1      -1.017  -0.285  24.371  0.00  0.00    +0.132 A 
ATOM     20  C   UNL     1      -1.068   0.445  24.752  0.00  0.00    +0.037 A 
ENDROOT
BRANCH  19  21
ATOM     21  N   UNL     1      -1.613  -0.846  24.472  0.00  0.00    -0.293 N 
ATOM     22  C   UNL     1      -1.418  -1.629  24.640  0.00  0.00    +0.093 C 
ATOM     23  C   UNL     1      -2.015  -2.190  24.742  0.00  0.00    +0.031 C 
ATOM     24  C   UNL     1      -2.806  -1.968  24.675  0.00  0.00    +0.083 C 
ATOM     25  C   UNL     1      -3.001  -1.184  24.507  0.00  0.00    +0.031 C 
ATOM     26  C   UNL     1      -2.405  -0.623  24.406  0.00  0.00    +0.093 C 
BRANCH  24  27
ATOM     27  C   UNL     1      -3.403  -2.529  24.777  0.00  0.00    +0.260 C 
ATOM     28  N   UNL     1      -3.910  -2.709  24.151  0.00  0.00    -0.088 NA
ATOM     29  O   UNL     1      -3.492  -2.909  25.503  0.00  0.00    -0.272 OA
ENDBRANCH  24  27
ENDBRANCH  19  21
BRANCH  15  12
ATOM     10  C   UNL     1      -0.805   3.014  25.296  0.00  0.00    +0.251 A 
ATOM     11  N   UNL     1      -0.884   2.414  24.735  0.00  0.00    -0.190 NA
ATOM     12  C   UNL     1      -0.522   1.736  25.031  0.00  0.00    +0.203 A 
ATOM     13  N   UNL     1      -0.218   1.915  25.777  0.00  0.00    -0.056 NA
ATOM     14  O   UNL     1      -0.392   2.705  25.941  0.00  0.00    -0.336 OA
BRANCH  10   9
ATOM      5  N   UNL     1      -1.848   4.043  25.412  0.00  0.00    -0.266 NA
ATOM      6  C   UNL     1      -1.888   4.852  25.259  0.00  0.00    +0.073 C 
ATOM      7  C   UNL     1      -1.151   5.095  24.978  0.00  0.00    +0.019 C 
ATOM      8  C   UNL     1      -0.656   4.436  24.958  0.00  0.00    +0.027 C 
ATOM      9  C   UNL     1      -1.086   3.785  25.226  0.00  0.00    +0.138 C 
BRANCH   5   4
ATOM      4  C   UNL     1      -2.461   3.574  25.701  0.00  0.00    +0.072 C 
BRANCH   4   2
ATOM      1  C   UNL     1      -3.783   3.833  25.224  0.00  0.00    +0.001 C 
ATOM      2  C   UNL     1      -3.211   3.898  25.815  0.00  0.00    +0.016 C 
ATOM      3  C   UNL     1      -3.388   4.287  26.521  0.00  0.00    +0.001 C 
ENDBRANCH   4   2
ENDBRANCH   5   4
ENDBRANCH  10   9
ENDBRANCH  15  12
TORSDOF 6
ENDMDL
MODEL 4
REMARK VINA RESULT:     -11.0      2.181      4.548
REMARK  Name = 
REMARK  6 active torsions:
REMARK  status: ('A' for Active; 'I' for Inactive)
REMARK    1  A    between atoms: C_2  and  C_4
REMARK    2  A    between atoms: C_4  and  N_5
REMARK    3  A    between atoms: C_9  and  C_10
REMARK    4  A    between atoms: C_12  and  C_15
REMARK    5  A    between atoms: C_19  and  N_21
REMARK    6  A    between atoms: C_24  and  C_27
REMARK                            x       y       z     vdW  Elec       q    Type
REMARK                         _______ _______ _______ _____ _____    ______ ____
ROOT
ATOM     15  C   UNL     1      -0.932   3.310  25.005  0.00  0.00    +0.043 A 
ATOM     16  C   UNL     1      -0.601   4.065  24.981  0.00  0.00    +0.024 A 
ATOM     17  C   UNL     1      -1.084   4.730  25.054  0.00  0.00    +0.100 A 
ATOM     18  N   UNL     1      -1.898   4.639  25.151  0.00  0.00    -0.229 NA
ATOM     19  C   UNL     1      -2.229   3.884  25.175  0.00  0.00    +0.132 A 
ATOM     20  C   UNL     1      -1.746   3.219  25.102  0.00  0.00    +0.037 A 
ENDROOT
BRANCH  19  21
ATOM     21  N   UNL     1      -3.044   3.794  25.272  0.00  0.00    -0.293 N 
ATOM     22  C   UNL     1      -3.520   3.629  24.620  0.00  0.00    +0.093 C 
ATOM     23  C   UNL     1      -4.334   3.538  24.717  0.00  0.00    +0.031 C 
ATOM     24  C   UNL     1      -4.672   3.612  25.466  0.00  0.00    +0.083 C 
ATOM     25  C   UNL     1      -4.194   3.777  26.118  0.00  0.00    +0.031 C 
ATOM     26  C   UNL     1      -3.380   3.868  26.022  0.00  0.00    +0.093 C 
BRANCH  24  27
ATOM     27  C   UNL     1      -5.486   3.522  25.563  0.00  0.00    +0.260 C 
ATOM     28  N   UNL     1      -5.829   2.774  25.497  0.00  0.00    -0.088 NA
ATOM     29  O   UNL     1      -5.957   4.179  25.725  0.00  0.00    -0.272 OA
ENDBRANCH  24  27
ENDBRANCH  19  21
BRANCH  15  12
ATOM     10  C   UNL     1       0.068   1.490  24.507  0.00  0.00    +0.251 A 
ATOM     11  N   UNL     1      -0.535   2.039  24.381  0.00  0.00    -0.190 NA
ATOM     12  C   UNL     1      -0.448   2.646  24.932  0.00  0.00    +0.203 A 
ATOM     13  N   UNL     1       0.210   2.472  25.399  0.00  0.00    -0.056 NA
ATOM     14  O   UNL     1       0.529   1.758  25.136  0.00  0.00    -0.336 OA
BRANCH  10   9
ATOM      5  N   UNL     1      -0.142   0.058  24.245  0.00  0.00    -0.266 NA
ATOM      6  C   UNL     1       0.128  -0.476  23.678  0.00  0.00    +0.073 C 
ATOM      7  C   UNL     1       0.626  -0.069  23.161  0.00  0.00    +0.019 C 
ATOM      8  C   UNL     1       0.664   0.717  23.409  0.00  0.00    +0.027 C 
ATOM      9  C   UNL     1       0.189   0.796  24.079  0.00  0.00    +0.138 C 
BRANCH   5   4
ATOM      4  C   UNL     1      -0.653  -0.113  24.869  0.00  0.00    +0.072 C 
BRANCH   4   2
ATOM      1  C   UNL     1      -0.552  -1.452  25.360  0.00  0.00    +0.001 C 
ATOM      2  C   UNL     1      -0.968  -0.871  24.947  0.00  0.00    +0.016 C 
ATOM      3  C   UNL     1      -1.702  -1.050  24.613  0.00  0.00    +0.001 C 
ENDBRANCH   4   2
ENDBRANCH   5   4
ENDBRANCH  10   9
ENDBRANCH  15  12
TORSDOF 6
ENDMDL
MODEL 5
REMARK VINA RESULT:     -10.6      2.022      4.957
REMARK  Name = 
REMARK  6 active torsions:
REMARK  status: ('A' for Active; 'I' for Inactive)
REMARK    1  A    between atoms: C_2  and  C_4
REMARK    2  A    between atoms: C_4  and  N_5
REMARK    3  A    between atoms: C_9  and  C_10
REMARK    4  A    between atoms: C_12  and  C_15
REMARK    5  A    between atoms: C_19  and  N_21
REMARK    6  A    between atoms: C_24  and  C_27
REMARK                            x       y       z     vdW  Elec       q    Type
REMARK                         _______ _______ _______ _____ _____    ______ ____
ROOT
ATOM     15  C   UNL     1      -1.368   1.946  24.424  0.00  0.00    +0.043 A 
ATOM     16  C   UNL     1      -0.796   2.539  24.363  0.00  0.00    +0.024 A 
ATOM     17  C   UNL     1      -0.999   3.324  24.508  0.00  0.00    +0.100 A 
ATOM     18  N   UNL     1      -1.774   3.519  24.714  0.00  0.00    -0.229 NA
ATOM     19  C   UNL     1      -2.346   2.927  24.775  0.00  0.00    +0.132 A 
ATOM     20  C   UNL     1      -2.142   2.141  24.630  0.00  0.00    +0.037 A 
ENDROOT
BRANCH  19  21
ATOM     21  N   UNL     1      -3.121   3.122  24.981  0.00  0.00    -0.293 N 
ATOM     22  C   UNL     1      -3.275   3.492  25.701  0.00  0.00    +0.093 C 
ATOM     23  C   UNL     1      -4.050   3.687  25.907  0.00  0.00    +0.031 C 
ATOM     24  C   UNL     1      -4.670   3.510  25.393  0.00  0.00    +0.083 C 
ATOM     25  C   UNL     1      -4.516   3.139  24.672  0.00  0.00    +0.031 C 
ATOM     26  C   UNL     1      -3.741   2.945  24.466  0.00  0.00    +0.093 C 
BRANCH  24  27
ATOM     27  C   UNL     1      -5.445   3.705  25.599  0.00  0.00    +0.260 C 
ATOM     28  N   UNL     1      -5.933   3.139  25.951  0.00  0.00    -0.088 NA
ATOM     29  O   UNL     1      -5.732   4.464  25.452  0.00  0.00    -0.272 OA
ENDBRANCH  24  27
ENDBRANCH  19  21
BRANCH  15  12
ATOM     10  C   UNL     1      -0.978  -0.153  24.432  0.00  0.00    +0.251 A 
ATOM     11  N   UNL     1      -1.253   0.531  24.803  0.00  0.00    -0.190 NA
ATOM     12  C   UNL     1      -1.163   1.160  24.279  0.00  0.00    +0.203 A 
ATOM     13  N   UNL     1      -0.832   0.867  23.582  0.00  0.00    -0.056 NA
ATOM     14  O   UNL     1      -0.718   0.055  23.677  0.00  0.00    -0.336 OA
BRANCH  10   9
ATOM      5  N   UNL     1      -1.610  -1.422  24.821  0.00  0.00    -0.266 NA
ATOM      6  C   UNL     1      -1.347  -2.118  25.178  0.00  0.00    +0.073 C 
ATOM      7  C   UNL     1      -0.541  -2.036  25.335  0.00  0.00    +0.019 C 
ATOM      8  C   UNL     1      -0.305  -1.290  25.074  0.00  0.00    +0.027 C 
ATOM      9  C   UNL     1      -0.965  -0.910  24.756  0.00  0.00    +0.138 C 
BRANCH   5   4
ATOM      4  C   UNL     1      -2.379  -1.266  24.572  0.00  0.00    +0.072 C 
BRANCH   4   2
ATOM      1  C   UNL     1      -3.148  -2.433  24.274  0.00  0.00    +0.001 C 
ATOM      2  C   UNL     1      -2.989  -1.788  24.763  0.00  0.00    +0.016 C 
ATOM      3  C   UNL     1      -3.440  -1.663  25.443  0.00  0.00    +0.001 C 
ENDBRANCH   4   2
ENDBRANCH   5   4
ENDBRANCH  10   9
ENDBRANCH  15  12
TORSDOF 6
ENDMDL
MODEL 6
REMARK VINA RESULT:     -10.0      2.031      5.817
REMARK  Name = 
REMARK  6 active torsions:
REMARK  status: ('A' for Active; 'I' for Inactive)
REMARK    1  A    between atoms: C_2  and  C_4
REMARK    2  A    between atoms: C_4  and  N_5
REMARK    3  A    between atoms: C_9  and  C_10
REMARK    4  A    between atoms: C_12  and  C_15
REMARK    5  A    between atoms: C_19  and  N_21
REMARK    6  A    between atoms: C_24  and  C_27
REMARK                            x       y       z     vdW  Elec       q    Type
REMARK                         _______ _______ _______ _____ _____    ______ ____
ROOT
ATOM     15  C   UNL     1      -0.349   0.542  24.409  0.00  0.00    +0.043 A 
ATOM     16  C   UNL     1       0.382   0.489  24.031  0.00  0.00    +0.024 A 
ATOM     17  C   UNL     1       0.804   1.174  23.850  0.00  0.00    +0.100 A 
ATOM     18  N   UNL     1       0.495   1.913  24.047  0.00  0.00    -0.229 NA
ATOM     19  C   UNL     1      -0.236   1.967  24.425  0.00  0.00    +0.132 A 
ATOM     20  C   UNL     1      -0.658   1.281  24.606  0.00  0.00    +0.037 A 
ENDROOT
BRANCH  19  21
ATOM     21  N   UNL     1      -0.545   2.706  24.623  0.00  0.00    -0.293 N 
ATOM     22  C   UNL     1      -1.034   3.103  24.091  0.00  0.00    +0.093 C 
ATOM     23  C   UNL     1      -1.344   3.842  24.288  0.00  0.00    +0.031 C 
ATOM     24  C   UNL     1      -1.164   4.183  25.017  0.00  0.00    +0.083 C 
ATOM     25  C   UNL     1      -0.674   3.785  25.550  0.00  0.00    +0.031 C 
ATOM     26  C   UNL     1      -0.365   3.047  25.352  0.00  0.00    +0.093 C 
BRANCH  24  27
ATOM     27  C   UNL     1      -1.473   4.922  25.215  0.00  0.00    +0.260 C 
ATOM     28  N   UNL     1      -2.177   4.974  25.643  0.00  0.00    -0.088 NA
ATOM     29  O   UNL     1      -1.079   5.609  24.984  0.00  0.00    -0.272 OA
ENDBRANCH  24  27
ENDBRANCH  19  21
BRANCH  15  12
ATOM     10  C   UNL     1      -1.704  -0.974  25.059  0.00  0.00    +0.251 A 
ATOM     11  N   UNL     1      -1.480  -0.182  25.006  0.00  0.00    -0.190 NA
ATOM     12  C   UNL     1      -0.770  -0.144  24.589  0.00  0.00    +0.203 A 
ATOM     13  N   UNL     1      -0.554  -0.913  24.383  0.00  0.00    -0.056 NA
ATOM     14  O   UNL     1      -1.131  -1.427  24.673  0.00  0.00    -0.336 OA
BRANCH  10   9
ATOM      5  N   UNL     1      -3.073  -1.511  25.055  0.00  0.00    -0.266 NA
ATOM      6  C   UNL     1      -3.603  -1.758  25.636  0.00  0.00    +0.073 C 
ATOM      7  C   UNL     1      -3.239  -1.665  26.371  0.00  0.00    +0.019 C 
ATOM      8  C   UNL     1      -2.483  -1.360  26.243  0.00  0.00    +0.027 C 
ATOM      9  C   UNL     1      -2.380  -1.265  25.430  0.00  0.00    +0.138 C 
BRANCH   5   4
ATOM      4  C   UNL     1      -3.211  -1.509  24.242  0.00  0.00    +0.072 C 
BRANCH   4   2
ATOM      1  C   UNL     1      -4.181  -2.447  23.773  0.00  0.00    +0.001 C 
ATOM      2  C   UNL     1      -3.965  -1.671  23.951  0.00  0.00    +0.016 C 
ATOM      3  C   UNL     1      -4.504  -1.055  23.837  0.00  0.00    +0.001 C 
ENDBRANCH   4   2
ENDBRANCH   5   4
ENDBRANCH  10   9
ENDBRANCH  15  12
TORSDOF 6
ENDMDL
MODEL 7
REMARK VINA RESULT:      -9.9      1.987      3.754
REMARK  Name = 
REMARK  6 active torsions:
REMARK  status: ('A' for Active; 'I' for Inactive)
REMARK    1  A    between atoms: C_2  and  C_4
REMARK    2  A    between atoms: C_4  and  N_5
REMARK    3  A    between atoms: C_9  and  C_10
REMARK    4  A    between atoms: C_12  and  C_15
REMARK    5  A    between atoms: C_19  and  N_21
REMARK    6  A    between atoms: C_24  and  C_27
REMARK                            x       y       z     vdW  Elec       q    Type
REMARK                         _______ _______ _______ _____ _____    ______ ____
ROOT
ATOM     15  C   UNL     1      -1.732   2.496  25.005  0.00  0.00    +0.043 A 
ATOM     16  C   UNL     1      -1.084   2.960  25.217  0.00  0.00    +0.024 A 
ATOM     17  C   UNL     1      -0.366   2.602  25.410  0.00  0.00    +0.100 A 
ATOM     18  N   UNL     1      -0.297   1.781  25.390  0.00  0.00    -0.229 NA
ATOM     19  C   UNL     1      -0.945   1.316  25.178  0.00  0.00    +0.132 A 
ATOM     20  C   UNL     1      -1.663   1.675  24.985  0.00  0.00    +0.037 A 
ENDROOT
BRANCH  19  21
ATOM     21  N   UNL     1      -0.875   0.495  25.158  0.00  0.00    -0.293 N 
ATOM     22  C   UNL     1      -0.519   0.127  24.512  0.00  0.00    +0.093 C 
ATOM     23  C   UNL     1      -0.450  -0.695  24.492  0.00  0.00    +0.031 C 
ATOM     24  C   UNL     1      -0.736  -1.149  25.119  0.00  0.00    +0.083 C 
ATOM     25  C   UNL     1      -1.092  -0.780  25.766  0.00  0.00    +0.031 C 
ATOM     26  C   UNL     1      -1.162   0.042  25.785  0.00  0.00    +0.093 C 
BRANCH  24  27
ATOM     27  C   UNL     1      -0.666  -1.971  25.099  0.00  0.00    +0.260 C 
ATOM     28  N   UNL     1      -1.250  -2.426  24.734  0.00  0.00    -0.088 NA
ATOM     29  O   UNL     1      -0.013  -2.337  25.445  0.00  0.00    -0.272 OA
ENDBRANCH  24  27
ENDBRANCH  19  21
BRANCH  15  12
ATOM     10  C   UNL     1      -3.690   3.341  24.898  0.00  0.00    +0.251 A 
ATOM     11  N   UNL     1      -3.092   2.959  25.318  0.00  0.00    -0.190 NA
ATOM     12  C   UNL     1      -2.450   2.855  24.812  0.00  0.00    +0.203 A 
ATOM     13  N   UNL     1      -2.650   3.173  24.077  0.00  0.00    -0.056 NA
ATOM     14  O   UNL     1      -3.417   3.474  24.130  0.00  0.00    -0.336 OA
BRANCH  10   9
ATOM      5  N   UNL     1      -5.088   3.059  25.254  0.00  0.00    -0.266 NA
ATOM      6  C   UNL     1      -5.708   3.499  25.575  0.00  0.00    +0.073 C 
ATOM      7  C   UNL     1      -5.433   4.266  25.711  0.00  0.00    +0.019 C 
ATOM      8  C   UNL     1      -4.644   4.300  25.473  0.00  0.00    +0.027 C 
ATOM      9  C   UNL     1      -4.430   3.554  25.191  0.00  0.00    +0.138 C 
BRANCH   5   4
ATOM      4  C   UNL     1      -5.120   2.266  25.035  0.00  0.00    +0.072 C 
BRANCH   4   2
ATOM      1  C   UNL     1      -6.415   1.806  24.642  0.00  0.00    +0.001 C 
ATOM      2  C   UNL     1      -5.798   1.822  25.190  0.00  0.00    +0.016 C 
ATOM      3  C   UNL     1      -5.859   1.393  25.893  0.00  0.00    +0.001 C 
ENDBRANCH   4   2
ENDBRANCH   5   4
ENDBRANCH  10   9
ENDBRANCH  15  12
TORSDOF 6
ENDMDL
MODEL 8
REMARK VINA RESULT:      -9.6      2.354      4.244
REMARK  Name = 
REMARK  6 active torsions:
REMARK  status: ('A' for Active; 'I' for Inactive)
REMARK    1  A    between atoms: C_2  and  C_4
REMARK    2  A    between atoms: C_4  and  N_5
REMARK    3  A    between atoms: C_9  and  C_10
REMARK    4  A    between atoms: C_12  and  C_15
REMARK    5  A    between atoms: C_19  and  N_21
REMARK    6  A    between atoms: C_24  and  C_27
REMARK                            x       y       z     vdW  Elec       q    Type
REMARK                         _______ _______ _______ _____ _____    ______ ____
ROOT
ATOM     15  C   UNL     1      -2.963  -0.325  25.041  0.00  0.00    +0.043 A 
ATOM     16  C   UNL     1      -2.957  -0.962  25.566  0.00  0.00    +0.024 A 
ATOM     17  C   UNL     1      -2.262  -1.386  25.693  0.00  0.00    +0.100 A 
ATOM     18  N   UNL     1      -1.571  -1.173  25.295  0.00  0.00    -0.229 NA
ATOM     19  C   UNL     1      -1.576  -0.537  24.770  0.00  0.00    +0.132 A 
ATOM     20  C   UNL     1      -2.273  -0.113  24.643  0.00  0.00    +0.037 A 
ENDROOT
BRANCH  19  21
ATOM     21  N   UNL     1      -0.885  -0.325  24.372  0.00  0.00    -0.293 N 
ATOM     22  C   UNL     1      -0.428  -0.903  24.003  0.00  0.00    +0.093 C 
ATOM     23  C   UNL     1       0.263  -0.691  23.605  0.00  0.00    +0.031 C 
ATOM     24  C   UNL     1       0.496   0.100  23.576  0.00  0.00    +0.083 C 
ATOM     25  C   UNL     1       0.037   0.679  23.945  0.00  0.00    +0.031 C 
ATOM     26  C   UNL     1      -0.653   0.467  24.343  0.00  0.00    +0.093 C 
BRANCH  24  27
ATOM     27  C   UNL     1       1.186   0.312  23.178  0.00  0.00    +0.260 C 
ATOM     28  N   UNL     1       1.473  -0.163  22.567  0.00  0.00    -0.088 NA
ATOM     29  O   UNL     1       1.590   1.000  23.391  0.00  0.00    -0.272 OA
ENDBRANCH  24  27
ENDBRANCH  19  21
BRANCH  15  12
ATOM     10  C   UNL     1      -4.622   1.019  25.012  0.00  0.00    +0.251 A 
ATOM     11  N   UNL     1      -3.892   0.782  25.313  0.00  0.00    -0.190 NA
ATOM     12  C   UNL     1      -3.660   0.098  24.915  0.00  0.00    +0.203 A 
ATOM     13  N   UNL     1      -4.248  -0.089  24.367  0.00  0.00    -0.056 NA
ATOM     14  O   UNL     1      -4.843   0.480  24.427  0.00  0.00    -0.336 OA
BRANCH  10   9
ATOM      5  N   UNL     1      -4.849   2.466  25.133  0.00  0.00    -0.266 NA
ATOM      6  C   UNL     1      -5.440   2.938  25.462  0.00  0.00    +0.073 C 
ATOM      7  C   UNL     1      -6.014   2.440  25.785  0.00  0.00    +0.019 C 
ATOM      8  C   UNL     1      -5.777   1.661  25.655  0.00  0.00    +0.027 C 
ATOM      9  C   UNL     1      -5.057   1.676  25.252  0.00  0.00    +0.138 C 
BRANCH   5   4
ATOM      4  C   UNL     1      -4.169   2.736  24.752  0.00  0.00    +0.072 C 
BRANCH   4   2
ATOM      1  C   UNL     1      -4.231   3.974  24.042  0.00  0.00    +0.001 C 
ATOM      2  C   UNL     1      -4.012   3.544  24.711  0.00  0.00    +0.016 C 
ATOM      3  C   UNL     1      -3.636   3.924  25.341  0.00  0.00    +0.001 C 
ENDBRANCH   4   2
ENDBRANCH   5   4
ENDBRANCH  10   9
ENDBRANCH  15  12
TORSDOF 6
ENDMDL
MODEL 9
REMARK VINA RESULT:      -9.3      1.810      3.872
REMARK  Name = 
REMARK  6 active torsions:
REMARK  status: ('A' for Active; 'I' for Inactive)
REMARK    1  A    between atoms: C_2  and  C_4
REMARK    2  A    between atoms: C_4  and  N_5
REMARK    3  A    between atoms: C_9  and  C_10
REMARK    4  A    between atoms: C_12  and  C_15
REMARK    5  A    between atoms: C_19  and  N_21
REMARK    6  A    between atoms: C_24  and  C_27
REMARK                            x       y       z     vdW  Elec       q    Type
REMARK                         _______ _______ _______ _____ _____    ______ ____
ROOT
ATOM     15  C   UNL     1      -3.115  -0.378  24.497  0.00  0.00    +0.043 A 
ATOM     16  C   UNL     1      -3.580  -1.017  24.261  0.00  0.00    +0.024 A 
ATOM     17  C   UNL     1      -4.401  -0.945  24.241  0.00  0.00    +0.100 A 
ATOM     18  N   UNL     1      -4.758  -0.234  24.458  0.00  0.00    -0.229 NA
ATOM     19  C   UNL     1      -4.294   0.406  24.694  0.00  0.00    +0.132 A 
ATOM     20  C   UNL     1      -3.472   0.334  24.714  0.00  0.00    +0.037 A 
ENDROOT
BRANCH  19  21
ATOM     21  N   UNL     1      -4.651   1.117  24.910  0.00  0.00    -0.293 N 
ATOM     22  C   UNL     1      -5.234   1.125  25.493  0.00  0.00    +0.093 C 
ATOM     23  C   UNL     1      -5.591   1.837  25.710  0.00  0.00    +0.031 C 
ATOM     24  C   UNL     1      -5.365   2.540  25.343  0.00  0.00    +0.083 C 
ATOM     25  C   UNL     1      -4.781   2.532  24.759  0.00  0.00    +0.031 C 
ATOM     26  C   UNL     1      -4.424   1.821  24.543  0.00  0.00    +0.093 C 
BRANCH  24  27
ATOM     27  C   UNL     1      -5.722   3.252  25.559  0.00  0.00    +0.260 C 
ATOM     28  N   UNL     1      -5.394   3.969  25.315  0.00  0.00    -0.088 NA
ATOM     29  O   UNL     1      -6.406   3.246  26.020  0.00  0.00    -0.272 OA
ENDBRANCH  24  27
ENDBRANCH  19  21
BRANCH  15  12
ATOM     10  C   UNL     1      -0.994  -0.233  24.305  0.00  0.00    +0.251 A 
ATOM     11  N   UNL     1      -1.753   0.042  24.137  0.00  0.00    -0.190 NA
ATOM     12  C   UNL     1      -2.293  -0.451  24.517  0.00  0.00    +0.203 A 
ATOM     13  N   UNL     1      -1.868  -1.031  24.921  0.00  0.00    -0.056 NA
ATOM     14  O   UNL     1      -1.065  -0.896  24.790  0.00  0.00    -0.336 OA
BRANCH  10   9
ATOM      5  N   UNL     1       0.001   0.847  24.225  0.00  0.00    -0.266 NA
ATOM      6  C   UNL     1       0.722   0.947  23.837  0.00  0.00    +0.073 C 
ATOM      7  C   UNL     1       0.879   0.259  23.409  0.00  0.00    +0.019 C 
ATOM      8  C   UNL     1       0.256  -0.266  23.532  0.00  0.00    +0.027 C 
ATOM      9  C   UNL     1      -0.287   0.097  24.037  0.00  0.00    +0.138 C 
BRANCH   5   4
ATOM      4  C   UNL     1      -0.366   1.398  24.715  0.00  0.00    +0.072 C 
BRANCH   4   2
ATOM      1  C   UNL     1      -0.043   2.728  24.303  0.00  0.00    +0.001 C 
ATOM      2  C   UNL     1      -0.004   2.124  24.864  0.00  0.00    +0.016 C 
ATOM      3  C   UNL     1       0.397   2.246  25.575  0.00  0.00    +0.001 C 
ENDBRANCH   4   2
ENDBRANCH   5   4
ENDBRANCH  10   9
ENDBRANCH  15  12
TORSDOF 6
ENDMDL
MODEL 10
REMARK VINA RESULT:      -9.1     16.063     18.751
REMARK  Name = 
REMARK  6 active torsions:
REMARK  status: ('A' for Active; 'I' for Inactive)
REMARK    1  A    between atoms: C_2  and  C_4
REMARK    2  A    between atoms: C_4  and  N_5
REMARK    3  A    between atoms: C_9  and  C_10
REMARK    4  A    between atoms: C_12  and  C_15
REMARK    5  A    between atoms: C_19  and  N_21
REMARK    6  A    between atoms: C_24  and  C_27
REMARK                            x       y       z     vdW  Elec       q    Type
REMARK                         _______ _______ _______ _____ _____    ______ ____
ROOT
ATOM     15  C   UNL     1      13.374   7.526  18.736  0.00  0.00    +0.043 A 
ATOM     16  C   UNL     1      12.976   7.476  18.015  0.00  0.00    +0.024 A 
ATOM     17  C   UNL     1      12.151   7.481  17.998  0.00  0.00    +0.100 A 
ATOM     18  N   UNL     1      11.724   7.537  18.701  0.00  0.00    -0.229 NA
ATOM     19  C   UNL     1      12.121   7.588  19.422  0.00  0.00    +0.132 A 
ATOM     20  C   UNL     1      12.947   7.582  19.440  0.00  0.00    +0.037 A 
ENDROOT
BRANCH  19  21
ATOM     21  N   UNL     1      11.694   7.644  20.126  0.00  0.00    -0.293 N 
ATOM     22  C   UNL     1      11.724   7.030  20.676  0.00  0.00    +0.093 C 
ATOM     23  C   UNL     1      11.297   7.086  21.379  0.00  0.00    +0.031 C 
ATOM     24  C   UNL     1      10.840   7.756  21.533  0.00  0.00    +0.083 C 
ATOM     25  C   UNL     1      10.811   8.370  20.982  0.00  0.00    +0.031 C 
ATOM     26  C   UNL     1      11.238   8.314  20.279  0.00  0.00    +0.093 C 
BRANCH  24  27
ATOM     27  C   UNL     1      10.413   7.812  22.236  0.00  0.00    +0.260 C 
ATOM     28  N   UNL     1      10.618   8.380  22.799  0.00  0.00    -0.088 NA
ATOM     29  O   UNL     1       9.781   7.300  22.377  0.00  0.00    -0.272 OA
ENDBRANCH  24  27
ENDBRANCH  19  21
BRANCH  15  12
ATOM     10  C   UNL     1      15.463   7.126  18.917  0.00  0.00    +0.251 A 
ATOM     11  N   UNL     1      14.675   6.891  18.988  0.00  0.00    -0.190 NA
ATOM     12  C   UNL     1      14.199   7.521  18.753  0.00  0.00    +0.203 A 
ATOM     13  N   UNL     1      14.691   8.147  18.536  0.00  0.00    -0.056 NA
ATOM     14  O   UNL     1      15.473   7.903  18.638  0.00  0.00    -0.336 OA
BRANCH  10   9
ATOM      5  N   UNL     1      16.536   6.663  19.810  0.00  0.00    -0.266 NA
ATOM      6  C   UNL     1      17.157   6.125  19.744  0.00  0.00    +0.073 C 
ATOM      7  C   UNL     1      17.130   5.795  18.987  0.00  0.00    +0.019 C 
ATOM      8  C   UNL     1      16.492   6.131  18.586  0.00  0.00    +0.027 C 
ATOM      9  C   UNL     1      16.125   6.667  19.094  0.00  0.00    +0.138 C 
BRANCH   5   4
ATOM      4  C   UNL     1      16.357   7.118  20.473  0.00  0.00    +0.072 C 
BRANCH   4   2
ATOM      1  C   UNL     1      17.405   7.609  21.313  0.00  0.00    +0.001 C 
ATOM      2  C   UNL     1      16.817   7.052  21.155  0.00  0.00    +0.016 C 
ATOM      3  C   UNL     1      16.689   6.428  21.680  0.00  0.00    +0.001 C 
ENDBRANCH   4   2
ENDBRANCH   5   4
ENDBRANCH  10   9
ENDBRANCH  15  12
TORSDOF 6
ENDMDL
