MODEL 1
REMARK VINA RESULT:     -14.8      0.000      0.000
REMARK  Name = 
REMARK  3 active torsions:
REMARK  status: ('A' for Active; 'I' for Inactive)
REMARK    1  A    between atoms: C_4  and  C_5
REMARK    2  A    between atoms: C_5  and  N_6
REMARK    3  A    between atoms: C_15  and  C_16
REMARK                            x       y       z     vdW  Elec       q    Type
REMARK                         _______ _______ _______ _____ _____    ______ ____
ROOT
ATOM      6  N   UNL     1      -4.628   0.868  25.049  0.00  0.00    -0.269 NA
ATOM      7  C   UNL     1      -5.439   0.921  25.243  0.00  0.00    +0.074 C 
ATOM      8  C   UNL     1      -5.564   1.898  25.165  0.00  0.00    +0.039 C 
ATOM      9  C   UNL     1      -5.828   2.669  25.144  0.00  0.00    +0.011 C 
ATOM     10  C   UNL     1      -5.227   2.323  25.034  0.00  0.00    +0.054 C 
ATOM     11  C   UNL     1      -5.122   1.377  25.114  0.00  0.00    +0.078 C 
ATOM     12  C   UNL     1      -4.348   2.460  24.802  0.00  0.00    +0.041 A 
ATOM     13  C   UNL     1      -3.825   3.067  24.606  0.00  0.00    +0.013 A 
ATOM     14  C   UNL     1      -3.038   2.892  24.431  0.00  0.00    +0.006 A 
ATOM     15  C   UNL     1      -2.774   2.110  24.454  0.00  0.00    +0.058 A 
ATOM     22  C   UNL     1      -3.297   1.504  24.650  0.00  0.00    +0.261 A 
ATOM     23  O   UNL     1      -3.033   0.722  24.673  0.00  0.00    -0.267 OA
ATOM     24  N   UNL     1      -4.084   1.679  24.825  0.00  0.00    -0.299 N 
ATOM     25  C   UNL     1      -4.644   2.032  24.923  0.00  0.00    +0.110 C 
ENDROOT
BRANCH  15  16
ATOM     16  C   UNL     1      -1.987   1.936  24.279  0.00  0.00    +0.024 A 
ATOM     17  C   UNL     1      -1.417   1.963  24.875  0.00  0.00    +0.003 A 
ATOM     18  C   UNL     1      -0.630   1.789  24.701  0.00  0.00    +0.021 A 
ATOM     19  C   UNL     1      -0.412   1.588  23.932  0.00  0.00    +0.099 A 
ATOM     20  N   UNL     1      -0.981   1.561  23.335  0.00  0.00    -0.242 NA
ATOM     21  C   UNL     1      -1.770   1.736  23.509  0.00  0.00    +0.099 A 
ENDBRANCH  15  16
BRANCH   6   5
ATOM      5  C   UNL     1      -3.891   0.524  24.906  0.00  0.00    +0.101 C 
BRANCH   5   4
ATOM      1  C   UNL     1      -3.183  -1.787  26.517  0.00  0.00    +0.130 C 
ATOM      2  N   UNL     1      -3.421  -1.315  25.883  0.00  0.00    -0.324 N 
ATOM      3  C   UNL     1      -3.495  -0.493  25.891  0.00  0.00    +0.073 A 
ATOM      4  C   UNL     1      -3.747  -0.253  25.143  0.00  0.00    +0.012 A 
ATOM     26  C   UNL     1      -3.829  -0.927  24.673  0.00  0.00    +0.015 A 
ATOM     27  C   UNL     1      -3.628  -1.583  25.131  0.00  0.00    +0.060 A 
ATOM     28  C   UNL     1      -3.658  -2.339  24.803  0.00  0.00    +0.017 A 
ATOM     29  C   UNL     1      -3.890  -2.439  24.018  0.00  0.00    +0.001 A 
ATOM     30  C   UNL     1      -4.092  -1.783  23.560  0.00  0.00    +0.000 A 
ATOM     31  C   UNL     1      -4.061  -1.027  23.888  0.00  0.00    +0.001 A 
ENDBRANCH   5   4
ENDBRANCH   6   5
TORSDOF 3
ENDMDL
MODEL 2
REMARK VINA RESULT:     -14.3      0.745      3.547
REMARK  Name = 
REMARK  3 active torsions:
REMARK  status: ('A' for Active; 'I' for Inactive)
REMARK    1  A    between atoms: C_4  and  C_5
REMARK    2  A    between atoms: C_5  and  N_6
REMARK    3  A    between atoms: C_15  and  C_16
REMARK                            x       y       z     vdW  Elec       q    Type
REMARK                         _______ _______ _______ _____ _____    ______ ____
ROOT
ATOM      6  N   UNL     1      -3.459   2.784  25.009  0.00  0.00    -0.269 NA
ATOM      7  C   UNL     1      -3.617   3.600  25.097  0.00  0.00    +0.074 C 
ATOM      8  C   UNL     1      -4.588   3.562  25.278  0.00  0.00    +0.039 C 
ATOM      9  C   UNL     1      -5.375   3.701  25.436  0.00  0.00    +0.011 C 
ATOM     10  C   UNL     1      -4.959   3.148  25.319  0.00  0.00    +0.054 C 
ATOM     11  C   UNL     1      -4.021   3.200  25.145  0.00  0.00    +0.078 C 
ATOM     12  C   UNL     1      -4.978   2.231  25.258  0.00  0.00    +0.041 A 
ATOM     13  C   UNL     1      -5.502   1.597  25.313  0.00  0.00    +0.013 A 
ATOM     14  C   UNL     1      -5.229   0.826  25.207  0.00  0.00    +0.006 A 
ATOM     15  C   UNL     1      -4.431   0.689  25.046  0.00  0.00    +0.058 A 
ATOM     22  C   UNL     1      -3.907   1.323  24.991  0.00  0.00    +0.261 A 
ATOM     23  O   UNL     1      -3.109   1.187  24.831  0.00  0.00    -0.267 OA
ATOM     24  N   UNL     1      -4.180   2.094  25.097  0.00  0.00    -0.299 N 
ATOM     25  C   UNL     1      -4.598   2.604  25.212  0.00  0.00    +0.110 C 
ENDROOT
BRANCH  15  16
ATOM     16  C   UNL     1      -4.159  -0.082  24.940  0.00  0.00    +0.024 A 
ATOM     17  C   UNL     1      -4.188  -0.430  24.193  0.00  0.00    +0.003 A 
ATOM     18  C   UNL     1      -3.915  -1.202  24.086  0.00  0.00    +0.021 A 
ATOM     19  C   UNL     1      -3.614  -1.625  24.727  0.00  0.00    +0.099 A 
ATOM     20  N   UNL     1      -3.584  -1.277  25.475  0.00  0.00    -0.242 NA
ATOM     21  C   UNL     1      -3.857  -0.505  25.581  0.00  0.00    +0.099 A 
ENDBRANCH  15  16
BRANCH   6   5
ATOM      5  C   UNL     1      -3.027   2.093  24.879  0.00  0.00    +0.101 C 
BRANCH   5   4
ATOM      1  C   UNL     1      -0.814   2.257  23.005  0.00  0.00    +0.130 C 
ATOM      2  N   UNL     1      -1.247   2.212  23.706  0.00  0.00    -0.324 N 
ATOM      3  C   UNL     1      -2.070   2.176  23.766  0.00  0.00    +0.073 A 
ATOM      4  C   UNL     1      -2.265   2.137  24.567  0.00  0.00    +0.012 A 
ATOM     26  C   UNL     1      -1.562   2.149  25.001  0.00  0.00    +0.015 A 
ATOM     27  C   UNL     1      -0.934   2.195  24.469  0.00  0.00    +0.060 A 
ATOM     28  C   UNL     1      -0.158   2.217  24.747  0.00  0.00    +0.017 A 
ATOM     29  C   UNL     1      -0.011   2.191  25.559  0.00  0.00    +0.001 A 
ATOM     30  C   UNL     1      -0.639   2.145  26.091  0.00  0.00    +0.000 A 
ATOM     31  C   UNL     1      -1.415   2.123  25.813  0.00  0.00    +0.001 A 
ENDBRANCH   5   4
ENDBRANCH   6   5
TORSDOF 3
ENDMDL
MODEL 3
REMARK VINA RESULT:     -14.2      1.172      2.876
REMARK  Name = 
REMARK  3 active torsions:
REMARK  status: ('A' for Active; 'I' for Inactive)
REMARK    1  A    between atoms: C_4  and  C_5
REMARK    2  A    between atoms: C_5  and  N_6
REMARK    3  A    between atoms: C_15  and  C_16
REMARK                            x       y       z     vdW  Elec       q    Type
REMARK                         _______ _______ _______ _____ _____    ______ ____
ROOT
ATOM      6  N   UNL     1      -2.870   0.996  23.622  0.00  0.00    -0.269 NA
ATOM      7  C   UNL     1      -2.247   0.958  23.067  0.00  0.00    +0.074 C 
ATOM      8  C   UNL     1      -2.325   1.859  22.669  0.00  0.00    +0.039 C 
ATOM      9  C   UNL     1      -2.258   2.552  22.246  0.00  0.00    +0.011 C 
ATOM     10  C   UNL     1      -2.664   2.294  22.757  0.00  0.00    +0.054 C 
ATOM     11  C   UNL     1      -2.576   1.419  23.131  0.00  0.00    +0.078 C 
ATOM     12  C   UNL     1      -3.374   2.517  23.296  0.00  0.00    +0.041 A 
ATOM     13  C   UNL     1      -3.891   3.141  23.449  0.00  0.00    +0.013 A 
ATOM     14  C   UNL     1      -4.473   3.063  24.028  0.00  0.00    +0.006 A 
ATOM     15  C   UNL     1      -4.538   2.359  24.455  0.00  0.00    +0.058 A 
ATOM     22  C   UNL     1      -4.021   1.735  24.302  0.00  0.00    +0.261 A 
ATOM     23  O   UNL     1      -4.086   1.032  24.729  0.00  0.00    -0.267 OA
ATOM     24  N   UNL     1      -3.439   1.814  23.723  0.00  0.00    -0.299 N 
ATOM     25  C   UNL     1      -3.066   2.084  23.237  0.00  0.00    +0.110 C 
ENDROOT
BRANCH  15  16
ATOM     16  C   UNL     1      -5.120   2.281  25.033  0.00  0.00    +0.024 A 
ATOM     17  C   UNL     1      -5.820   1.879  24.862  0.00  0.00    +0.003 A 
ATOM     18  C   UNL     1      -6.403   1.801  25.441  0.00  0.00    +0.021 A 
ATOM     19  C   UNL     1      -6.286   2.124  26.190  0.00  0.00    +0.099 A 
ATOM     20  N   UNL     1      -5.586   2.527  26.362  0.00  0.00    -0.242 NA
ATOM     21  C   UNL     1      -5.003   2.605  25.783  0.00  0.00    +0.099 A 
ENDBRANCH  15  16
BRANCH   6   5
ATOM      5  C   UNL     1      -3.382   0.753  24.222  0.00  0.00    +0.101 C 
BRANCH   5   4
ATOM      1  C   UNL     1      -2.293  -1.083  26.192  0.00  0.00    +0.130 C 
ATOM      2  N   UNL     1      -2.720  -0.777  25.555  0.00  0.00    -0.324 N 
ATOM      3  C   UNL     1      -2.718   0.008  25.302  0.00  0.00    +0.073 A 
ATOM      4  C   UNL     1      -3.220   0.067  24.650  0.00  0.00    +0.012 A 
ATOM     26  C   UNL     1      -3.531  -0.684  24.500  0.00  0.00    +0.015 A 
ATOM     27  C   UNL     1      -3.222  -1.205  25.060  0.00  0.00    +0.060 A 
ATOM     28  C   UNL     1      -3.437  -2.001  25.046  0.00  0.00    +0.017 A 
ATOM     29  C   UNL     1      -3.962  -2.275  24.471  0.00  0.00    +0.001 A 
ATOM     30  C   UNL     1      -4.272  -1.755  23.912  0.00  0.00    +0.000 A 
ATOM     31  C   UNL     1      -4.056  -0.958  23.926  0.00  0.00    +0.001 A 
ENDBRANCH   5   4
ENDBRANCH   6   5
TORSDOF 3
ENDMDL
MODEL 4
REMARK VINA RESULT:     -14.2      1.170      3.800
REMARK  Name = 
REMARK  3 active torsions:
REMARK  status: ('A' for Active; 'I' for Inactive)
REMARK    1  A    between atoms: C_4  and  C_5
REMARK    2  A    between atoms: C_5  and  N_6
REMARK    3  A    between atoms: C_15  and  C_16
REMARK                            x       y       z     vdW  Elec       q    Type
REMARK                         _______ _______ _______ _____ _____    ______ ____
ROOT
ATOM      6  N   UNL     1      -2.164  -0.065  25.204  0.00  0.00    -0.269 NA
ATOM      7  C   UNL     1      -1.960  -0.843  25.430  0.00  0.00    +0.074 C 
ATOM      8  C   UNL     1      -2.862  -1.244  25.473  0.00  0.00    +0.039 C 
ATOM      9  C   UNL     1      -3.521  -1.716  25.553  0.00  0.00    +0.011 C 
ATOM     10  C   UNL     1      -3.377  -1.050  25.383  0.00  0.00    +0.054 C 
ATOM     11  C   UNL     1      -2.499  -0.677  25.346  0.00  0.00    +0.078 C 
ATOM     12  C   UNL     1      -3.786  -0.264  25.140  0.00  0.00    +0.041 A 
ATOM     13  C   UNL     1      -4.535   0.052  25.000  0.00  0.00    +0.013 A 
ATOM     14  C   UNL     1      -4.614   0.843  24.780  0.00  0.00    +0.006 A 
ATOM     15  C   UNL     1      -3.944   1.318  24.700  0.00  0.00    +0.058 A 
ATOM     22  C   UNL     1      -3.195   1.002  24.840  0.00  0.00    +0.261 A 
ATOM     23  O   UNL     1      -2.525   1.477  24.760  0.00  0.00    -0.267 OA
ATOM     24  N   UNL     1      -3.116   0.211  25.060  0.00  0.00    -0.299 N 
ATOM     25  C   UNL     1      -3.280  -0.418  25.219  0.00  0.00    +0.110 C 
ENDROOT
BRANCH  15  16
ATOM     16  C   UNL     1      -4.024   2.109  24.479  0.00  0.00    +0.024 A 
ATOM     17  C   UNL     1      -4.189   2.681  25.050  0.00  0.00    +0.003 A 
ATOM     18  C   UNL     1      -4.269   3.472  24.831  0.00  0.00    +0.021 A 
ATOM     19  C   UNL     1      -4.184   3.691  24.040  0.00  0.00    +0.099 A 
ATOM     20  N   UNL     1      -4.018   3.120  23.469  0.00  0.00    -0.242 NA
ATOM     21  C   UNL     1      -3.938   2.328  23.689  0.00  0.00    +0.099 A 
ENDBRANCH  15  16
BRANCH   6   5
ATOM      5  C   UNL     1      -2.064   0.728  24.997  0.00  0.00    +0.101 C 
BRANCH   5   4
ATOM      1  C   UNL     1       0.443   1.225  23.616  0.00  0.00    +0.130 C 
ATOM      2  N   UNL     1      -0.160   1.243  24.180  0.00  0.00    -0.324 N 
ATOM      3  C   UNL     1      -0.878   0.839  24.134  0.00  0.00    +0.073 A 
ATOM      4  C   UNL     1      -1.312   1.014  24.814  0.00  0.00    +0.012 A 
ATOM     26  C   UNL     1      -0.862   1.527  25.279  0.00  0.00    +0.015 A 
ATOM     27  C   UNL     1      -0.150   1.668  24.886  0.00  0.00    +0.060 A 
ATOM     28  C   UNL     1       0.415   2.165  25.224  0.00  0.00    +0.017 A 
ATOM     29  C   UNL     1       0.268   2.521  25.953  0.00  0.00    +0.001 A 
ATOM     30  C   UNL     1      -0.443   2.380  26.346  0.00  0.00    +0.000 A 
ATOM     31  C   UNL     1      -1.009   1.883  26.008  0.00  0.00    +0.001 A 
ENDBRANCH   5   4
ENDBRANCH   6   5
TORSDOF 3
ENDMDL
MODEL 5
REMARK VINA RESULT:     -14.0      1.198      3.350
REMARK  Name = 
REMARK  3 active torsions:
REMARK  status: ('A' for Active; 'I' for Inactive)
REMARK    1  A    between atoms: C_4  and  C_5
REMARK    2  A    between atoms: C_5  and  N_6
REMARK    3  A    between atoms: C_15  and  C_16
REMARK                            x       y       z     vdW  Elec       q    Type
REMARK                         _______ _______ _______ _____ _____    ______ ____
ROOT
ATOM      6  N   UNL     1      -3.710  -0.049  24.488  0.00  0.00    -0.269 NA
ATOM      7  C   UNL     1      -4.330  -0.591  24.349  0.00  0.00    +0.074 C 
ATOM      8  C   UNL     1      -3.833  -1.440  24.441  0.00  0.00    +0.039 C 
ATOM      9  C   UNL     1      -3.574  -2.211  24.485  0.00  0.00    +0.011 C 
ATOM     10  C   UNL     1      -3.302  -1.568  24.552  0.00  0.00    +0.054 C 
ATOM     11  C   UNL     1      -3.796  -0.756  24.459  0.00  0.00    +0.078 C 
ATOM     12  C   UNL     1      -2.510  -1.134  24.726  0.00  0.00    +0.041 A 
ATOM     13  C   UNL     1      -1.717  -1.291  24.891  0.00  0.00    +0.013 A 
ATOM     14  C   UNL     1      -1.191  -0.668  25.012  0.00  0.00    +0.006 A 
ATOM     15  C   UNL     1      -1.457   0.112  24.967  0.00  0.00    +0.058 A 
ATOM     22  C   UNL     1      -2.249   0.269  24.801  0.00  0.00    +0.261 A 
ATOM     23  O   UNL     1      -2.515   1.049  24.756  0.00  0.00    -0.267 OA
ATOM     24  N   UNL     1      -2.776  -0.355  24.681  0.00  0.00    -0.299 N 
ATOM     25  C   UNL     1      -3.011  -0.979  24.622  0.00  0.00    +0.110 C 
ENDROOT
BRANCH  15  16
ATOM     16  C   UNL     1      -0.929   0.735  25.087  0.00  0.00    +0.024 A 
ATOM     17  C   UNL     1      -0.874   1.090  25.830  0.00  0.00    +0.003 A 
ATOM     18  C   UNL     1      -0.347   1.712  25.952  0.00  0.00    +0.021 A 
ATOM     19  C   UNL     1       0.125   1.980  25.330  0.00  0.00    +0.099 A 
ATOM     20  N   UNL     1       0.070   1.626  24.587  0.00  0.00    -0.242 NA
ATOM     21  C   UNL     1      -0.458   1.003  24.466  0.00  0.00    +0.099 A 
ENDBRANCH  15  16
BRANCH   6   5
ATOM      5  C   UNL     1      -3.328   0.677  24.579  0.00  0.00    +0.101 C 
BRANCH   5   4
ATOM      1  C   UNL     1      -5.107   2.715  25.636  0.00  0.00    +0.130 C 
ATOM      2  N   UNL     1      -4.588   2.305  25.142  0.00  0.00    -0.324 N 
ATOM      3  C   UNL     1      -4.252   1.567  25.296  0.00  0.00    +0.073 A 
ATOM      4  C   UNL     1      -3.770   1.368  24.656  0.00  0.00    +0.012 A 
ATOM     26  C   UNL     1      -3.809   1.984  24.107  0.00  0.00    +0.015 A 
ATOM     27  C   UNL     1      -4.314   2.562  24.407  0.00  0.00    +0.060 A 
ATOM     28  C   UNL     1      -4.460   3.248  23.973  0.00  0.00    +0.017 A 
ATOM     29  C   UNL     1      -4.100   3.355  23.239  0.00  0.00    +0.001 A 
ATOM     30  C   UNL     1      -3.595   2.777  22.938  0.00  0.00    +0.000 A 
ATOM     31  C   UNL     1      -3.449   2.091  23.372  0.00  0.00    +0.001 A 
ENDBRANCH   5   4
ENDBRANCH   6   5
TORSDOF 3
ENDMDL
