MODEL 1
REMARK VINA RESULT:      -9.2      0.000      0.000
REMARK  Name = 
REMARK  3 active torsions:
REMARK  status: ('A' for Active; 'I' for Inactive)
REMARK    1  A    between atoms: C_2  and  N_3
REMARK    2  A    between atoms: N_6  and  C_7
REMARK    3  A    between atoms: C_13  and  N_16
REMARK                            x       y       z     vdW  Elec       q    Type
REMARK                         _______ _______ _______ _____ _____    ______ ____
ROOT
ATOM      7  C   UNL     1      -4.254   0.708  24.425  0.00  0.00    +0.158 C 
ATOM      8  C   UNL     1      -4.799   1.288  24.905  0.00  0.00    +0.170 C 
ATOM      9  C   UNL     1      -4.527   2.012  24.979  0.00  0.00    +0.176 C 
ATOM     10  O   UNL     1      -4.651   2.673  25.252  0.00  0.00    -0.327 OA
ATOM     11  C   UNL     1      -4.806   1.823  25.075  0.00  0.00    +0.253 C 
ATOM     12  O   UNL     1      -5.420   1.302  25.252  0.00  0.00    -0.327 OA
ATOM     13  C   UNL     1      -4.226   1.229  24.571  0.00  0.00    +0.147 C 
ATOM     14  C   UNL     1      -3.638   1.233  24.247  0.00  0.00    +0.194 C 
ATOM     15  O   UNL     1      -2.926   1.514  23.941  0.00  0.00    -0.220 OA
ENDROOT
BRANCH  13  16
ATOM     16  N   UNL     1      -3.887   1.979  24.616  0.00  0.00    -0.265 NA
ATOM     17  C   UNL     1      -4.053   2.543  24.036  0.00  0.00    +0.090 C 
ATOM     18  C   UNL     1      -3.713   3.293  24.081  0.00  0.00    +0.090 C 
ATOM     19  N   UNL     1      -3.208   3.480  24.706  0.00  0.00    -0.269 NA
ATOM     20  C   UNL     1      -2.867   4.231  24.751  0.00  0.00    +0.090 C 
ATOM     21  C   UNL     1      -3.041   2.917  25.285  0.00  0.00    +0.090 C 
ATOM     22  C   UNL     1      -3.381   2.167  25.240  0.00  0.00    +0.090 C 
ENDBRANCH  13  16
BRANCH   7   6
ATOM      3  N   UNL     1      -4.003  -1.461  24.424  0.00  0.00    -0.187 NA
ATOM      4  C   UNL     1      -3.903  -0.665  24.616  0.00  0.00    +0.339 C 
ATOM      5  O   UNL     1      -3.353  -0.443  25.191  0.00  0.00    -0.249 OA
ATOM      6  N   UNL     1      -4.354  -0.089  24.233  0.00  0.00    -0.184 NA
BRANCH   3   2
ATOM      1  C   UNL     1      -3.567  -2.817  24.540  0.00  0.00    +0.025 C 
ATOM      2  C   UNL     1      -3.552  -2.036  24.807  0.00  0.00    +0.117 C 
ENDBRANCH   3   2
ENDBRANCH   7   6
TORSDOF 3
ENDMDL
MODEL 2
REMARK VINA RESULT:      -9.0      0.912      3.585
REMARK  Name = 
REMARK  3 active torsions:
REMARK  status: ('A' for Active; 'I' for Inactive)
REMARK    1  A    between atoms: C_2  and  N_3
REMARK    2  A    between atoms: N_6  and  C_7
REMARK    3  A    between atoms: C_13  and  N_16
REMARK                            x       y       z     vdW  Elec       q    Type
REMARK                         _______ _______ _______ _____ _____    ______ ____
ROOT
ATOM      7  C   UNL     1      -3.455   1.648  24.526  0.00  0.00    +0.158 C 
ATOM      8  C   UNL     1      -4.250   1.311  24.869  0.00  0.00    +0.170 C 
ATOM      9  C   UNL     1      -4.292   0.535  24.906  0.00  0.00    +0.176 C 
ATOM     10  O   UNL     1      -4.702  -0.034  25.093  0.00  0.00    -0.327 OA
ATOM     11  C   UNL     1      -4.489   0.815  24.982  0.00  0.00    +0.253 C 
ATOM     12  O   UNL     1      -4.876   1.529  25.127  0.00  0.00    -0.327 OA
ATOM     13  C   UNL     1      -3.653   1.153  24.621  0.00  0.00    +0.147 C 
ATOM     14  C   UNL     1      -3.067   0.930  24.380  0.00  0.00    +0.194 C 
ATOM     15  O   UNL     1      -2.478   0.403  24.145  0.00  0.00    -0.220 OA
ENDROOT
BRANCH  13  16
ATOM     16  N   UNL     1      -3.639   0.328  24.636  0.00  0.00    -0.265 NA
ATOM     17  C   UNL     1      -3.881  -0.101  23.974  0.00  0.00    +0.090 C 
ATOM     18  C   UNL     1      -3.867  -0.926  23.988  0.00  0.00    +0.090 C 
ATOM     19  N   UNL     1      -3.611  -1.321  24.665  0.00  0.00    -0.269 NA
ATOM     20  C   UNL     1      -3.597  -2.146  24.681  0.00  0.00    +0.090 C 
ATOM     21  C   UNL     1      -3.369  -0.893  25.327  0.00  0.00    +0.090 C 
ATOM     22  C   UNL     1      -3.383  -0.069  25.312  0.00  0.00    +0.090 C 
ENDBRANCH  13  16
BRANCH   7   6
ATOM      3  N   UNL     1      -2.388   3.537  24.770  0.00  0.00    -0.187 NA
ATOM      4  C   UNL     1      -2.634   2.760  24.892  0.00  0.00    +0.339 C 
ATOM      5  O   UNL     1      -2.305   2.314  25.505  0.00  0.00    -0.249 OA
ATOM      6  N   UNL     1      -3.209   2.427  24.403  0.00  0.00    -0.184 NA
BRANCH   3   2
ATOM      1  C   UNL     1      -1.595   4.660  25.161  0.00  0.00    +0.025 C 
ATOM      2  C   UNL     1      -1.814   3.870  25.259  0.00  0.00    +0.117 C 
ENDBRANCH   3   2
ENDBRANCH   7   6
TORSDOF 3
ENDMDL
MODEL 3
REMARK VINA RESULT:      -8.7      2.071      2.627
REMARK  Name = 
REMARK  3 active torsions:
REMARK  status: ('A' for Active; 'I' for Inactive)
REMARK    1  A    between atoms: C_2  and  N_3
REMARK    2  A    between atoms: N_6  and  C_7
REMARK    3  A    between atoms: C_13  and  N_16
REMARK                            x       y       z     vdW  Elec       q    Type
REMARK                         _______ _______ _______ _____ _____    ______ ____
ROOT
ATOM      7  C   UNL     1      -2.126   2.110  23.882  0.00  0.00    +0.158 C 
ATOM      8  C   UNL     1      -2.842   2.276  23.313  0.00  0.00    +0.170 C 
ATOM      9  C   UNL     1      -3.489   2.533  23.660  0.00  0.00    +0.176 C 
ATOM     10  O   UNL     1      -4.175   2.748  23.564  0.00  0.00    -0.327 OA
ATOM     11  C   UNL     1      -3.374   2.455  23.338  0.00  0.00    +0.253 C 
ATOM     12  O   UNL     1      -3.018   2.249  22.623  0.00  0.00    -0.327 OA
ATOM     13  C   UNL     1      -2.635   2.286  23.945  0.00  0.00    +0.147 C 
ATOM     14  C   UNL     1      -2.486   2.317  24.599  0.00  0.00    +0.194 C 
ATOM     15  O   UNL     1      -2.579   2.448  25.408  0.00  0.00    -0.220 OA
ENDROOT
BRANCH  13  16
ATOM     16  N   UNL     1      -3.289   2.555  24.369  0.00  0.00    -0.265 NA
ATOM     17  C   UNL     1      -3.377   3.360  24.526  0.00  0.00    +0.090 C 
ATOM     18  C   UNL     1      -4.032   3.629  24.950  0.00  0.00    +0.090 C 
ATOM     19  N   UNL     1      -4.599   3.092  25.217  0.00  0.00    -0.269 NA
ATOM     20  C   UNL     1      -5.254   3.360  25.642  0.00  0.00    +0.090 C 
ATOM     21  C   UNL     1      -4.511   2.287  25.061  0.00  0.00    +0.090 C 
ATOM     22  C   UNL     1      -3.857   2.019  24.637  0.00  0.00    +0.090 C 
ENDBRANCH  13  16
BRANCH   7   6
ATOM      3  N   UNL     1      -0.399   0.784  23.730  0.00  0.00    -0.187 NA
ATOM      4  C   UNL     1      -1.160   1.056  23.890  0.00  0.00    +0.339 C 
ATOM      5  O   UNL     1      -1.721   0.546  24.219  0.00  0.00    -0.249 OA
ATOM      6  N   UNL     1      -1.363   1.838  23.721  0.00  0.00    -0.184 NA
BRANCH   3   2
ATOM      1  C   UNL     1       0.481  -0.330  23.563  0.00  0.00    +0.025 C 
ATOM      2  C   UNL     1      -0.196   0.003  23.898  0.00  0.00    +0.117 C 
ENDBRANCH   3   2
ENDBRANCH   7   6
TORSDOF 3
ENDMDL
