MODEL 1
REMARK VINA RESULT:     -11.5      0.000      0.000
REMARK  Name = 
REMARK  6 active torsions:
REMARK  status: ('A' for Active; 'I' for Inactive)
REMARK    1  A    between atoms: C_5  and  S_8
REMARK    2  A    between atoms: S_8  and  N_11
REMARK    3  A    between atoms: N_11  and  C_12
REMARK    4  A    between atoms: C_12  and  C_13
REMARK    5  A    between atoms: C_20  and  C_21
REMARK    6  A    between atoms: C_21  and  N_22
REMARK                            x       y       z     vdW  Elec       q    Type
REMARK                         _______ _______ _______ _____ _____    ______ ____
ROOT
ATOM     13  C   UNL     1      -3.972   1.888  24.726  0.00  0.00    +0.077 C 
ATOM     14  C   UNL     1      -4.329   2.524  24.998  0.00  0.00    +0.018 C 
ATOM     15  C   UNL     1      -3.960   3.195  25.261  0.00  0.00    +0.005 C 
ATOM     16  C   UNL     1      -4.548   3.814  25.534  0.00  0.00    +0.017 C 
ATOM     17  C   UNL     1      -4.361   3.237  25.291  0.00  0.00    +0.072 C 
ATOM     18  N   UNL     1      -3.604   2.575  24.996  0.00  0.00    -0.272 NA
ATOM     19  C   UNL     1      -2.724   2.810  25.065  0.00  0.00    +0.073 C 
ATOM     20  C   UNL     1      -3.112   3.414  25.325  0.00  0.00    +0.032 C 
ENDROOT
BRANCH  13  12
ATOM     12  C   UNL     1      -3.967   1.125  24.413  0.00  0.00    +0.131 C 
BRANCH  12  11
ATOM     11  N   UNL     1      -4.432   0.535  24.754  0.00  0.00    -0.076 NA
BRANCH  11   8
ATOM      8  S   UNL     1      -4.214  -0.257  24.678  0.00  0.00    +0.077 S 
ATOM      9  O   UNL     1      -4.077  -0.143  23.873  0.00  0.00    -0.152 OA
ATOM     10  O   UNL     1      -4.351  -0.371  25.483  0.00  0.00    -0.152 OA
BRANCH   8   5
ATOM      1  C   UNL     1      -3.344  -3.426  24.377  0.00  0.00    +0.031 C 
ATOM      2  C   UNL     1      -3.562  -2.633  24.452  0.00  0.00    -0.022 A 
ATOM      3  C   UNL     1      -4.100  -2.302  23.923  0.00  0.00    -0.003 A 
ATOM      4  C   UNL     1      -4.318  -1.509  23.998  0.00  0.00    +0.020 A 
ATOM      5  C   UNL     1      -3.997  -1.049  24.602  0.00  0.00    +0.124 A 
ATOM      6  C   UNL     1      -3.458  -1.381  25.132  0.00  0.00    +0.020 A 
ATOM      7  C   UNL     1      -3.240  -2.173  25.056  0.00  0.00    -0.003 A 
ENDBRANCH   8   5
ENDBRANCH  11   8
ENDBRANCH  12  11
ENDBRANCH  13  12
BRANCH  20  21
ATOM     21  C   UNL     1      -2.800   4.124  25.606  0.00  0.00    +0.074 C 
BRANCH  21  22
ATOM     22  N   UNL     1      -2.028   4.339  25.413  0.00  0.00    -0.268 NA
ATOM     23  C   UNL     1      -1.883   5.059  25.036  0.00  0.00    +0.105 C 
ATOM     24  C   UNL     1      -1.110   5.275  24.843  0.00  0.00    +0.159 C 
ATOM     25  O   UNL     1      -0.483   4.772  25.026  0.00  0.00    -0.351 OA
ATOM     26  C   UNL     1      -0.627   4.052  25.403  0.00  0.00    +0.159 C 
ATOM     27  C   UNL     1      -1.400   3.836  25.596  0.00  0.00    +0.105 C 
ENDBRANCH  21  22
ENDBRANCH  20  21
TORSDOF 6
ENDMDL
MODEL 2
REMARK VINA RESULT:     -10.3      1.676      2.326
REMARK  Name = 
REMARK  6 active torsions:
REMARK  status: ('A' for Active; 'I' for Inactive)
REMARK    1  A    between atoms: C_5  and  S_8
REMARK    2  A    between atoms: S_8  and  N_11
REMARK    3  A    between atoms: N_11  and  C_12
REMARK    4  A    between atoms: C_12  and  C_13
REMARK    5  A    between atoms: C_20  and  C_21
REMARK    6  A    between atoms: C_21  and  N_22
REMARK                            x       y       z     vdW  Elec       q    Type
REMARK                         _______ _______ _______ _____ _____    ______ ____
ROOT
ATOM     13  C   UNL     1      -1.228   1.046  25.265  0.00  0.00    +0.077 C 
ATOM     14  C   UNL     1      -0.664   1.324  25.724  0.00  0.00    +0.018 C 
ATOM     15  C   UNL     1      -0.523   2.107  25.876  0.00  0.00    +0.005 C 
ATOM     16  C   UNL     1       0.173   2.219  26.431  0.00  0.00    +0.017 C 
ATOM     17  C   UNL     1      -0.256   1.878  26.075  0.00  0.00    +0.072 C 
ATOM     18  N   UNL     1      -1.078   1.841  25.425  0.00  0.00    -0.272 NA
ATOM     19  C   UNL     1      -1.486   2.608  25.144  0.00  0.00    +0.073 C 
ATOM     20  C   UNL     1      -0.921   2.840  25.602  0.00  0.00    +0.032 C 
ENDROOT
BRANCH  13  12
ATOM     12  C   UNL     1      -1.647   0.435  24.903  0.00  0.00    +0.131 C 
BRANCH  12  11
ATOM     11  N   UNL     1      -1.896  -0.214  25.347  0.00  0.00    -0.076 NA
BRANCH  11   8
ATOM      8  S   UNL     1      -2.427  -0.756  25.022  0.00  0.00    +0.077 S 
ATOM      9  O   UNL     1      -1.905  -0.896  24.399  0.00  0.00    -0.152 OA
ATOM     10  O   UNL     1      -2.949  -0.617  25.645  0.00  0.00    -0.152 OA
BRANCH   8   5
ATOM      1  C   UNL     1      -4.553  -2.921  23.724  0.00  0.00    +0.031 C 
ATOM      2  C   UNL     1      -4.021  -2.380  24.049  0.00  0.00    -0.022 A 
ATOM      3  C   UNL     1      -3.372  -2.648  24.482  0.00  0.00    -0.003 A 
ATOM      4  C   UNL     1      -2.840  -2.107  24.806  0.00  0.00    +0.020 A 
ATOM      5  C   UNL     1      -2.958  -1.298  24.698  0.00  0.00    +0.124 A 
ATOM      6  C   UNL     1      -3.607  -1.029  24.265  0.00  0.00    +0.020 A 
ATOM      7  C   UNL     1      -4.138  -1.571  23.941  0.00  0.00    -0.003 A 
ENDBRANCH   8   5
ENDBRANCH  11   8
ENDBRANCH  12  11
ENDBRANCH  13  12
BRANCH  20  21
ATOM     21  C   UNL     1      -0.724   3.617  25.798  0.00  0.00    +0.074 C 
BRANCH  21  22
ATOM     22  N   UNL     1      -1.137   4.244  25.458  0.00  0.00    -0.268 NA
ATOM     23  C   UNL     1      -0.779   4.707  24.875  0.00  0.00    +0.105 C 
ATOM     24  C   UNL     1      -1.192   5.334  24.535  0.00  0.00    +0.159 C 
ATOM     25  O   UNL     1      -1.963   5.500  24.777  0.00  0.00    -0.351 OA
ATOM     26  C   UNL     1      -2.322   5.039  25.359  0.00  0.00    +0.159 C 
ATOM     27  C   UNL     1      -1.908   4.411  25.699  0.00  0.00    +0.105 C 
ENDBRANCH  21  22
ENDBRANCH  20  21
TORSDOF 6
ENDMDL
MODEL 3
REMARK VINA RESULT:     -10.2      2.121      6.106
REMARK  Name = 
REMARK  6 active torsions:
REMARK  status: ('A' for Active; 'I' for Inactive)
REMARK    1  A    between atoms: C_5  and  S_8
REMARK    2  A    between atoms: S_8  and  N_11
REMARK    3  A    between atoms: N_11  and  C_12
REMARK    4  A    between atoms: C_12  and  C_13
REMARK    5  A    between atoms: C_20  and  C_21
REMARK    6  A    between atoms: C_21  and  N_22
REMARK                            x       y       z     vdW  Elec       q    Type
REMARK                         _______ _______ _______ _____ _____    ______ ____
ROOT
ATOM     13  C   UNL     1      -1.179   0.513  25.249  0.00  0.00    +0.077 C 
ATOM     14  C   UNL     1      -0.723  -0.112  25.161  0.00  0.00    +0.018 C 
ATOM     15  C   UNL     1      -0.974  -0.853  24.954  0.00  0.00    +0.005 C 
ATOM     16  C   UNL     1      -0.292  -1.434  24.905  0.00  0.00    +0.017 C 
ATOM     17  C   UNL     1      -0.572  -0.853  25.006  0.00  0.00    +0.072 C 
ATOM     18  N   UNL     1      -1.427  -0.246  25.039  0.00  0.00    -0.272 NA
ATOM     19  C   UNL     1      -2.252  -0.589  24.853  0.00  0.00    +0.073 C 
ATOM     20  C   UNL     1      -1.770  -1.176  24.776  0.00  0.00    +0.032 C 
ENDROOT
BRANCH  13  12
ATOM     12  C   UNL     1      -1.311   1.309  25.419  0.00  0.00    +0.131 C 
BRANCH  12  11
ATOM     11  N   UNL     1      -0.732   1.870  25.246  0.00  0.00    -0.076 NA
BRANCH  11   8
ATOM      8  S   UNL     1      -0.929   2.671  25.221  0.00  0.00    +0.077 S 
ATOM      9  O   UNL     1      -0.924   2.647  24.396  0.00  0.00    -0.152 OA
ATOM     10  O   UNL     1      -0.934   2.695  26.045  0.00  0.00    -0.152 OA
BRANCH   8   5
ATOM      1  C   UNL     1      -1.714   5.874  25.121  0.00  0.00    +0.031 C 
ATOM      2  C   UNL     1      -1.518   5.073  25.146  0.00  0.00    -0.022 A 
ATOM      3  C   UNL     1      -2.050   4.528  25.462  0.00  0.00    -0.003 A 
ATOM      4  C   UNL     1      -1.854   3.727  25.487  0.00  0.00    +0.020 A 
ATOM      5  C   UNL     1      -1.125   3.471  25.196  0.00  0.00    +0.124 A 
ATOM      6  C   UNL     1      -0.593   4.017  24.880  0.00  0.00    +0.020 A 
ATOM      7  C   UNL     1      -0.789   4.818  24.855  0.00  0.00    -0.003 A 
ENDBRANCH   8   5
ENDBRANCH  11   8
ENDBRANCH  12  11
ENDBRANCH  13  12
BRANCH  20  21
ATOM     21  C   UNL     1      -1.959  -1.953  24.570  0.00  0.00    +0.074 C 
BRANCH  21  22
ATOM     22  N   UNL     1      -2.748  -2.176  24.484  0.00  0.00    -0.268 NA
ATOM     23  C   UNL     1      -3.095  -2.684  25.034  0.00  0.00    +0.105 C 
ATOM     24  C   UNL     1      -3.884  -2.907  24.949  0.00  0.00    +0.159 C 
ATOM     25  O   UNL     1      -4.327  -2.623  24.313  0.00  0.00    -0.351 OA
ATOM     26  C   UNL     1      -3.981  -2.115  23.763  0.00  0.00    +0.159 C 
ATOM     27  C   UNL     1      -3.191  -1.892  23.849  0.00  0.00    +0.105 C 
ENDBRANCH  21  22
ENDBRANCH  20  21
TORSDOF 6
ENDMDL
MODEL 4
REMARK VINA RESULT:      -9.9      1.548      5.602
REMARK  Name = 
REMARK  6 active torsions:
REMARK  status: ('A' for Active; 'I' for Inactive)
REMARK    1  A    between atoms: C_5  and  S_8
REMARK    2  A    between atoms: S_8  and  N_11
REMARK    3  A    between atoms: N_11  and  C_12
REMARK    4  A    between atoms: C_12  and  C_13
REMARK    5  A    between atoms: C_20  and  C_21
REMARK    6  A    between atoms: C_21  and  N_22
REMARK                            x       y       z     vdW  Elec       q    Type
REMARK                         _______ _______ _______ _____ _____    ______ ____
ROOT
ATOM     13  C   UNL     1      -3.671   1.601  24.754  0.00  0.00    +0.077 C 
ATOM     14  C   UNL     1      -4.400   1.364  24.890  0.00  0.00    +0.018 C 
ATOM     15  C   UNL     1      -4.657   0.597  24.873  0.00  0.00    +0.005 C 
ATOM     16  C   UNL     1      -5.532   0.534  25.057  0.00  0.00    +0.017 C 
ATOM     17  C   UNL     1      -4.965   0.843  24.963  0.00  0.00    +0.072 C 
ATOM     18  N   UNL     1      -3.941   0.821  24.739  0.00  0.00    -0.272 NA
ATOM     19  C   UNL     1      -3.515   0.031  24.574  0.00  0.00    +0.073 C 
ATOM     20  C   UNL     1      -4.241  -0.159  24.713  0.00  0.00    +0.032 C 
ENDROOT
BRANCH  13  12
ATOM     12  C   UNL     1      -3.087   2.179  24.682  0.00  0.00    +0.131 C 
BRANCH  12  11
ATOM     11  N   UNL     1      -3.055   2.803  25.219  0.00  0.00    -0.076 NA
BRANCH  11   8
ATOM      8  S   UNL     1      -2.488   3.396  25.129  0.00  0.00    +0.077 S 
ATOM      9  O   UNL     1      -2.934   3.732  24.522  0.00  0.00    -0.152 OA
ATOM     10  O   UNL     1      -2.042   3.060  25.736  0.00  0.00    -0.152 OA
BRANCH   8   5
ATOM      1  C   UNL     1      -0.217   5.764  24.771  0.00  0.00    +0.031 C 
ATOM      2  C   UNL     1      -0.785   5.172  24.861  0.00  0.00    -0.022 A 
ATOM      3  C   UNL     1      -1.541   5.362  25.130  0.00  0.00    -0.003 A 
ATOM      4  C   UNL     1      -2.109   4.771  25.220  0.00  0.00    +0.020 A 
ATOM      5  C   UNL     1      -1.920   3.988  25.040  0.00  0.00    +0.124 A 
ATOM      6  C   UNL     1      -1.164   3.797  24.770  0.00  0.00    +0.020 A 
ATOM      7  C   UNL     1      -0.597   4.389  24.681  0.00  0.00    -0.003 A 
ENDBRANCH   8   5
ENDBRANCH  11   8
ENDBRANCH  12  11
ENDBRANCH  13  12
BRANCH  20  21
ATOM     21  C   UNL     1      -4.567  -0.918  24.712  0.00  0.00    +0.074 C 
BRANCH  21  22
ATOM     22  N   UNL     1      -4.077  -1.577  24.643  0.00  0.00    -0.268 NA
ATOM     23  C   UNL     1      -4.023  -1.976  23.922  0.00  0.00    +0.105 C 
ATOM     24  C   UNL     1      -3.532  -2.636  23.853  0.00  0.00    +0.159 C 
ATOM     25  O   UNL     1      -3.095  -2.896  24.502  0.00  0.00    -0.351 OA
ATOM     26  C   UNL     1      -3.148  -2.497  25.223  0.00  0.00    +0.159 C 
ATOM     27  C   UNL     1      -3.639  -1.837  25.292  0.00  0.00    +0.105 C 
ENDBRANCH  21  22
ENDBRANCH  20  21
TORSDOF 6
ENDMDL
