MODEL 1
REMARK VINA RESULT:     -10.3      0.000      0.000
REMARK  Name = 
REMARK  3 active torsions:
REMARK  status: ('A' for Active; 'I' for Inactive)
REMARK    1  A    between atoms: C_2  and  C_3
REMARK    2  A    between atoms: C_3  and  C_4
REMARK    3  A    between atoms: C_7  and  C_9
REMARK                            x       y       z     vdW  Elec       q    Type
REMARK                         _______ _______ _______ _____ _____    ______ ____
ROOT
ATOM      4  C   UNL     1      -4.671   1.430  24.657  0.00  0.00    +0.102 A 
ATOM      5  N   UNL     1      -3.898   1.547  24.395  0.00  0.00    -0.081 NA
ATOM      6  O   UNL     1      -3.514   0.817  24.398  0.00  0.00    -0.354 OA
ATOM      7  C   UNL     1      -4.050   0.248  24.663  0.00  0.00    +0.177 A 
ATOM      8  C   UNL     1      -4.765   0.628  24.823  0.00  0.00    +0.058 A 
ENDROOT
BRANCH   7   9
ATOM      9  C   UNL     1      -3.899  -0.558  24.753  0.00  0.00    +0.040 A 
ATOM     10  C   UNL     1      -4.137  -1.090  24.169  0.00  0.00    +0.045 A 
ATOM     11  C   UNL     1      -3.985  -1.895  24.258  0.00  0.00    +0.196 A 
ATOM     12  O   UNL     1      -4.223  -2.427  23.674  0.00  0.00    -0.287 OA
ATOM     13  C   UNL     1      -3.595  -2.169  24.932  0.00  0.00    +0.042 A 
ATOM     14  C   UNL     1      -3.357  -1.637  25.516  0.00  0.00    +0.003 A 
ATOM     15  C   UNL     1      -3.509  -0.831  25.426  0.00  0.00    +0.003 A 
ENDBRANCH   7   9
BRANCH   4   3
ATOM      3  C   UNL     1      -5.248   2.014  24.739  0.00  0.00    +0.072 C 
BRANCH   3   2
ATOM      1  N   UNL     1      -4.572   2.965  24.696  0.00  0.00    -0.129 NA
ATOM      2  C   UNL     1      -5.114   2.659  25.237  0.00  0.00    +0.137 C 
ATOM     16  C   UNL     1      -4.981   3.302  25.734  0.00  0.00    +0.162 C 
ATOM     17  O   UNL     1      -5.523   2.997  26.276  0.00  0.00    -0.351 OA
ATOM     18  C   UNL     1      -5.657   2.352  25.777  0.00  0.00    +0.162 C 
ENDBRANCH   3   2
ENDBRANCH   4   3
TORSDOF 3
ENDMDL
MODEL 2
REMARK VINA RESULT:      -9.4      2.794      4.347
REMARK  Name = 
REMARK  3 active torsions:
REMARK  status: ('A' for Active; 'I' for Inactive)
REMARK    1  A    between atoms: C_2  and  C_3
REMARK    2  A    between atoms: C_3  and  C_4
REMARK    3  A    between atoms: C_7  and  C_9
REMARK                            x       y       z     vdW  Elec       q    Type
REMARK                         _______ _______ _______ _____ _____    ______ ____
ROOT
ATOM      4  C   UNL     1      -4.230   3.550  25.371  0.00  0.00    +0.102 A 
ATOM      5  N   UNL     1      -4.117   3.758  26.161  0.00  0.00    -0.081 NA
ATOM      6  O   UNL     1      -3.324   3.963  26.260  0.00  0.00    -0.354 OA
ATOM      7  C   UNL     1      -2.947   3.883  25.531  0.00  0.00    +0.177 A 
ATOM      8  C   UNL     1      -3.507   3.627  24.981  0.00  0.00    +0.058 A 
ENDROOT
BRANCH   7   9
ATOM      9  C   UNL     1      -2.150   4.031  25.378  0.00  0.00    +0.040 A 
ATOM     10  C   UNL     1      -1.597   3.421  25.440  0.00  0.00    +0.045 A 
ATOM     11  C   UNL     1      -0.801   3.570  25.286  0.00  0.00    +0.196 A 
ATOM     12  O   UNL     1      -0.248   2.960  25.348  0.00  0.00    -0.287 OA
ATOM     13  C   UNL     1      -0.556   4.328  25.071  0.00  0.00    +0.042 A 
ATOM     14  C   UNL     1      -1.109   4.937  25.009  0.00  0.00    +0.003 A 
ATOM     15  C   UNL     1      -1.906   4.789  25.162  0.00  0.00    +0.003 A 
ENDBRANCH   7   9
BRANCH   4   3
ATOM      3  C   UNL     1      -4.942   3.308  25.030  0.00  0.00    +0.072 C 
BRANCH   3   2
ATOM      1  N   UNL     1      -5.576   3.149  25.997  0.00  0.00    -0.129 NA
ATOM      2  C   UNL     1      -5.360   2.676  25.357  0.00  0.00    +0.137 C 
ATOM     16  C   UNL     1      -5.778   2.044  25.682  0.00  0.00    +0.162 C 
ATOM     17  O   UNL     1      -5.562   1.571  25.042  0.00  0.00    -0.351 OA
ATOM     18  C   UNL     1      -5.144   2.203  24.716  0.00  0.00    +0.162 C 
ENDBRANCH   3   2
ENDBRANCH   4   3
TORSDOF 3
ENDMDL
MODEL 3
REMARK VINA RESULT:      -9.3      1.265      4.167
REMARK  Name = 
REMARK  3 active torsions:
REMARK  status: ('A' for Active; 'I' for Inactive)
REMARK    1  A    between atoms: C_2  and  C_3
REMARK    2  A    between atoms: C_3  and  C_4
REMARK    3  A    between atoms: C_7  and  C_9
REMARK                            x       y       z     vdW  Elec       q    Type
REMARK                         _______ _______ _______ _____ _____    ______ ____
ROOT
ATOM      4  C   UNL     1      -3.845  -0.675  24.881  0.00  0.00    +0.102 A 
ATOM      5  N   UNL     1      -3.788  -0.484  24.081  0.00  0.00    -0.081 NA
ATOM      6  O   UNL     1      -4.075   0.282  23.980  0.00  0.00    -0.354 OA
ATOM      7  C   UNL     1      -4.309   0.566  24.718  0.00  0.00    +0.177 A 
ATOM      8  C   UNL     1      -4.167  -0.025  25.275  0.00  0.00    +0.058 A 
ENDROOT
BRANCH   7   9
ATOM      9  C   UNL     1      -4.630   1.311  24.872  0.00  0.00    +0.040 A 
ATOM     10  C   UNL     1      -4.158   1.985  24.806  0.00  0.00    +0.045 A 
ATOM     11  C   UNL     1      -4.479   2.729  24.960  0.00  0.00    +0.196 A 
ATOM     12  O   UNL     1      -4.007   3.403  24.894  0.00  0.00    -0.287 OA
ATOM     13  C   UNL     1      -5.270   2.799  25.181  0.00  0.00    +0.042 A 
ATOM     14  C   UNL     1      -5.742   2.125  25.248  0.00  0.00    +0.003 A 
ATOM     15  C   UNL     1      -5.421   1.381  25.093  0.00  0.00    +0.003 A 
ENDBRANCH   7   9
BRANCH   4   3
ATOM      3  C   UNL     1      -3.618  -1.389  25.227  0.00  0.00    +0.072 C 
BRANCH   3   2
ATOM      1  N   UNL     1      -2.462  -1.237  25.176  0.00  0.00    -0.129 NA
ATOM      2  C   UNL     1      -2.986  -1.816  24.912  0.00  0.00    +0.137 C 
ATOM     16  C   UNL     1      -2.356  -2.244  24.598  0.00  0.00    +0.162 C 
ATOM     17  O   UNL     1      -2.880  -2.824  24.333  0.00  0.00    -0.351 OA
ATOM     18  C   UNL     1      -3.512  -2.396  24.648  0.00  0.00    +0.162 C 
ENDBRANCH   3   2
ENDBRANCH   4   3
TORSDOF 3
ENDMDL
