MODEL 1
REMARK VINA RESULT:     -10.9      0.000      0.000
REMARK  Name = 
REMARK  5 active torsions:
REMARK  status: ('A' for Active; 'I' for Inactive)
REMARK    1  A    between atoms: O_2  and  C_3
REMARK    2  A    between atoms: C_6  and  C_7
REMARK    3  A    between atoms: C_7  and  N_8
REMARK    4  A    between atoms: C_13  and  C_14
REMARK    5  A    between atoms: C_16  and  C_19
REMARK                            x       y       z     vdW  Elec       q    Type
REMARK                         _______ _______ _______ _____ _____    ______ ____
ROOT
ATOM      8  N   UNL     1      -4.205   1.419  24.760  0.00  0.00    -0.260 NA
ATOM      9  C   UNL     1      -4.984   1.184  24.899  0.00  0.00    +0.106 C 
ATOM     10  C   UNL     1      -5.436   1.862  25.028  0.00  0.00    +0.170 C 
ATOM     11  O   UNL     1      -6.245   1.882  25.188  0.00  0.00    -0.222 OA
ATOM     12  C   UNL     1      -4.937   2.516  24.970  0.00  0.00    +0.060 C 
ATOM     13  C   UNL     1      -4.176   2.242  24.804  0.00  0.00    +0.140 C 
ENDROOT
BRANCH  13  14
ATOM     14  C   UNL     1      -3.504   2.710  24.701  0.00  0.00    +0.251 A 
ATOM     15  N   UNL     1      -3.028   3.014  25.302  0.00  0.00    -0.194 NA
ATOM     16  C   UNL     1      -2.420   3.448  24.950  0.00  0.00    +0.180 A 
ATOM     17  N   UNL     1      -2.520   3.411  24.133  0.00  0.00    -0.061 NA
ATOM     18  O   UNL     1      -3.190   2.955  23.979  0.00  0.00    -0.336 OA
BRANCH  16  19
ATOM     19  C   UNL     1      -1.818   3.847  25.348  0.00  0.00    +0.062 C 
ATOM     20  C   UNL     1      -1.250   3.424  25.771  0.00  0.00    +0.008 C 
ATOM     21  C   UNL     1      -1.783   4.671  25.322  0.00  0.00    +0.008 C 
ENDBRANCH  16  19
ENDBRANCH  13  14
BRANCH   8   7
ATOM      7  C   UNL     1      -3.568   0.919  24.605  0.00  0.00    +0.100 C 
BRANCH   7   6
ATOM      3  C   UNL     1      -3.891  -1.535  24.621  0.00  0.00    +0.139 A 
ATOM      4  C   UNL     1      -3.660  -1.145  25.311  0.00  0.00    +0.037 A 
ATOM      5  C   UNL     1      -3.552  -0.327  25.305  0.00  0.00    +0.000 A 
ATOM      6  C   UNL     1      -3.675   0.101  24.611  0.00  0.00    -0.006 A 
ATOM     22  C   UNL     1      -3.907  -0.289  23.922  0.00  0.00    +0.000 A 
ATOM     23  C   UNL     1      -4.015  -1.107  23.926  0.00  0.00    +0.037 A 
BRANCH   3   2
ATOM      1  C   UNL     1      -3.346  -2.856  24.586  0.00  0.00    +0.252 C 
ATOM      2  O   UNL     1      -3.999  -2.353  24.626  0.00  0.00    -0.471 OA
ENDBRANCH   3   2
ENDBRANCH   7   6
ENDBRANCH   8   7
TORSDOF 5
ENDMDL
MODEL 2
REMARK VINA RESULT:     -10.1      1.190      4.321
REMARK  Name = 
REMARK  5 active torsions:
REMARK  status: ('A' for Active; 'I' for Inactive)
REMARK    1  A    between atoms: O_2  and  C_3
REMARK    2  A    between atoms: C_6  and  C_7
REMARK    3  A    between atoms: C_7  and  N_8
REMARK    4  A    between atoms: C_13  and  C_14
REMARK    5  A    between atoms: C_16  and  C_19
REMARK                            x       y       z     vdW  Elec       q    Type
REMARK                         _______ _______ _______ _____ _____    ______ ____
ROOT
ATOM      8  N   UNL     1      -4.124   2.049  24.989  0.00  0.00    -0.260 NA
ATOM      9  C   UNL     1      -4.618   2.662  25.238  0.00  0.00    +0.106 C 
ATOM     10  C   UNL     1      -5.369   2.346  25.372  0.00  0.00    +0.170 C 
ATOM     11  O   UNL     1      -6.032   2.764  25.627  0.00  0.00    -0.222 OA
ATOM     12  C   UNL     1      -5.339   1.539  25.204  0.00  0.00    +0.060 C 
ATOM     13  C   UNL     1      -4.570   1.356  24.968  0.00  0.00    +0.140 C 
ENDROOT
BRANCH  13  14
ATOM     14  C   UNL     1      -4.295   0.609  24.749  0.00  0.00    +0.251 A 
ATOM     15  N   UNL     1      -4.103  -0.007  25.262  0.00  0.00    -0.194 NA
ATOM     16  C   UNL     1      -3.853  -0.649  24.808  0.00  0.00    +0.180 A 
ATOM     17  N   UNL     1      -3.890  -0.430  24.015  0.00  0.00    -0.061 NA
ATOM     18  O   UNL     1      -4.163   0.348  23.978  0.00  0.00    -0.336 OA
BRANCH  16  19
ATOM     19  C   UNL     1      -3.609  -1.382  25.098  0.00  0.00    +0.062 C 
ATOM     20  C   UNL     1      -3.298  -1.442  25.860  0.00  0.00    +0.008 C 
ATOM     21  C   UNL     1      -3.676  -2.055  24.626  0.00  0.00    +0.008 C 
ENDBRANCH  16  19
ENDBRANCH  13  14
BRANCH   8   7
ATOM      7  C   UNL     1      -3.326   2.119  24.794  0.00  0.00    +0.100 C 
BRANCH   7   6
ATOM      3  C   UNL     1      -2.125   4.237  25.242  0.00  0.00    +0.139 A 
ATOM      4  C   UNL     1      -2.086   3.617  25.786  0.00  0.00    +0.037 A 
ATOM      5  C   UNL     1      -2.486   2.912  25.636  0.00  0.00    +0.000 A 
ATOM      6  C   UNL     1      -2.925   2.825  24.944  0.00  0.00    -0.006 A 
ATOM     22  C   UNL     1      -2.964   3.444  24.400  0.00  0.00    +0.000 A 
ATOM     23  C   UNL     1      -2.565   4.150  24.549  0.00  0.00    +0.037 A 
BRANCH   3   2
ATOM      1  C   UNL     1      -1.007   5.097  25.016  0.00  0.00    +0.252 C 
ATOM      2  O   UNL     1      -1.725   4.943  25.391  0.00  0.00    -0.471 OA
ENDBRANCH   3   2
ENDBRANCH   7   6
ENDBRANCH   8   7
TORSDOF 5
ENDMDL
MODEL 3
REMARK VINA RESULT:     -10.0      1.971      2.833
REMARK  Name = 
REMARK  5 active torsions:
REMARK  status: ('A' for Active; 'I' for Inactive)
REMARK    1  A    between atoms: O_2  and  C_3
REMARK    2  A    between atoms: C_6  and  C_7
REMARK    3  A    between atoms: C_7  and  N_8
REMARK    4  A    between atoms: C_13  and  C_14
REMARK    5  A    between atoms: C_16  and  C_19
REMARK                            x       y       z     vdW  Elec       q    Type
REMARK                         _______ _______ _______ _____ _____    ______ ____
ROOT
ATOM      8  N   UNL     1      -1.455   0.685  24.760  0.00  0.00    -0.260 NA
ATOM      9  C   UNL     1      -1.133   0.063  24.324  0.00  0.00    +0.106 C 
ATOM     10  C   UNL     1      -0.365   0.274  24.107  0.00  0.00    +0.170 C 
ATOM     11  O   UNL     1       0.158  -0.186  23.666  0.00  0.00    -0.222 OA
ATOM     12  C   UNL     1      -0.214   1.027  24.408  0.00  0.00    +0.060 C 
ATOM     13  C   UNL     1      -0.888   1.281  24.811  0.00  0.00    +0.140 C 
ENDROOT
BRANCH  13  14
ATOM     14  C   UNL     1      -0.977   2.005  25.198  0.00  0.00    +0.251 A 
ATOM     15  N   UNL     1      -1.230   2.710  24.854  0.00  0.00    -0.194 NA
ATOM     16  C   UNL     1      -1.239   3.291  25.440  0.00  0.00    +0.180 A 
ATOM     17  N   UNL     1      -0.992   2.944  26.146  0.00  0.00    -0.061 NA
ATOM     18  O   UNL     1      -0.830   2.149  25.996  0.00  0.00    -0.336 OA
BRANCH  16  19
ATOM     19  C   UNL     1      -1.457   4.079  25.338  0.00  0.00    +0.062 C 
ATOM     20  C   UNL     1      -2.206   4.335  25.574  0.00  0.00    +0.008 C 
ATOM     21  C   UNL     1      -0.927   4.613  25.000  0.00  0.00    +0.008 C 
ENDBRANCH  16  19
ENDBRANCH  13  14
BRANCH   8   7
ATOM      7  C   UNL     1      -2.213   0.707  25.086  0.00  0.00    +0.100 C 
BRANCH   7   6
ATOM      3  C   UNL     1      -3.878  -1.015  24.462  0.00  0.00    +0.139 A 
ATOM      4  C   UNL     1      -3.809  -0.326  24.013  0.00  0.00    +0.037 A 
ATOM      5  C   UNL     1      -3.254   0.248  24.221  0.00  0.00    +0.000 A 
ATOM      6  C   UNL     1      -2.768   0.134  24.878  0.00  0.00    -0.006 A 
ATOM     22  C   UNL     1      -2.837  -0.555  25.327  0.00  0.00    +0.000 A 
ATOM     23  C   UNL     1      -3.392  -1.129  25.120  0.00  0.00    +0.037 A 
BRANCH   3   2
ATOM      1  C   UNL     1      -4.196  -2.259  23.836  0.00  0.00    +0.252 C 
ATOM      2  O   UNL     1      -4.433  -1.589  24.255  0.00  0.00    -0.471 OA
ENDBRANCH   3   2
ENDBRANCH   7   6
ENDBRANCH   8   7
TORSDOF 5
ENDMDL
MODEL 4
REMARK VINA RESULT:      -9.9      1.374      2.272
REMARK  Name = 
REMARK  5 active torsions:
REMARK  status: ('A' for Active; 'I' for Inactive)
REMARK    1  A    between atoms: O_2  and  C_3
REMARK    2  A    between atoms: C_6  and  C_7
REMARK    3  A    between atoms: C_7  and  N_8
REMARK    4  A    between atoms: C_13  and  C_14
REMARK    5  A    between atoms: C_16  and  C_19
REMARK                            x       y       z     vdW  Elec       q    Type
REMARK                         _______ _______ _______ _____ _____    ______ ____
ROOT
ATOM      8  N   UNL     1      -2.757   0.789  24.354  0.00  0.00    -0.260 NA
ATOM      9  C   UNL     1      -2.070   0.363  24.189  0.00  0.00    +0.106 C 
ATOM     10  C   UNL     1      -1.479   0.902  23.986  0.00  0.00    +0.170 C 
ATOM     11  O   UNL     1      -0.702   0.714  23.779  0.00  0.00    -0.222 OA
ATOM     12  C   UNL     1      -1.801   1.660  24.025  0.00  0.00    +0.060 C 
ATOM     13  C   UNL     1      -2.591   1.590  24.252  0.00  0.00    +0.140 C 
ENDROOT
BRANCH  13  14
ATOM     14  C   UNL     1      -3.122   2.213  24.360  0.00  0.00    +0.251 A 
ATOM     15  N   UNL     1      -3.297   2.583  25.076  0.00  0.00    -0.194 NA
ATOM     16  C   UNL     1      -3.854   3.174  24.928  0.00  0.00    +0.180 A 
ATOM     17  N   UNL     1      -4.023   3.168  24.121  0.00  0.00    -0.061 NA
ATOM     18  O   UNL     1      -3.570   2.575  23.770  0.00  0.00    -0.336 OA
BRANCH  16  19
ATOM     19  C   UNL     1      -4.183   3.680  25.489  0.00  0.00    +0.062 C 
ATOM     20  C   UNL     1      -5.003   3.748  25.554  0.00  0.00    +0.008 C 
ATOM     21  C   UNL     1      -3.693   4.119  25.987  0.00  0.00    +0.008 C 
ENDBRANCH  16  19
ENDBRANCH  13  14
BRANCH   8   7
ATOM      7  C   UNL     1      -3.483   0.469  24.580  0.00  0.00    +0.100 C 
BRANCH   7   6
ATOM      3  C   UNL     1      -3.793  -1.987  24.619  0.00  0.00    +0.139 A 
ATOM      4  C   UNL     1      -3.996  -1.556  23.946  0.00  0.00    +0.037 A 
ATOM      5  C   UNL     1      -3.893  -0.738  23.933  0.00  0.00    +0.000 A 
ATOM      6  C   UNL     1      -3.587  -0.350  24.593  0.00  0.00    -0.006 A 
ATOM     22  C   UNL     1      -3.384  -0.780  25.267  0.00  0.00    +0.000 A 
ATOM     23  C   UNL     1      -3.487  -1.599  25.281  0.00  0.00    +0.037 A 
BRANCH   3   2
ATOM      1  C   UNL     1      -3.244  -3.305  24.557  0.00  0.00    +0.252 C 
ATOM      2  O   UNL     1      -3.896  -2.805  24.633  0.00  0.00    -0.471 OA
ENDBRANCH   3   2
ENDBRANCH   7   6
ENDBRANCH   8   7
TORSDOF 5
ENDMDL
MODEL 5
REMARK VINA RESULT:      -9.9      1.555      2.395
REMARK  Name = 
REMARK  5 active torsions:
REMARK  status: ('A' for Active; 'I' for Inactive)
REMARK    1  A    between atoms: O_2  and  C_3
REMARK    2  A    between atoms: C_6  and  C_7
REMARK    3  A    between atoms: C_7  and  N_8
REMARK    4  A    between atoms: C_13  and  C_14
REMARK    5  A    between atoms: C_16  and  C_19
REMARK                            x       y       z     vdW  Elec       q    Type
REMARK                         _______ _______ _______ _____ _____    ______ ____
ROOT
ATOM      8  N   UNL     1      -1.991   0.830  24.471  0.00  0.00    -0.260 NA
ATOM      9  C   UNL     1      -1.442   0.250  24.260  0.00  0.00    +0.106 C 
ATOM     10  C   UNL     1      -0.760   0.630  23.992  0.00  0.00    +0.170 C 
ATOM     11  O   UNL     1      -0.073   0.260  23.725  0.00  0.00    -0.222 OA
ATOM     12  C   UNL     1      -0.887   1.444  24.036  0.00  0.00    +0.060 C 
ATOM     13  C   UNL     1      -1.648   1.567  24.332  0.00  0.00    +0.140 C 
ENDROOT
BRANCH  13  14
ATOM     14  C   UNL     1      -2.003   2.300  24.467  0.00  0.00    +0.251 A 
ATOM     15  N   UNL     1      -1.843   2.808  25.096  0.00  0.00    -0.194 NA
ATOM     16  C   UNL     1      -2.322   3.475  25.013  0.00  0.00    +0.180 A 
ATOM     17  N   UNL     1      -2.777   3.379  24.333  0.00  0.00    -0.061 NA
ATOM     18  O   UNL     1      -2.580   2.652  23.995  0.00  0.00    -0.336 OA
BRANCH  16  19
ATOM     19  C   UNL     1      -2.341   4.124  25.522  0.00  0.00    +0.062 C 
ATOM     20  C   UNL     1      -1.831   4.761  25.399  0.00  0.00    +0.008 C 
ATOM     21  C   UNL     1      -2.871   4.137  26.154  0.00  0.00    +0.008 C 
ENDBRANCH  16  19
ENDBRANCH  13  14
BRANCH   8   7
ATOM      7  C   UNL     1      -2.749   0.695  24.767  0.00  0.00    +0.100 C 
BRANCH   7   6
ATOM      3  C   UNL     1      -3.653  -1.608  24.847  0.00  0.00    +0.139 A 
ATOM      4  C   UNL     1      -3.793  -1.132  24.187  0.00  0.00    +0.037 A 
ATOM      5  C   UNL     1      -3.491  -0.365  24.161  0.00  0.00    +0.000 A 
ATOM      6  C   UNL     1      -3.050  -0.073  24.793  0.00  0.00    -0.006 A 
ATOM     22  C   UNL     1      -2.911  -0.548  25.453  0.00  0.00    +0.000 A 
ATOM     23  C   UNL     1      -3.212  -1.315  25.481  0.00  0.00    +0.037 A 
BRANCH   3   2
ATOM      1  C   UNL     1      -3.567  -2.985  24.477  0.00  0.00    +0.252 C 
ATOM      2  O   UNL     1      -3.954  -2.375  24.874  0.00  0.00    -0.471 OA
ENDBRANCH   3   2
ENDBRANCH   7   6
ENDBRANCH   8   7
TORSDOF 5
ENDMDL
MODEL 6
REMARK VINA RESULT:      -9.7      1.477      4.672
REMARK  Name = 
REMARK  5 active torsions:
REMARK  status: ('A' for Active; 'I' for Inactive)
REMARK    1  A    between atoms: O_2  and  C_3
REMARK    2  A    between atoms: C_6  and  C_7
REMARK    3  A    between atoms: C_7  and  N_8
REMARK    4  A    between atoms: C_13  and  C_14
REMARK    5  A    between atoms: C_16  and  C_19
REMARK                            x       y       z     vdW  Elec       q    Type
REMARK                         _______ _______ _______ _____ _____    ______ ____
ROOT
ATOM      8  N   UNL     1      -2.850   1.830  24.053  0.00  0.00    -0.260 NA
ATOM      9  C   UNL     1      -2.589   2.254  23.395  0.00  0.00    +0.106 C 
ATOM     10  C   UNL     1      -2.751   1.806  22.721  0.00  0.00    +0.170 C 
ATOM     11  O   UNL     1      -2.582   2.020  21.943  0.00  0.00    -0.222 OA
ATOM     12  C   UNL     1      -3.113   1.105  22.964  0.00  0.00    +0.060 C 
ATOM     13  C   UNL     1      -3.174   1.120  23.786  0.00  0.00    +0.140 C 
ENDROOT
BRANCH  13  14
ATOM     14  C   UNL     1      -3.501   0.528  24.260  0.00  0.00    +0.251 A 
ATOM     15  N   UNL     1      -3.125  -0.166  24.497  0.00  0.00    -0.194 NA
ATOM     16  C   UNL     1      -3.653  -0.596  24.963  0.00  0.00    +0.180 A 
ATOM     17  N   UNL     1      -4.355  -0.167  25.013  0.00  0.00    -0.061 NA
ATOM     18  O   UNL     1      -4.261   0.528  24.579  0.00  0.00    -0.336 OA
BRANCH  16  19
ATOM     19  C   UNL     1      -3.505  -1.327  25.315  0.00  0.00    +0.062 C 
ATOM     20  C   UNL     1      -3.567  -2.020  24.872  0.00  0.00    +0.008 C 
ATOM     21  C   UNL     1      -3.294  -1.365  26.112  0.00  0.00    +0.008 C 
ENDBRANCH  16  19
ENDBRANCH  13  14
BRANCH   8   7
ATOM      7  C   UNL     1      -2.797   2.074  24.839  0.00  0.00    +0.100 C 
BRANCH   7   6
ATOM      3  C   UNL     1      -1.883   4.310  25.380  0.00  0.00    +0.139 A 
ATOM      4  C   UNL     1      -2.691   4.217  25.244  0.00  0.00    +0.037 A 
ATOM      5  C   UNL     1      -2.995   3.471  25.064  0.00  0.00    +0.000 A 
ATOM      6  C   UNL     1      -2.492   2.820  25.020  0.00  0.00    -0.006 A 
ATOM     22  C   UNL     1      -1.684   2.913  25.156  0.00  0.00    +0.000 A 
ATOM     23  C   UNL     1      -1.378   3.658  25.336  0.00  0.00    +0.037 A 
BRANCH   3   2
ATOM      1  C   UNL     1      -1.140   5.469  24.997  0.00  0.00    +0.252 C 
ATOM      2  O   UNL     1      -1.577   5.055  25.560  0.00  0.00    -0.471 OA
ENDBRANCH   3   2
ENDBRANCH   7   6
ENDBRANCH   8   7
TORSDOF 5
ENDMDL
MODEL 7
REMARK VINA RESULT:      -9.4      2.383      5.271
REMARK  Name = 
REMARK  5 active torsions:
REMARK  status: ('A' for Active; 'I' for Inactive)
REMARK    1  A    between atoms: O_2  and  C_3
REMARK    2  A    between atoms: C_6  and  C_7
REMARK    3  A    between atoms: C_7  and  N_8
REMARK    4  A    between atoms: C_13  and  C_14
REMARK    5  A    between atoms: C_16  and  C_19
REMARK                            x       y       z     vdW  Elec       q    Type
REMARK                         _______ _______ _______ _____ _____    ______ ____
ROOT
ATOM      8  N   UNL     1      -0.902   0.758  24.684  0.00  0.00    -0.260 NA
ATOM      9  C   UNL     1      -0.232   0.999  24.266  0.00  0.00    +0.106 C 
ATOM     10  C   UNL     1       0.071   0.341  23.869  0.00  0.00    +0.170 C 
ATOM     11  O   UNL     1       0.738   0.333  23.385  0.00  0.00    -0.222 OA
ATOM     12  C   UNL     1      -0.412  -0.305  24.042  0.00  0.00    +0.060 C 
ATOM     13  C   UNL     1      -1.013  -0.048  24.545  0.00  0.00    +0.140 C 
ENDROOT
BRANCH  13  14
ATOM     14  C   UNL     1      -1.619  -0.514  24.856  0.00  0.00    +0.251 A 
ATOM     15  N   UNL     1      -2.270  -0.803  24.440  0.00  0.00    -0.194 NA
ATOM     16  C   UNL     1      -2.733  -1.241  24.964  0.00  0.00    +0.180 A 
ATOM     17  N   UNL     1      -2.368  -1.223  25.703  0.00  0.00    -0.061 NA
ATOM     18  O   UNL     1      -1.679  -0.774  25.636  0.00  0.00    -0.336 OA
BRANCH  16  19
ATOM     19  C   UNL     1      -3.437  -1.628  24.781  0.00  0.00    +0.062 C 
ATOM     20  C   UNL     1      -4.089  -1.198  24.515  0.00  0.00    +0.008 C 
ATOM     21  C   UNL     1      -3.491  -2.448  24.863  0.00  0.00    +0.008 C 
ENDBRANCH  16  19
ENDBRANCH  13  14
BRANCH   8   7
ATOM      7  C   UNL     1      -1.377   1.239  25.157  0.00  0.00    +0.100 C 
BRANCH   7   6
ATOM      3  C   UNL     1      -0.970   3.679  25.241  0.00  0.00    +0.139 A 
ATOM      4  C   UNL     1      -0.561   3.175  25.750  0.00  0.00    +0.037 A 
ATOM      5  C   UNL     1      -0.697   2.361  25.722  0.00  0.00    +0.000 A 
ATOM      6  C   UNL     1      -1.241   2.052  25.185  0.00  0.00    -0.006 A 
ATOM     22  C   UNL     1      -1.650   2.556  24.676  0.00  0.00    +0.000 A 
ATOM     23  C   UNL     1      -1.515   3.369  24.703  0.00  0.00    +0.037 A 
BRANCH   3   2
ATOM      1  C   UNL     1      -1.449   5.018  25.106  0.00  0.00    +0.252 C 
ATOM      2  O   UNL     1      -0.835   4.492  25.268  0.00  0.00    -0.471 OA
ENDBRANCH   3   2
ENDBRANCH   7   6
ENDBRANCH   8   7
TORSDOF 5
ENDMDL
MODEL 8
REMARK VINA RESULT:      -9.2      1.704      4.743
REMARK  Name = 
REMARK  5 active torsions:
REMARK  status: ('A' for Active; 'I' for Inactive)
REMARK    1  A    between atoms: O_2  and  C_3
REMARK    2  A    between atoms: C_6  and  C_7
REMARK    3  A    between atoms: C_7  and  N_8
REMARK    4  A    between atoms: C_13  and  C_14
REMARK    5  A    between atoms: C_16  and  C_19
REMARK                            x       y       z     vdW  Elec       q    Type
REMARK                         _______ _______ _______ _____ _____    ______ ____
ROOT
ATOM      8  N   UNL     1      -2.682   0.733  24.837  0.00  0.00    -0.260 NA
ATOM      9  C   UNL     1      -2.069   1.283  24.895  0.00  0.00    +0.106 C 
ATOM     10  C   UNL     1      -1.406   0.895  25.196  0.00  0.00    +0.170 C 
ATOM     11  O   UNL     1      -0.670   1.237  25.343  0.00  0.00    -0.222 OA
ATOM     12  C   UNL     1      -1.609   0.106  25.325  0.00  0.00    +0.060 C 
ATOM     13  C   UNL     1      -2.397   0.006  25.103  0.00  0.00    +0.140 C 
ENDROOT
BRANCH  13  14
ATOM     14  C   UNL     1      -2.826  -0.699  25.141  0.00  0.00    +0.251 A 
ATOM     15  N   UNL     1      -2.944  -1.228  24.519  0.00  0.00    -0.194 NA
ATOM     16  C   UNL     1      -3.403  -1.854  24.801  0.00  0.00    +0.180 A 
ATOM     17  N   UNL     1      -3.569  -1.710  25.595  0.00  0.00    -0.061 NA
ATOM     18  O   UNL     1      -3.212  -0.996  25.805  0.00  0.00    -0.336 OA
BRANCH  16  19
ATOM     19  C   UNL     1      -3.652  -2.507  24.364  0.00  0.00    +0.062 C 
ATOM     20  C   UNL     1      -4.270  -2.431  23.823  0.00  0.00    +0.008 C 
ATOM     21  C   UNL     1      -3.282  -3.237  24.467  0.00  0.00    +0.008 C 
ENDBRANCH  16  19
ENDBRANCH  13  14
BRANCH   8   7
ATOM      7  C   UNL     1      -3.445   0.884  24.562  0.00  0.00    +0.100 C 
BRANCH   7   6
ATOM      3  C   UNL     1      -4.395   3.162  24.743  0.00  0.00    +0.139 A 
ATOM      4  C   UNL     1      -3.974   2.944  24.069  0.00  0.00    +0.037 A 
ATOM      5  C   UNL     1      -3.657   2.184  24.008  0.00  0.00    +0.000 A 
ATOM      6  C   UNL     1      -3.761   1.643  24.622  0.00  0.00    -0.006 A 
ATOM     22  C   UNL     1      -4.183   1.862  25.297  0.00  0.00    +0.000 A 
ATOM     23  C   UNL     1      -4.500   2.621  25.358  0.00  0.00    +0.037 A 
BRANCH   3   2
ATOM      1  C   UNL     1      -5.275   4.088  25.384  0.00  0.00    +0.252 C 
ATOM      2  O   UNL     1      -4.712   3.921  24.805  0.00  0.00    -0.471 OA
ENDBRANCH   3   2
ENDBRANCH   7   6
ENDBRANCH   8   7
TORSDOF 5
ENDMDL
