MODEL 1
REMARK VINA RESULT:      -9.8      0.000      0.000
REMARK  Name = 
REMARK  6 active torsions:
REMARK  status: ('A' for Active; 'I' for Inactive)
REMARK    1  A    between atoms: C_3  and  N_16
REMARK    2  A    between atoms: C_6  and  C_7
REMARK    3  A    between atoms: C_7  and  N_8
REMARK    4  A    between atoms: C_9  and  C_11
REMARK    5  A    between atoms: N_16  and  C_17
REMARK    6  A    between atoms: C_17  and  C_18
REMARK                            x       y       z     vdW  Elec       q    Type
REMARK                         _______ _______ _______ _____ _____    ______ ____
ROOT
ATOM      1  O   UNL     1      -4.043   1.281  25.547  0.00  0.00    -0.219 OA
ATOM      2  C   UNL     1      -3.746   1.393  24.786  0.00  0.00    +0.199 C 
ATOM      3  C   UNL     1      -3.696   0.819  24.195  0.00  0.00    +0.135 C 
ATOM      4  C   UNL     1      -3.366   1.170  23.526  0.00  0.00    +0.162 C 
ATOM      5  O   UNL     1      -3.211   1.961  23.703  0.00  0.00    -0.350 OA
ATOM      6  C   UNL     1      -3.446   2.099  24.481  0.00  0.00    +0.169 C 
ENDROOT
BRANCH   6   7
ATOM      7  C   UNL     1      -3.391   2.816  24.884  0.00  0.00    +0.148 C 
BRANCH   7   8
ATOM      8  N   UNL     1      -2.728   3.296  24.783  0.00  0.00    -0.199 NA
ATOM      9  C   UNL     1      -2.610   3.947  25.277  0.00  0.00    +0.271 C 
ATOM     10  O   UNL     1      -3.156   4.118  25.871  0.00  0.00    -0.268 OA
BRANCH   9  11
ATOM     11  C   UNL     1      -1.947   4.427  25.175  0.00  0.00    +0.084 A 
ATOM     12  C   UNL     1      -1.948   5.250  25.112  0.00  0.00    +0.012 A 
ATOM     13  C   UNL     1      -1.169   5.500  25.017  0.00  0.00    +0.008 A 
ATOM     14  C   UNL     1      -0.684   4.832  25.022  0.00  0.00    +0.036 A 
ATOM     15  S   UNL     1      -1.165   4.169  25.120  0.00  0.00    -0.082 S 
ENDBRANCH   9  11
ENDBRANCH   7   8
ENDBRANCH   6   7
BRANCH   3  16
ATOM     16  N   UNL     1      -3.935   0.032  24.263  0.00  0.00    -0.209 NA
BRANCH  16  17
ATOM     17  C   UNL     1      -3.566  -0.551  23.811  0.00  0.00    +0.115 C 
BRANCH  17  18
ATOM     18  C   UNL     1      -3.622  -1.343  24.034  0.00  0.00    -0.005 A 
ATOM     19  C   UNL     1      -4.266  -1.797  23.788  0.00  0.00    -0.001 A 
ATOM     20  C   UNL     1      -4.322  -2.589  24.011  0.00  0.00    +0.029 A 
ATOM     21  C   UNL     1      -3.734  -2.927  24.480  0.00  0.00    +0.140 A 
ATOM     22  F   UNL     1      -3.790  -3.720  24.704  0.00  0.00    -0.204 F 
ATOM     23  C   UNL     1      -3.090  -2.474  24.727  0.00  0.00    +0.029 A 
ATOM     24  C   UNL     1      -3.034  -1.682  24.503  0.00  0.00    -0.001 A 
ENDBRANCH  17  18
ENDBRANCH  16  17
ENDBRANCH   3  16
TORSDOF 6
ENDMDL
MODEL 2
REMARK VINA RESULT:      -9.7      3.150      6.155
REMARK  Name = 
REMARK  6 active torsions:
REMARK  status: ('A' for Active; 'I' for Inactive)
REMARK    1  A    between atoms: C_3  and  N_16
REMARK    2  A    between atoms: C_6  and  C_7
REMARK    3  A    between atoms: C_7  and  N_8
REMARK    4  A    between atoms: C_9  and  C_11
REMARK    5  A    between atoms: N_16  and  C_17
REMARK    6  A    between atoms: C_17  and  C_18
REMARK                            x       y       z     vdW  Elec       q    Type
REMARK                         _______ _______ _______ _____ _____    ______ ____
ROOT
ATOM      1  O   UNL     1      -1.158   1.025  23.740  0.00  0.00    -0.219 OA
ATOM      2  C   UNL     1      -1.105   0.906  24.555  0.00  0.00    +0.199 C 
ATOM      3  C   UNL     1      -1.002   1.492  25.125  0.00  0.00    +0.135 C 
ATOM      4  C   UNL     1      -0.980   1.128  25.865  0.00  0.00    +0.162 C 
ATOM      5  O   UNL     1      -1.069   0.316  25.752  0.00  0.00    -0.350 OA
ATOM      6  C   UNL     1      -1.147   0.178  24.942  0.00  0.00    +0.169 C 
ENDROOT
BRANCH   6   7
ATOM      7  C   UNL     1      -1.248  -0.557  24.583  0.00  0.00    +0.148 C 
BRANCH   7   8
ATOM      8  N   UNL     1      -1.993  -0.911  24.572  0.00  0.00    -0.199 NA
ATOM      9  C   UNL     1      -2.066  -1.713  24.388  0.00  0.00    +0.271 C 
ATOM     10  O   UNL     1      -1.394  -2.159  24.217  0.00  0.00    -0.268 OA
BRANCH   9  11
ATOM     11  C   UNL     1      -2.811  -2.067  24.377  0.00  0.00    +0.084 A 
ATOM     12  C   UNL     1      -3.509  -1.720  24.104  0.00  0.00    +0.012 A 
ATOM     13  C   UNL     1      -4.118  -2.269  24.195  0.00  0.00    +0.008 A 
ATOM     14  C   UNL     1      -3.797  -2.954  24.523  0.00  0.00    +0.036 A 
ATOM     15  S   UNL     1      -2.990  -2.830  24.635  0.00  0.00    -0.082 S 
ENDBRANCH   9  11
ENDBRANCH   7   8
ENDBRANCH   6   7
BRANCH   3  16
ATOM     16  N   UNL     1      -0.933   2.302  24.981  0.00  0.00    -0.209 NA
BRANCH  16  17
ATOM     17  C   UNL     1      -1.050   2.842  25.594  0.00  0.00    +0.115 C 
BRANCH  17  18
ATOM     18  C   UNL     1      -1.180   3.638  25.423  0.00  0.00    -0.005 A 
ATOM     19  C   UNL     1      -0.592   4.082  25.051  0.00  0.00    -0.001 A 
ATOM     20  C   UNL     1      -0.722   4.878  24.880  0.00  0.00    +0.029 A 
ATOM     21  C   UNL     1      -1.439   5.231  25.082  0.00  0.00    +0.140 A 
ATOM     22  F   UNL     1      -1.569   6.028  24.912  0.00  0.00    -0.204 F 
ATOM     23  C   UNL     1      -2.027   4.789  25.455  0.00  0.00    +0.029 A 
ATOM     24  C   UNL     1      -1.897   3.992  25.626  0.00  0.00    -0.001 A 
ENDBRANCH  17  18
ENDBRANCH  16  17
ENDBRANCH   3  16
TORSDOF 6
ENDMDL
MODEL 3
REMARK VINA RESULT:      -9.5      1.774      2.060
REMARK  Name = 
REMARK  6 active torsions:
REMARK  status: ('A' for Active; 'I' for Inactive)
REMARK    1  A    between atoms: C_3  and  N_16
REMARK    2  A    between atoms: C_6  and  C_7
REMARK    3  A    between atoms: C_7  and  N_8
REMARK    4  A    between atoms: C_9  and  C_11
REMARK    5  A    between atoms: N_16  and  C_17
REMARK    6  A    between atoms: C_17  and  C_18
REMARK                            x       y       z     vdW  Elec       q    Type
REMARK                         _______ _______ _______ _____ _____    ______ ____
ROOT
ATOM      1  O   UNL     1      -1.431   0.769  23.671  0.00  0.00    -0.219 OA
ATOM      2  C   UNL     1      -1.341   0.665  24.484  0.00  0.00    +0.199 C 
ATOM      3  C   UNL     1      -1.607   0.019  24.923  0.00  0.00    +0.135 C 
ATOM      4  C   UNL     1      -1.400   0.144  25.711  0.00  0.00    +0.162 C 
ATOM      5  O   UNL     1      -1.006   0.867  25.760  0.00  0.00    -0.350 OA
ATOM      6  C   UNL     1      -0.969   1.189  25.002  0.00  0.00    +0.169 C 
ENDROOT
BRANCH   6   7
ATOM      7  C   UNL     1      -0.622   1.908  24.797  0.00  0.00    +0.148 C 
BRANCH   7   8
ATOM      8  N   UNL     1      -1.010   2.616  24.969  0.00  0.00    -0.199 NA
ATOM      9  C   UNL     1      -0.644   3.337  24.804  0.00  0.00    +0.271 C 
ATOM     10  O   UNL     1       0.110   3.350  24.468  0.00  0.00    -0.268 OA
BRANCH   9  11
ATOM     11  C   UNL     1      -1.031   4.045  24.975  0.00  0.00    +0.084 A 
ATOM     12  C   UNL     1      -0.763   4.803  24.787  0.00  0.00    +0.012 A 
ATOM     13  C   UNL     1      -1.320   5.346  25.060  0.00  0.00    +0.008 A 
ATOM     14  C   UNL     1      -1.933   4.924  25.416  0.00  0.00    +0.036 A 
ATOM     15  S   UNL     1      -1.755   4.121  25.363  0.00  0.00    -0.082 S 
ENDBRANCH   9  11
ENDBRANCH   7   8
ENDBRANCH   6   7
BRANCH   3  16
ATOM     16  N   UNL     1      -2.010  -0.637  24.625  0.00  0.00    -0.209 NA
BRANCH  16  17
ATOM     17  C   UNL     1      -2.638  -0.963  25.048  0.00  0.00    +0.115 C 
BRANCH  17  18
ATOM     18  C   UNL     1      -3.142  -1.507  24.687  0.00  0.00    -0.005 A 
ATOM     19  C   UNL     1      -2.972  -2.313  24.721  0.00  0.00    -0.001 A 
ATOM     20  C   UNL     1      -3.476  -2.857  24.359  0.00  0.00    +0.029 A 
ATOM     21  C   UNL     1      -4.150  -2.594  23.964  0.00  0.00    +0.140 A 
ATOM     22  F   UNL     1      -4.654  -3.138  23.602  0.00  0.00    -0.204 F 
ATOM     23  C   UNL     1      -4.321  -1.788  23.930  0.00  0.00    +0.029 A 
ATOM     24  C   UNL     1      -3.816  -1.244  24.292  0.00  0.00    -0.001 A 
ENDBRANCH  17  18
ENDBRANCH  16  17
ENDBRANCH   3  16
TORSDOF 6
ENDMDL
MODEL 4
REMARK VINA RESULT:      -9.5      2.653      5.863
REMARK  Name = 
REMARK  6 active torsions:
REMARK  status: ('A' for Active; 'I' for Inactive)
REMARK    1  A    between atoms: C_3  and  N_16
REMARK    2  A    between atoms: C_6  and  C_7
REMARK    3  A    between atoms: C_7  and  N_8
REMARK    4  A    between atoms: C_9  and  C_11
REMARK    5  A    between atoms: N_16  and  C_17
REMARK    6  A    between atoms: C_17  and  C_18
REMARK                            x       y       z     vdW  Elec       q    Type
REMARK                         _______ _______ _______ _____ _____    ______ ____
ROOT
ATOM      1  O   UNL     1      -3.014   1.569  23.550  0.00  0.00    -0.219 OA
ATOM      2  C   UNL     1      -3.429   1.647  24.259  0.00  0.00    +0.199 C 
ATOM      3  C   UNL     1      -3.391   2.288  24.775  0.00  0.00    +0.135 C 
ATOM      4  C   UNL     1      -3.893   2.134  25.411  0.00  0.00    +0.162 C 
ATOM      5  O   UNL     1      -4.243   1.397  25.287  0.00  0.00    -0.350 OA
ATOM      6  C   UNL     1      -3.956   1.095  24.575  0.00  0.00    +0.169 C 
ENDROOT
BRANCH   6   7
ATOM      7  C   UNL     1      -4.160   0.371  24.238  0.00  0.00    +0.148 C 
BRANCH   7   8
ATOM      8  N   UNL     1      -3.833  -0.327  24.532  0.00  0.00    -0.199 NA
ATOM      9  C   UNL     1      -4.123  -1.057  24.280  0.00  0.00    +0.271 C 
ATOM     10  O   UNL     1      -4.740  -1.088  23.732  0.00  0.00    -0.268 OA
BRANCH   9  11
ATOM     11  C   UNL     1      -3.796  -1.755  24.574  0.00  0.00    +0.084 A 
ATOM     12  C   UNL     1      -3.538  -1.881  25.348  0.00  0.00    +0.012 A 
ATOM     13  C   UNL     1      -3.253  -2.653  25.398  0.00  0.00    +0.008 A 
ATOM     14  C   UNL     1      -3.335  -3.004  24.656  0.00  0.00    +0.036 A 
ATOM     15  S   UNL     1      -3.670  -2.450  24.147  0.00  0.00    -0.082 S 
ENDBRANCH   9  11
ENDBRANCH   7   8
ENDBRANCH   6   7
BRANCH   3  16
ATOM     16  N   UNL     1      -2.930   2.965  24.674  0.00  0.00    -0.209 NA
BRANCH  16  17
ATOM     17  C   UNL     1      -2.539   3.299  25.320  0.00  0.00    +0.115 C 
BRANCH  17  18
ATOM     18  C   UNL     1      -1.990   3.903  25.203  0.00  0.00    -0.005 A 
ATOM     19  C   UNL     1      -2.227   4.692  25.247  0.00  0.00    -0.001 A 
ATOM     20  C   UNL     1      -1.678   5.295  25.130  0.00  0.00    +0.029 A 
ATOM     21  C   UNL     1      -0.890   5.110  24.969  0.00  0.00    +0.140 A 
ATOM     22  F   UNL     1      -0.340   5.714  24.852  0.00  0.00    -0.204 F 
ATOM     23  C   UNL     1      -0.652   4.322  24.925  0.00  0.00    +0.029 A 
ATOM     24  C   UNL     1      -1.202   3.718  25.042  0.00  0.00    -0.001 A 
ENDBRANCH  17  18
ENDBRANCH  16  17
ENDBRANCH   3  16
TORSDOF 6
ENDMDL
MODEL 5
REMARK VINA RESULT:      -8.2      3.611      4.942
REMARK  Name = 
REMARK  6 active torsions:
REMARK  status: ('A' for Active; 'I' for Inactive)
REMARK    1  A    between atoms: C_3  and  N_16
REMARK    2  A    between atoms: C_6  and  C_7
REMARK    3  A    between atoms: C_7  and  N_8
REMARK    4  A    between atoms: C_9  and  C_11
REMARK    5  A    between atoms: N_16  and  C_17
REMARK    6  A    between atoms: C_17  and  C_18
REMARK                            x       y       z     vdW  Elec       q    Type
REMARK                         _______ _______ _______ _____ _____    ______ ____
ROOT
ATOM      1  O   UNL     1      -2.020   0.387  25.090  0.00  0.00    -0.219 OA
ATOM      2  C   UNL     1      -1.823   0.958  24.528  0.00  0.00    +0.199 C 
ATOM      3  C   UNL     1      -2.259   1.634  24.349  0.00  0.00    +0.135 C 
ATOM      4  C   UNL     1      -1.860   2.046  23.757  0.00  0.00    +0.162 C 
ATOM      5  O   UNL     1      -1.177   1.623  23.568  0.00  0.00    -0.350 OA
ATOM      6  C   UNL     1      -1.154   0.951  24.044  0.00  0.00    +0.169 C 
ENDROOT
BRANCH   6   7
ATOM      7  C   UNL     1      -0.565   0.373  24.039  0.00  0.00    +0.148 C 
BRANCH   7   8
ATOM      8  N   UNL     1       0.083   0.450  23.535  0.00  0.00    -0.199 NA
ATOM      9  C   UNL     1       0.616  -0.174  23.451  0.00  0.00    +0.271 C 
ATOM     10  O   UNL     1       0.500  -0.875  23.870  0.00  0.00    -0.268 OA
BRANCH   9  11
ATOM     11  C   UNL     1       1.265  -0.097  22.947  0.00  0.00    +0.084 A 
ATOM     12  C   UNL     1       1.299  -0.339  22.158  0.00  0.00    +0.012 A 
ATOM     13  C   UNL     1       2.048  -0.156  21.868  0.00  0.00    +0.008 A 
ATOM     14  C   UNL     1       2.478   0.198  22.476  0.00  0.00    +0.036 A 
ATOM     15  S   UNL     1       1.994   0.235  23.142  0.00  0.00    -0.082 S 
ENDBRANCH   9  11
ENDBRANCH   7   8
ENDBRANCH   6   7
BRANCH   3  16
ATOM     16  N   UNL     1      -2.970   1.860  24.703  0.00  0.00    -0.209 NA
BRANCH  16  17
ATOM     17  C   UNL     1      -3.408   2.484  24.387  0.00  0.00    +0.115 C 
BRANCH  17  18
ATOM     18  C   UNL     1      -4.095   2.739  24.765  0.00  0.00    -0.005 A 
ATOM     19  C   UNL     1      -4.782   2.283  24.725  0.00  0.00    -0.001 A 
ATOM     20  C   UNL     1      -5.469   2.538  25.103  0.00  0.00    +0.029 A 
ATOM     21  C   UNL     1      -5.470   3.249  25.522  0.00  0.00    +0.140 A 
ATOM     22  F   UNL     1      -6.157   3.504  25.900  0.00  0.00    -0.204 F 
ATOM     23  C   UNL     1      -4.783   3.705  25.562  0.00  0.00    +0.029 A 
ATOM     24  C   UNL     1      -4.096   3.449  25.184  0.00  0.00    -0.001 A 
ENDBRANCH  17  18
ENDBRANCH  16  17
ENDBRANCH   3  16
TORSDOF 6
ENDMDL
MODEL 6
REMARK VINA RESULT:      -7.5      3.515      4.451
REMARK  Name = 
REMARK  6 active torsions:
REMARK  status: ('A' for Active; 'I' for Inactive)
REMARK    1  A    between atoms: C_3  and  N_16
REMARK    2  A    between atoms: C_6  and  C_7
REMARK    3  A    between atoms: C_7  and  N_8
REMARK    4  A    between atoms: C_9  and  C_11
REMARK    5  A    between atoms: N_16  and  C_17
REMARK    6  A    between atoms: C_17  and  C_18
REMARK                            x       y       z     vdW  Elec       q    Type
REMARK                         _______ _______ _______ _____ _____    ______ ____
ROOT
ATOM      1  O   UNL     1      -1.959   1.883  22.731  0.00  0.00    -0.219 OA
ATOM      2  C   UNL     1      -1.873   1.690  23.529  0.00  0.00    +0.199 C 
ATOM      3  C   UNL     1      -1.248   1.266  23.860  0.00  0.00    +0.135 C 
ATOM      4  C   UNL     1      -1.386   1.200  24.670  0.00  0.00    +0.162 C 
ATOM      5  O   UNL     1      -2.097   1.583  24.840  0.00  0.00    -0.350 OA
ATOM      6  C   UNL     1      -2.398   1.886  24.135  0.00  0.00    +0.169 C 
ENDROOT
BRANCH   6   7
ATOM      7  C   UNL     1      -3.100   2.310  24.049  0.00  0.00    +0.148 C 
BRANCH   7   8
ATOM      8  N   UNL     1      -3.730   2.173  24.564  0.00  0.00    -0.199 NA
ATOM      9  C   UNL     1      -4.419   2.623  24.502  0.00  0.00    +0.271 C 
ATOM     10  O   UNL     1      -4.477   3.210  23.925  0.00  0.00    -0.268 OA
BRANCH   9  11
ATOM     11  C   UNL     1      -5.048   2.486  25.017  0.00  0.00    +0.084 A 
ATOM     12  C   UNL     1      -5.574   1.851  24.983  0.00  0.00    +0.012 A 
ATOM     13  C   UNL     1      -6.113   1.932  25.601  0.00  0.00    +0.008 A 
ATOM     14  C   UNL     1      -5.921   2.618  26.018  0.00  0.00    +0.036 A 
ATOM     15  S   UNL     1      -5.264   2.960  25.657  0.00  0.00    -0.082 S 
ENDBRANCH   9  11
ENDBRANCH   7   8
ENDBRANCH   6   7
BRANCH   3  16
ATOM     16  N   UNL     1      -0.599   0.961  23.453  0.00  0.00    -0.209 NA
BRANCH  16  17
ATOM     17  C   UNL     1       0.057   0.684  23.869  0.00  0.00    +0.115 C 
BRANCH  17  18
ATOM     18  C   UNL     1       0.756   0.505  23.469  0.00  0.00    -0.005 A 
ATOM     19  C   UNL     1       0.783  -0.139  22.953  0.00  0.00    -0.001 A 
ATOM     20  C   UNL     1       1.481  -0.317  22.553  0.00  0.00    +0.029 A 
ATOM     21  C   UNL     1       2.153   0.148  22.668  0.00  0.00    +0.140 A 
ATOM     22  F   UNL     1       2.852  -0.031  22.267  0.00  0.00    -0.204 F 
ATOM     23  C   UNL     1       2.126   0.792  23.183  0.00  0.00    +0.029 A 
ATOM     24  C   UNL     1       1.427   0.970  23.583  0.00  0.00    -0.001 A 
ENDBRANCH  17  18
ENDBRANCH  16  17
ENDBRANCH   3  16
TORSDOF 6
ENDMDL
MODEL 7
REMARK VINA RESULT:      -7.5      4.447      5.100
REMARK  Name = 
REMARK  6 active torsions:
REMARK  status: ('A' for Active; 'I' for Inactive)
REMARK    1  A    between atoms: C_3  and  N_16
REMARK    2  A    between atoms: C_6  and  C_7
REMARK    3  A    between atoms: C_7  and  N_8
REMARK    4  A    between atoms: C_9  and  C_11
REMARK    5  A    between atoms: N_16  and  C_17
REMARK    6  A    between atoms: C_17  and  C_18
REMARK                            x       y       z     vdW  Elec       q    Type
REMARK                         _______ _______ _______ _____ _____    ______ ____
ROOT
ATOM      1  O   UNL     1      -0.427   0.928  22.940  0.00  0.00    -0.219 OA
ATOM      2  C   UNL     1      -0.206   0.287  23.409  0.00  0.00    +0.199 C 
ATOM      3  C   UNL     1      -0.644  -0.034  24.030  0.00  0.00    +0.135 C 
ATOM      4  C   UNL     1      -0.216  -0.665  24.344  0.00  0.00    +0.162 C 
ATOM      5  O   UNL     1       0.487  -0.735  23.917  0.00  0.00    -0.350 OA
ATOM      6  C   UNL     1       0.494  -0.146  23.339  0.00  0.00    +0.169 C 
ENDROOT
BRANCH   6   7
ATOM      7  C   UNL     1       1.093  -0.014  22.789  0.00  0.00    +0.148 C 
BRANCH   7   8
ATOM      8  N   UNL     1       1.870   0.094  23.044  0.00  0.00    -0.199 NA
ATOM      9  C   UNL     1       2.487   0.099  22.496  0.00  0.00    +0.271 C 
ATOM     10  O   UNL     1       2.326  -0.003  21.693  0.00  0.00    -0.268 OA
BRANCH   9  11
ATOM     11  C   UNL     1       3.264   0.208  22.750  0.00  0.00    +0.084 A 
ATOM     12  C   UNL     1       3.738  -0.360  23.117  0.00  0.00    +0.012 A 
ATOM     13  C   UNL     1       4.470  -0.016  23.276  0.00  0.00    +0.008 A 
ATOM     14  C   UNL     1       4.449   0.764  23.009  0.00  0.00    +0.036 A 
ATOM     15  S   UNL     1       3.704   0.902  22.684  0.00  0.00    -0.082 S 
ENDBRANCH   9  11
ENDBRANCH   7   8
ENDBRANCH   6   7
BRANCH   3  16
ATOM     16  N   UNL     1      -1.381   0.230  24.291  0.00  0.00    -0.209 NA
BRANCH  16  17
ATOM     17  C   UNL     1      -1.844  -0.251  24.775  0.00  0.00    +0.115 C 
BRANCH  17  18
ATOM     18  C   UNL     1      -2.650  -0.098  24.859  0.00  0.00    -0.005 A 
ATOM     19  C   UNL     1      -2.915   0.676  24.964  0.00  0.00    -0.001 A 
ATOM     20  C   UNL     1      -3.721   0.829  25.048  0.00  0.00    +0.029 A 
ATOM     21  C   UNL     1      -4.262   0.208  25.027  0.00  0.00    +0.140 A 
ATOM     22  F   UNL     1      -5.069   0.360  25.111  0.00  0.00    -0.204 F 
ATOM     23  C   UNL     1      -3.998  -0.567  24.922  0.00  0.00    +0.029 A 
ATOM     24  C   UNL     1      -3.192  -0.719  24.838  0.00  0.00    -0.001 A 
ENDBRANCH  17  18
ENDBRANCH  16  17
ENDBRANCH   3  16
TORSDOF 6
ENDMDL
MODEL 8
REMARK VINA RESULT:      -6.9     17.950     19.213
REMARK  Name = 
REMARK  6 active torsions:
REMARK  status: ('A' for Active; 'I' for Inactive)
REMARK    1  A    between atoms: C_3  and  N_16
REMARK    2  A    between atoms: C_6  and  C_7
REMARK    3  A    between atoms: C_7  and  N_8
REMARK    4  A    between atoms: C_9  and  C_11
REMARK    5  A    between atoms: N_16  and  C_17
REMARK    6  A    between atoms: C_17  and  C_18
REMARK                            x       y       z     vdW  Elec       q    Type
REMARK                         _______ _______ _______ _____ _____    ______ ____
ROOT
ATOM      1  O   UNL     1      12.955   6.573  18.855  0.00  0.00    -0.219 OA
ATOM      2  C   UNL     1      13.089   7.340  19.128  0.00  0.00    +0.199 C 
ATOM      3  C   UNL     1      12.752   8.028  18.824  0.00  0.00    +0.135 C 
ATOM      4  C   UNL     1      13.039   8.666  19.261  0.00  0.00    +0.162 C 
ATOM      5  O   UNL     1      13.553   8.372  19.835  0.00  0.00    -0.350 OA
ATOM      6  C   UNL     1      13.585   7.552  19.753  0.00  0.00    +0.169 C 
ENDROOT
BRANCH   6   7
ATOM      7  C   UNL     1      14.032   7.036  20.214  0.00  0.00    +0.148 C 
BRANCH   7   8
ATOM      8  N   UNL     1      14.856   7.086  20.209  0.00  0.00    -0.199 NA
ATOM      9  C   UNL     1      15.303   6.583  20.686  0.00  0.00    +0.271 C 
ATOM     10  O   UNL     1      14.927   6.029  21.167  0.00  0.00    -0.268 OA
BRANCH   9  11
ATOM     11  C   UNL     1      16.127   6.634  20.681  0.00  0.00    +0.084 A 
ATOM     12  C   UNL     1      16.595   6.979  21.266  0.00  0.00    +0.012 A 
ATOM     13  C   UNL     1      17.384   6.907  21.036  0.00  0.00    +0.008 A 
ATOM     14  C   UNL     1      17.403   6.518  20.309  0.00  0.00    +0.036 A 
ATOM     15  S   UNL     1      16.627   6.349  20.090  0.00  0.00    -0.082 S 
ENDBRANCH   9  11
ENDBRANCH   7   8
ENDBRANCH   6   7
BRANCH   3  16
ATOM     16  N   UNL     1      12.221   8.071  18.194  0.00  0.00    -0.209 NA
BRANCH  16  17
ATOM     17  C   UNL     1      12.011   8.805  17.880  0.00  0.00    +0.115 C 
BRANCH  17  18
ATOM     18  C   UNL     1      11.591   8.846  17.172  0.00  0.00    -0.005 A 
ATOM     19  C   UNL     1      11.980   9.047  16.472  0.00  0.00    -0.001 A 
ATOM     20  C   UNL     1      11.561   9.088  15.764  0.00  0.00    +0.029 A 
ATOM     21  C   UNL     1      10.751   8.929  15.754  0.00  0.00    +0.140 A 
ATOM     22  F   UNL     1      10.331   8.970  15.045  0.00  0.00    -0.204 F 
ATOM     23  C   UNL     1      10.362   8.728  16.453  0.00  0.00    +0.029 A 
ATOM     24  C   UNL     1      10.782   8.687  17.162  0.00  0.00    -0.001 A 
ENDBRANCH  17  18
ENDBRANCH  16  17
ENDBRANCH   3  16
TORSDOF 6
ENDMDL
MODEL 9
REMARK VINA RESULT:      -6.0     16.383     18.754
REMARK  Name = 
REMARK  6 active torsions:
REMARK  status: ('A' for Active; 'I' for Inactive)
REMARK    1  A    between atoms: C_3  and  N_16
REMARK    2  A    between atoms: C_6  and  C_7
REMARK    3  A    between atoms: C_7  and  N_8
REMARK    4  A    between atoms: C_9  and  C_11
REMARK    5  A    between atoms: N_16  and  C_17
REMARK    6  A    between atoms: C_17  and  C_18
REMARK                            x       y       z     vdW  Elec       q    Type
REMARK                         _______ _______ _______ _____ _____    ______ ____
ROOT
ATOM      1  O   UNL     1      12.758   7.052  18.887  0.00  0.00    -0.219 OA
ATOM      2  C   UNL     1      13.116   7.771  19.077  0.00  0.00    +0.199 C 
ATOM      3  C   UNL     1      13.908   7.965  18.953  0.00  0.00    +0.135 C 
ATOM      4  C   UNL     1      14.026   8.735  19.223  0.00  0.00    +0.162 C 
ATOM      5  O   UNL     1      13.307   9.017  19.514  0.00  0.00    -0.350 OA
ATOM      6  C   UNL     1      12.745   8.421  19.423  0.00  0.00    +0.169 C 
ENDROOT
BRANCH   6   7
ATOM      7  C   UNL     1      11.951   8.467  19.641  0.00  0.00    +0.148 C 
BRANCH   7   8
ATOM      8  N   UNL     1      11.741   8.459  20.439  0.00  0.00    -0.199 NA
ATOM      9  C   UNL     1      10.945   8.448  20.656  0.00  0.00    +0.271 C 
ATOM     10  O   UNL     1      10.359   8.444  20.075  0.00  0.00    -0.268 OA
BRANCH   9  11
ATOM     11  C   UNL     1      10.735   8.440  21.454  0.00  0.00    +0.084 A 
ATOM     12  C   UNL     1      10.508   7.777  21.889  0.00  0.00    +0.012 A 
ATOM     13  C   UNL     1      10.348   8.021  22.660  0.00  0.00    +0.008 A 
ATOM     14  C   UNL     1      10.477   8.835  22.702  0.00  0.00    +0.036 A 
ATOM     15  S   UNL     1      10.716   9.093  21.957  0.00  0.00    -0.082 S 
ENDBRANCH   9  11
ENDBRANCH   7   8
ENDBRANCH   6   7
BRANCH   3  16
ATOM     16  N   UNL     1      14.481   7.475  18.618  0.00  0.00    -0.209 NA
BRANCH  16  17
ATOM     17  C   UNL     1      15.281   7.619  18.760  0.00  0.00    +0.115 C 
BRANCH  17  18
ATOM     18  C   UNL     1      15.812   6.989  18.804  0.00  0.00    -0.005 A 
ATOM     19  C   UNL     1      16.030   6.583  18.120  0.00  0.00    -0.001 A 
ATOM     20  C   UNL     1      16.561   5.954  18.165  0.00  0.00    +0.029 A 
ATOM     21  C   UNL     1      16.874   5.730  18.894  0.00  0.00    +0.140 A 
ATOM     22  F   UNL     1      17.405   5.100  18.939  0.00  0.00    -0.204 F 
ATOM     23  C   UNL     1      16.657   6.135  19.579  0.00  0.00    +0.029 A 
ATOM     24  C   UNL     1      16.125   6.765  19.534  0.00  0.00    -0.001 A 
ENDBRANCH  17  18
ENDBRANCH  16  17
ENDBRANCH   3  16
TORSDOF 6
ENDMDL
MODEL 10
REMARK VINA RESULT:      -5.9     16.570     19.026
REMARK  Name = 
REMARK  6 active torsions:
REMARK  status: ('A' for Active; 'I' for Inactive)
REMARK    1  A    between atoms: C_3  and  N_16
REMARK    2  A    between atoms: C_6  and  C_7
REMARK    3  A    between atoms: C_7  and  N_8
REMARK    4  A    between atoms: C_9  and  C_11
REMARK    5  A    between atoms: N_16  and  C_17
REMARK    6  A    between atoms: C_17  and  C_18
REMARK                            x       y       z     vdW  Elec       q    Type
REMARK                         _______ _______ _______ _____ _____    ______ ____
ROOT
ATOM      1  O   UNL     1      14.415   7.594  22.220  0.00  0.00    -0.219 OA
ATOM      2  C   UNL     1      14.318   8.122  21.594  0.00  0.00    +0.199 C 
ATOM      3  C   UNL     1      13.642   8.564  21.433  0.00  0.00    +0.135 C 
ATOM      4  C   UNL     1      13.787   9.015  20.758  0.00  0.00    +0.162 C 
ATOM      5  O   UNL     1      14.553   8.851  20.501  0.00  0.00    -0.350 OA
ATOM      6  C   UNL     1      14.882   8.299  21.018  0.00  0.00    +0.169 C 
ENDROOT
BRANCH   6   7
ATOM      7  C   UNL     1      15.641   7.980  20.968  0.00  0.00    +0.148 C 
BRANCH   7   8
ATOM      8  N   UNL     1      15.817   7.424  20.385  0.00  0.00    -0.199 NA
ATOM      9  C   UNL     1      16.597   7.186  20.263  0.00  0.00    +0.271 C 
ATOM     10  O   UNL     1      17.202   7.505  20.725  0.00  0.00    -0.268 OA
BRANCH   9  11
ATOM     11  C   UNL     1      16.773   6.629  19.680  0.00  0.00    +0.084 A 
ATOM     12  C   UNL     1      16.347   6.504  18.984  0.00  0.00    +0.012 A 
ATOM     13  C   UNL     1      16.716   5.898  18.565  0.00  0.00    +0.008 A 
ATOM     14  C   UNL     1      17.370   5.648  19.001  0.00  0.00    +0.036 A 
ATOM     15  S   UNL     1      17.405   6.099  19.689  0.00  0.00    -0.082 S 
ENDBRANCH   9  11
ENDBRANCH   7   8
ENDBRANCH   6   7
BRANCH   3  16
ATOM     16  N   UNL     1      12.942   8.557  21.870  0.00  0.00    -0.209 NA
BRANCH  16  17
ATOM     17  C   UNL     1      12.221   8.708  21.499  0.00  0.00    +0.115 C 
BRANCH  17  18
ATOM     18  C   UNL     1      11.530   8.358  21.781  0.00  0.00    -0.005 A 
ATOM     19  C   UNL     1      11.230   7.683  21.415  0.00  0.00    -0.001 A 
ATOM     20  C   UNL     1      10.539   7.333  21.697  0.00  0.00    +0.029 A 
ATOM     21  C   UNL     1      10.147   7.658  22.346  0.00  0.00    +0.140 A 
ATOM     22  F   UNL     1       9.455   7.308  22.628  0.00  0.00    -0.204 F 
ATOM     23  C   UNL     1      10.446   8.334  22.712  0.00  0.00    +0.029 A 
ATOM     24  C   UNL     1      11.138   8.684  22.429  0.00  0.00    -0.001 A 
ENDBRANCH  17  18
ENDBRANCH  16  17
ENDBRANCH   3  16
TORSDOF 6
ENDMDL
