MODEL 1
REMARK VINA RESULT:     -10.0      0.000      0.000
REMARK  Name = 
REMARK  9 active torsions:
REMARK  status: ('A' for Active; 'I' for Inactive)
REMARK    1  A    between atoms: O_2  and  C_3
REMARK    2  A    between atoms: C_3  and  C_4
REMARK    3  A    between atoms: C_4  and  O_5
REMARK    4  A    between atoms: O_5  and  C_6
REMARK    5  A    between atoms: C_7  and  C_12
REMARK    6  A    between atoms: C_15  and  C_17
REMARK    7  A    between atoms: N_21  and  C_22
REMARK    8  A    between atoms: C_22  and  C_23
REMARK    9  A    between atoms: C_26  and  C_27
REMARK                            x       y       z     vdW  Elec       q    Type
REMARK                         _______ _______ _______ _____ _____    ______ ____
ROOT
ATOM     12  C   UNL     1      -2.836   3.226  24.532  0.00  0.00    +0.208 A 
ATOM     13  N   UNL     1      -3.185   3.215  23.785  0.00  0.00    -0.056 NA
ATOM     14  O   UNL     1      -3.851   2.728  23.823  0.00  0.00    -0.336 OA
ATOM     15  C   UNL     1      -3.911   2.438  24.593  0.00  0.00    +0.251 A 
ATOM     16  N   UNL     1      -3.283   2.746  25.032  0.00  0.00    -0.189 NA
ENDROOT
BRANCH  12   7
ATOM      6  C   UNL     1      -1.414   3.291  24.665  0.00  0.00    +0.228 A 
ATOM      7  C   UNL     1      -2.156   3.644  24.742  0.00  0.00    +0.092 A 
ATOM      8  C   UNL     1      -2.218   4.415  25.030  0.00  0.00    +0.009 A 
ATOM      9  C   UNL     1      -1.539   4.833  25.240  0.00  0.00    +0.021 A 
ATOM     10  C   UNL     1      -0.797   4.479  25.163  0.00  0.00    +0.102 A 
ATOM     11  N   UNL     1      -0.735   3.709  24.875  0.00  0.00    -0.210 NA
BRANCH   6   5
ATOM      5  O   UNL     1      -1.352   2.520  24.377  0.00  0.00    -0.457 OA
BRANCH   5   4
ATOM      4  C   UNL     1      -0.631   2.122  24.418  0.00  0.00    +0.239 C 
BRANCH   4   3
ATOM      3  C   UNL     1      -0.521   1.423  23.993  0.00  0.00    +0.189 C 
BRANCH   3   2
ATOM      1  C   UNL     1      -0.167   0.039  23.958  0.00  0.00    +0.174 C 
ATOM      2  O   UNL     1      -0.272   0.739  24.382  0.00  0.00    -0.347 OA
ENDBRANCH   3   2
ENDBRANCH   4   3
ENDBRANCH   5   4
ENDBRANCH   6   5
ENDBRANCH  12   7
BRANCH  15  17
ATOM     17  C   UNL     1      -4.496   1.929  24.876  0.00  0.00    +0.138 C 
ATOM     18  C   UNL     1      -5.144   2.145  25.338  0.00  0.00    +0.027 C 
ATOM     19  C   UNL     1      -5.585   1.465  25.493  0.00  0.00    +0.019 C 
ATOM     20  C   UNL     1      -5.208   0.828  25.126  0.00  0.00    +0.073 C 
ATOM     21  N   UNL     1      -4.536   1.115  24.745  0.00  0.00    -0.260 NA
BRANCH  21  22
ATOM     22  C   UNL     1      -3.997   0.667  24.309  0.00  0.00    +0.138 C 
BRANCH  22  23
ATOM     23  C   UNL     1      -3.937  -0.145  24.437  0.00  0.00    +0.139 A 
ATOM     24  C   UNL     1      -4.295  -0.735  23.984  0.00  0.00    +0.037 A 
ATOM     25  C   UNL     1      -4.088  -1.464  24.308  0.00  0.00    +0.038 A 
ATOM     26  C   UNL     1      -3.603  -1.327  24.960  0.00  0.00    +0.156 A 
ATOM     29  O   UNL     1      -3.509  -0.511  25.040  0.00  0.00    -0.458 OA
BRANCH  26  27
ATOM     27  C   UNL     1      -3.269  -1.903  25.448  0.00  0.00    +0.246 C 
ATOM     28  O   UNL     1      -3.526  -2.686  25.396  0.00  0.00    -0.212 OA
ENDBRANCH  26  27
ENDBRANCH  22  23
ENDBRANCH  21  22
ENDBRANCH  15  17
TORSDOF 9
ENDMDL
MODEL 2
REMARK VINA RESULT:      -9.8      1.308      4.376
REMARK  Name = 
REMARK  9 active torsions:
REMARK  status: ('A' for Active; 'I' for Inactive)
REMARK    1  A    between atoms: O_2  and  C_3
REMARK    2  A    between atoms: C_3  and  C_4
REMARK    3  A    between atoms: C_4  and  O_5
REMARK    4  A    between atoms: O_5  and  C_6
REMARK    5  A    between atoms: C_7  and  C_12
REMARK    6  A    between atoms: C_15  and  C_17
REMARK    7  A    between atoms: N_21  and  C_22
REMARK    8  A    between atoms: C_22  and  C_23
REMARK    9  A    between atoms: C_26  and  C_27
REMARK                            x       y       z     vdW  Elec       q    Type
REMARK                         _______ _______ _______ _____ _____    ______ ____
ROOT
ATOM     12  C   UNL     1      -3.607  -0.203  24.292  0.00  0.00    +0.208 A 
ATOM     13  N   UNL     1      -3.620   0.177  23.561  0.00  0.00    -0.056 NA
ATOM     14  O   UNL     1      -3.842   0.962  23.686  0.00  0.00    -0.336 OA
ATOM     15  C   UNL     1      -3.965   1.066  24.495  0.00  0.00    +0.251 A 
ATOM     16  N   UNL     1      -3.820   0.345  24.870  0.00  0.00    -0.189 NA
ENDROOT
BRANCH  12   7
ATOM      6  C   UNL     1      -2.627  -1.214  24.542  0.00  0.00    +0.228 A 
ATOM      7  C   UNL     1      -3.414  -0.995  24.423  0.00  0.00    +0.092 A 
ATOM      8  C   UNL     1      -4.008  -1.568  24.436  0.00  0.00    +0.009 A 
ATOM      9  C   UNL     1      -3.815  -2.359  24.567  0.00  0.00    +0.021 A 
ATOM     10  C   UNL     1      -3.028  -2.577  24.686  0.00  0.00    +0.102 A 
ATOM     11  N   UNL     1      -2.435  -2.005  24.673  0.00  0.00    -0.210 NA
BRANCH   6   5
ATOM      5  O   UNL     1      -2.033  -0.640  24.529  0.00  0.00    -0.457 OA
BRANCH   5   4
ATOM      4  C   UNL     1      -1.241  -0.869  24.537  0.00  0.00    +0.239 C 
BRANCH   4   3
ATOM      3  C   UNL     1      -0.649  -0.299  24.623  0.00  0.00    +0.189 C 
BRANCH   3   2
ATOM      1  C   UNL     1       0.241   0.582  23.935  0.00  0.00    +0.174 C 
ATOM      2  O   UNL     1      -0.123  -0.156  24.004  0.00  0.00    -0.347 OA
ENDBRANCH   3   2
ENDBRANCH   4   3
ENDBRANCH   5   4
ENDBRANCH   6   5
ENDBRANCH  12   7
BRANCH  15  17
ATOM     17  C   UNL     1      -4.194   1.768  24.865  0.00  0.00    +0.138 C 
ATOM     18  C   UNL     1      -4.934   1.922  25.196  0.00  0.00    +0.027 C 
ATOM     19  C   UNL     1      -4.920   2.687  25.503  0.00  0.00    +0.019 C 
ATOM     20  C   UNL     1      -4.172   3.006  25.362  0.00  0.00    +0.073 C 
ATOM     21  N   UNL     1      -3.724   2.437  24.968  0.00  0.00    -0.260 NA
BRANCH  21  22
ATOM     22  C   UNL     1      -2.941   2.523  24.719  0.00  0.00    +0.138 C 
BRANCH  22  23
ATOM     23  C   UNL     1      -2.474   3.128  25.028  0.00  0.00    +0.139 A 
ATOM     24  C   UNL     1      -1.986   3.074  25.691  0.00  0.00    +0.037 A 
ATOM     25  C   UNL     1      -1.624   3.806  25.801  0.00  0.00    +0.038 A 
ATOM     26  C   UNL     1      -1.887   4.314  25.208  0.00  0.00    +0.156 A 
ATOM     29  O   UNL     1      -2.413   3.895  24.729  0.00  0.00    -0.458 OA
BRANCH  26  27
ATOM     27  C   UNL     1      -1.665   5.102  25.108  0.00  0.00    +0.246 C 
ATOM     28  O   UNL     1      -0.867   5.297  25.024  0.00  0.00    -0.212 OA
ENDBRANCH  26  27
ENDBRANCH  22  23
ENDBRANCH  21  22
ENDBRANCH  15  17
TORSDOF 9
ENDMDL
MODEL 3
REMARK VINA RESULT:      -9.7      1.309      2.960
REMARK  Name = 
REMARK  9 active torsions:
REMARK  status: ('A' for Active; 'I' for Inactive)
REMARK    1  A    between atoms: O_2  and  C_3
REMARK    2  A    between atoms: C_3  and  C_4
REMARK    3  A    between atoms: C_4  and  O_5
REMARK    4  A    between atoms: O_5  and  C_6
REMARK    5  A    between atoms: C_7  and  C_12
REMARK    6  A    between atoms: C_15  and  C_17
REMARK    7  A    between atoms: N_21  and  C_22
REMARK    8  A    between atoms: C_22  and  C_23
REMARK    9  A    between atoms: C_26  and  C_27
REMARK                            x       y       z     vdW  Elec       q    Type
REMARK                         _______ _______ _______ _____ _____    ______ ____
ROOT
ATOM     12  C   UNL     1      -1.496   2.624  24.369  0.00  0.00    +0.208 A 
ATOM     13  N   UNL     1      -1.738   2.399  23.614  0.00  0.00    -0.056 NA
ATOM     14  O   UNL     1      -1.615   1.587  23.539  0.00  0.00    -0.336 OA
ATOM     15  C   UNL     1      -1.297   1.310  24.248  0.00  0.00    +0.251 A 
ATOM     16  N   UNL     1      -1.223   1.952  24.762  0.00  0.00    -0.189 NA
ENDROOT
BRANCH  12   7
ATOM      6  C   UNL     1      -2.226   3.683  24.992  0.00  0.00    +0.228 A 
ATOM      7  C   UNL     1      -1.522   3.388  24.679  0.00  0.00    +0.092 A 
ATOM      8  C   UNL     1      -0.843   3.859  24.675  0.00  0.00    +0.009 A 
ATOM      9  C   UNL     1      -0.869   4.623  24.985  0.00  0.00    +0.021 A 
ATOM     10  C   UNL     1      -1.574   4.917  25.298  0.00  0.00    +0.102 A 
ATOM     11  N   UNL     1      -2.252   4.448  25.301  0.00  0.00    -0.210 NA
BRANCH   6   5
ATOM      5  O   UNL     1      -2.904   3.213  24.995  0.00  0.00    -0.457 OA
BRANCH   5   4
ATOM      4  C   UNL     1      -3.592   3.485  25.360  0.00  0.00    +0.239 C 
BRANCH   4   3
ATOM      3  C   UNL     1      -4.292   3.052  25.297  0.00  0.00    +0.189 C 
BRANCH   3   2
ATOM      1  C   UNL     1      -5.569   2.692  25.829  0.00  0.00    +0.174 C 
ATOM      2  O   UNL     1      -4.915   3.196  25.818  0.00  0.00    -0.347 OA
ENDBRANCH   3   2
ENDBRANCH   4   3
ENDBRANCH   5   4
ENDBRANCH   6   5
ENDBRANCH  12   7
BRANCH  15  17
ATOM     17  C   UNL     1      -1.089   0.529  24.415  0.00  0.00    +0.138 C 
ATOM     18  C   UNL     1      -0.332   0.206  24.357  0.00  0.00    +0.027 C 
ATOM     19  C   UNL     1      -0.377  -0.588  24.575  0.00  0.00    +0.019 C 
ATOM     20  C   UNL     1      -1.162  -0.756  24.767  0.00  0.00    +0.073 C 
ATOM     21  N   UNL     1      -1.601  -0.066  24.668  0.00  0.00    -0.260 NA
BRANCH  21  22
ATOM     22  C   UNL     1      -2.412   0.016  24.799  0.00  0.00    +0.138 C 
BRANCH  22  23
ATOM     23  C   UNL     1      -2.888  -0.653  24.873  0.00  0.00    +0.139 A 
ATOM     24  C   UNL     1      -3.116  -1.011  25.582  0.00  0.00    +0.037 A 
ATOM     25  C   UNL     1      -3.587  -1.661  25.399  0.00  0.00    +0.038 A 
ATOM     26  C   UNL     1      -3.652  -1.707  24.578  0.00  0.00    +0.156 A 
ATOM     29  O   UNL     1      -3.219  -1.084  24.253  0.00  0.00    -0.458 OA
BRANCH  26  27
ATOM     27  C   UNL     1      -4.074  -2.276  24.155  0.00  0.00    +0.246 C 
ATOM     28  O   UNL     1      -3.793  -3.050  24.111  0.00  0.00    -0.212 OA
ENDBRANCH  26  27
ENDBRANCH  22  23
ENDBRANCH  21  22
ENDBRANCH  15  17
TORSDOF 9
ENDMDL
MODEL 4
REMARK VINA RESULT:      -9.5      1.483      3.316
REMARK  Name = 
REMARK  9 active torsions:
REMARK  status: ('A' for Active; 'I' for Inactive)
REMARK    1  A    between atoms: O_2  and  C_3
REMARK    2  A    between atoms: C_3  and  C_4
REMARK    3  A    between atoms: C_4  and  O_5
REMARK    4  A    between atoms: O_5  and  C_6
REMARK    5  A    between atoms: C_7  and  C_12
REMARK    6  A    between atoms: C_15  and  C_17
REMARK    7  A    between atoms: N_21  and  C_22
REMARK    8  A    between atoms: C_22  and  C_23
REMARK    9  A    between atoms: C_26  and  C_27
REMARK                            x       y       z     vdW  Elec       q    Type
REMARK                         _______ _______ _______ _____ _____    ______ ____
ROOT
ATOM     12  C   UNL     1      -4.385   1.521  24.619  0.00  0.00    +0.208 A 
ATOM     13  N   UNL     1      -4.062   1.523  23.860  0.00  0.00    -0.056 NA
ATOM     14  O   UNL     1      -3.778   0.764  23.703  0.00  0.00    -0.336 OA
ATOM     15  C   UNL     1      -3.926   0.294  24.365  0.00  0.00    +0.251 A 
ATOM     16  N   UNL     1      -4.301   0.762  24.931  0.00  0.00    -0.189 NA
ENDROOT
BRANCH  12   7
ATOM      6  C   UNL     1      -4.266   2.802  25.240  0.00  0.00    +0.228 A 
ATOM      7  C   UNL     1      -4.732   2.166  24.999  0.00  0.00    +0.092 A 
ATOM      8  C   UNL     1      -5.546   2.174  25.139  0.00  0.00    +0.009 A 
ATOM      9  C   UNL     1      -5.892   2.819  25.520  0.00  0.00    +0.021 A 
ATOM     10  C   UNL     1      -5.425   3.455  25.760  0.00  0.00    +0.102 A 
ATOM     11  N   UNL     1      -4.613   3.447  25.621  0.00  0.00    -0.210 NA
BRANCH   6   5
ATOM      5  O   UNL     1      -3.452   2.794  25.100  0.00  0.00    -0.457 OA
BRANCH   5   4
ATOM      4  C   UNL     1      -2.984   3.424  25.356  0.00  0.00    +0.239 C 
BRANCH   4   3
ATOM      3  C   UNL     1      -2.181   3.444  25.165  0.00  0.00    +0.189 C 
BRANCH   3   2
ATOM      1  C   UNL     1      -0.991   4.233  25.110  0.00  0.00    +0.174 C 
ATOM      2  O   UNL     1      -1.696   4.028  25.487  0.00  0.00    -0.347 OA
ENDBRANCH   3   2
ENDBRANCH   4   3
ENDBRANCH   5   4
ENDBRANCH   6   5
ENDBRANCH  12   7
BRANCH  15  17
ATOM     17  C   UNL     1      -3.732  -0.504  24.446  0.00  0.00    +0.138 C 
ATOM     18  C   UNL     1      -4.202  -1.142  24.220  0.00  0.00    +0.027 C 
ATOM     19  C   UNL     1      -3.794  -1.836  24.402  0.00  0.00    +0.019 C 
ATOM     20  C   UNL     1      -3.071  -1.626  24.739  0.00  0.00    +0.073 C 
ATOM     21  N   UNL     1      -3.033  -0.803  24.766  0.00  0.00    -0.260 NA
BRANCH  21  22
ATOM     22  C   UNL     1      -2.405  -0.356  25.062  0.00  0.00    +0.138 C 
BRANCH  22  23
ATOM     23  C   UNL     1      -1.628  -0.608  24.946  0.00  0.00    +0.139 A 
ATOM     24  C   UNL     1      -1.177  -1.051  25.476  0.00  0.00    +0.037 A 
ATOM     25  C   UNL     1      -0.437  -1.178  25.136  0.00  0.00    +0.038 A 
ATOM     26  C   UNL     1      -0.429  -0.814  24.396  0.00  0.00    +0.156 A 
ATOM     29  O   UNL     1      -1.166  -0.462  24.278  0.00  0.00    -0.458 OA
BRANCH  26  27
ATOM     27  C   UNL     1       0.203  -0.804  23.867  0.00  0.00    +0.246 C 
ATOM     28  O   UNL     1       0.444  -0.091  23.527  0.00  0.00    -0.212 OA
ENDBRANCH  26  27
ENDBRANCH  22  23
ENDBRANCH  21  22
ENDBRANCH  15  17
TORSDOF 9
ENDMDL
MODEL 5
REMARK VINA RESULT:      -9.4      1.149      3.610
REMARK  Name = 
REMARK  9 active torsions:
REMARK  status: ('A' for Active; 'I' for Inactive)
REMARK    1  A    between atoms: O_2  and  C_3
REMARK    2  A    between atoms: C_3  and  C_4
REMARK    3  A    between atoms: C_4  and  O_5
REMARK    4  A    between atoms: O_5  and  C_6
REMARK    5  A    between atoms: C_7  and  C_12
REMARK    6  A    between atoms: C_15  and  C_17
REMARK    7  A    between atoms: N_21  and  C_22
REMARK    8  A    between atoms: C_22  and  C_23
REMARK    9  A    between atoms: C_26  and  C_27
REMARK                            x       y       z     vdW  Elec       q    Type
REMARK                         _______ _______ _______ _____ _____    ______ ____
ROOT
ATOM     12  C   UNL     1      -3.445   2.589  24.759  0.00  0.00    +0.208 A 
ATOM     13  N   UNL     1      -3.183   2.844  24.021  0.00  0.00    -0.056 NA
ATOM     14  O   UNL     1      -2.358   2.819  24.021  0.00  0.00    -0.336 OA
ATOM     15  C   UNL     1      -2.111   2.548  24.760  0.00  0.00    +0.251 A 
ATOM     16  N   UNL     1      -2.784   2.405  25.217  0.00  0.00    -0.189 NA
ENDROOT
BRANCH  12   7
ATOM      6  C   UNL     1      -4.630   1.808  24.930  0.00  0.00    +0.228 A 
ATOM      7  C   UNL     1      -4.232   2.527  24.999  0.00  0.00    +0.092 A 
ATOM      8  C   UNL     1      -4.622   3.186  25.309  0.00  0.00    +0.009 A 
ATOM      9  C   UNL     1      -5.409   3.124  25.549  0.00  0.00    +0.021 A 
ATOM     10  C   UNL     1      -5.806   2.404  25.479  0.00  0.00    +0.102 A 
ATOM     11  N   UNL     1      -5.417   1.746  25.170  0.00  0.00    -0.210 NA
BRANCH   6   5
ATOM      5  O   UNL     1      -4.240   1.150  24.620  0.00  0.00    -0.457 OA
BRANCH   5   4
ATOM      4  C   UNL     1      -4.585   0.402  24.676  0.00  0.00    +0.239 C 
BRANCH   4   3
ATOM      3  C   UNL     1      -4.304  -0.217  24.207  0.00  0.00    +0.189 C 
BRANCH   3   2
ATOM      1  C   UNL     1      -4.225  -1.629  23.999  0.00  0.00    +0.174 C 
ATOM      2  O   UNL     1      -4.277  -0.983  24.511  0.00  0.00    -0.347 OA
ENDBRANCH   3   2
ENDBRANCH   4   3
ENDBRANCH   5   4
ENDBRANCH   6   5
ENDBRANCH  12   7
BRANCH  15  17
ATOM     17  C   UNL     1      -1.329   2.438  25.000  0.00  0.00    +0.138 C 
ATOM     18  C   UNL     1      -0.920   2.901  25.547  0.00  0.00    +0.027 C 
ATOM     19  C   UNL     1      -0.158   2.596  25.620  0.00  0.00    +0.019 C 
ATOM     20  C   UNL     1      -0.095   1.943  25.118  0.00  0.00    +0.073 C 
ATOM     21  N   UNL     1      -0.819   1.847  24.735  0.00  0.00    -0.260 NA
BRANCH  21  22
ATOM     22  C   UNL     1      -1.001   1.260  24.184  0.00  0.00    +0.138 C 
BRANCH  22  23
ATOM     23  C   UNL     1      -0.717   0.493  24.288  0.00  0.00    +0.139 A 
ATOM     24  C   UNL     1      -0.114   0.136  23.852  0.00  0.00    +0.037 A 
ATOM     25  C   UNL     1      -0.010  -0.629  24.141  0.00  0.00    +0.038 A 
ATOM     26  C   UNL     1      -0.548  -0.746  24.756  0.00  0.00    +0.156 A 
ATOM     29  O   UNL     1      -0.985  -0.052  24.847  0.00  0.00    -0.458 OA
BRANCH  26  27
ATOM     27  C   UNL     1      -0.635  -1.434  25.201  0.00  0.00    +0.246 C 
ATOM     28  O   UNL     1      -0.974  -2.106  24.861  0.00  0.00    -0.212 OA
ENDBRANCH  26  27
ENDBRANCH  22  23
ENDBRANCH  21  22
ENDBRANCH  15  17
TORSDOF 9
ENDMDL
MODEL 6
REMARK VINA RESULT:      -9.3      1.537      5.299
REMARK  Name = 
REMARK  9 active torsions:
REMARK  status: ('A' for Active; 'I' for Inactive)
REMARK    1  A    between atoms: O_2  and  C_3
REMARK    2  A    between atoms: C_3  and  C_4
REMARK    3  A    between atoms: C_4  and  O_5
REMARK    4  A    between atoms: O_5  and  C_6
REMARK    5  A    between atoms: C_7  and  C_12
REMARK    6  A    between atoms: C_15  and  C_17
REMARK    7  A    between atoms: N_21  and  C_22
REMARK    8  A    between atoms: C_22  and  C_23
REMARK    9  A    between atoms: C_26  and  C_27
REMARK                            x       y       z     vdW  Elec       q    Type
REMARK                         _______ _______ _______ _____ _____    ______ ____
ROOT
ATOM     12  C   UNL     1      -2.272  -0.965  24.830  0.00  0.00    +0.208 A 
ATOM     13  N   UNL     1      -1.929  -0.975  25.580  0.00  0.00    -0.056 NA
ATOM     14  O   UNL     1      -1.273  -0.475  25.566  0.00  0.00    -0.336 OA
ATOM     15  C   UNL     1      -1.210  -0.157  24.807  0.00  0.00    +0.251 A 
ATOM     16  N   UNL     1      -1.828  -0.460  24.352  0.00  0.00    -0.189 NA
ENDROOT
BRANCH  12   7
ATOM      6  C   UNL     1      -3.675  -1.012  24.565  0.00  0.00    +0.228 A 
ATOM      7  C   UNL     1      -2.941  -1.388  24.599  0.00  0.00    +0.092 A 
ATOM      8  C   UNL     1      -2.878  -2.187  24.400  0.00  0.00    +0.009 A 
ATOM      9  C   UNL     1      -3.547  -2.609  24.168  0.00  0.00    +0.021 A 
ATOM     10  C   UNL     1      -4.281  -2.232  24.135  0.00  0.00    +0.102 A 
ATOM     11  N   UNL     1      -4.345  -1.435  24.333  0.00  0.00    -0.210 NA
BRANCH   6   5
ATOM      5  O   UNL     1      -3.739  -0.214  24.764  0.00  0.00    -0.457 OA
BRANCH   5   4
ATOM      4  C   UNL     1      -4.453   0.183  24.651  0.00  0.00    +0.239 C 
BRANCH   4   3
ATOM      3  C   UNL     1      -4.587   0.906  25.026  0.00  0.00    +0.189 C 
BRANCH   3   2
ATOM      1  C   UNL     1      -5.220   2.186  24.962  0.00  0.00    +0.174 C 
ATOM      2  O   UNL     1      -4.836   1.558  24.586  0.00  0.00    -0.347 OA
ENDBRANCH   3   2
ENDBRANCH   4   3
ENDBRANCH   5   4
ENDBRANCH   6   5
ENDBRANCH  12   7
BRANCH  15  17
ATOM     17  C   UNL     1      -0.631   0.372  24.549  0.00  0.00    +0.138 C 
ATOM     18  C   UNL     1      -0.078   0.232  23.954  0.00  0.00    +0.027 C 
ATOM     19  C   UNL     1       0.390   0.907  23.878  0.00  0.00    +0.019 C 
ATOM     20  C   UNL     1       0.126   1.464  24.427  0.00  0.00    +0.073 C 
ATOM     21  N   UNL     1      -0.505   1.133  24.841  0.00  0.00    -0.260 NA
BRANCH  21  22
ATOM     22  C   UNL     1      -0.936   1.499  25.443  0.00  0.00    +0.138 C 
BRANCH  22  23
ATOM     23  C   UNL     1      -1.004   2.321  25.459  0.00  0.00    +0.139 A 
ATOM     24  C   UNL     1      -0.464   2.846  25.796  0.00  0.00    +0.037 A 
ATOM     25  C   UNL     1      -0.751   3.611  25.687  0.00  0.00    +0.038 A 
ATOM     26  C   UNL     1      -1.468   3.560  25.283  0.00  0.00    +0.156 A 
ATOM     29  O   UNL     1      -1.625   2.762  25.142  0.00  0.00    -0.458 OA
BRANCH  26  27
ATOM     27  C   UNL     1      -1.946   4.194  25.059  0.00  0.00    +0.246 C 
ATOM     28  O   UNL     1      -1.844   4.933  25.413  0.00  0.00    -0.212 OA
ENDBRANCH  26  27
ENDBRANCH  22  23
ENDBRANCH  21  22
ENDBRANCH  15  17
TORSDOF 9
ENDMDL
MODEL 7
REMARK VINA RESULT:      -8.9      1.534      4.100
REMARK  Name = 
REMARK  9 active torsions:
REMARK  status: ('A' for Active; 'I' for Inactive)
REMARK    1  A    between atoms: O_2  and  C_3
REMARK    2  A    between atoms: C_3  and  C_4
REMARK    3  A    between atoms: C_4  and  O_5
REMARK    4  A    between atoms: O_5  and  C_6
REMARK    5  A    between atoms: C_7  and  C_12
REMARK    6  A    between atoms: C_15  and  C_17
REMARK    7  A    between atoms: N_21  and  C_22
REMARK    8  A    between atoms: C_22  and  C_23
REMARK    9  A    between atoms: C_26  and  C_27
REMARK                            x       y       z     vdW  Elec       q    Type
REMARK                         _______ _______ _______ _____ _____    ______ ____
ROOT
ATOM     12  C   UNL     1      -0.137   1.909  24.789  0.00  0.00    +0.208 A 
ATOM     13  N   UNL     1       0.043   2.011  25.587  0.00  0.00    -0.056 NA
ATOM     14  O   UNL     1      -0.273   2.734  25.829  0.00  0.00    -0.336 OA
ATOM     15  C   UNL     1      -0.648   3.078  25.179  0.00  0.00    +0.251 A 
ATOM     16  N   UNL     1      -0.564   2.568  24.536  0.00  0.00    -0.189 NA
ENDROOT
BRANCH  12   7
ATOM      6  C   UNL     1      -0.384   0.575  24.341  0.00  0.00    +0.228 A 
ATOM      7  C   UNL     1       0.074   1.261  24.325  0.00  0.00    +0.092 A 
ATOM      8  C   UNL     1       0.743   1.298  23.842  0.00  0.00    +0.009 A 
ATOM      9  C   UNL     1       0.953   0.650  23.377  0.00  0.00    +0.021 A 
ATOM     10  C   UNL     1       0.495  -0.036  23.395  0.00  0.00    +0.102 A 
ATOM     11  N   UNL     1      -0.174  -0.074  23.876  0.00  0.00    -0.210 NA
BRANCH   6   5
ATOM      5  O   UNL     1      -1.053   0.537  24.823  0.00  0.00    -0.457 OA
BRANCH   5   4
ATOM      4  C   UNL     1      -1.578  -0.095  24.751  0.00  0.00    +0.239 C 
BRANCH   4   3
ATOM      3  C   UNL     1      -2.144  -0.230  25.337  0.00  0.00    +0.189 C 
BRANCH   3   2
ATOM      1  C   UNL     1      -3.420  -0.839  25.548  0.00  0.00    +0.174 C 
ATOM      2  O   UNL     1      -2.938  -0.313  25.131  0.00  0.00    -0.347 OA
ENDBRANCH   3   2
ENDBRANCH   4   3
ENDBRANCH   5   4
ENDBRANCH   6   5
ENDBRANCH  12   7
BRANCH  15  17
ATOM     17  C   UNL     1      -1.039   3.805  25.174  0.00  0.00    +0.138 C 
ATOM     18  C   UNL     1      -0.733   4.517  24.892  0.00  0.00    +0.027 C 
ATOM     19  C   UNL     1      -1.309   5.099  24.994  0.00  0.00    +0.019 C 
ATOM     20  C   UNL     1      -1.971   4.746  25.338  0.00  0.00    +0.073 C 
ATOM     21  N   UNL     1      -1.803   3.947  25.450  0.00  0.00    -0.260 NA
BRANCH  21  22
ATOM     22  C   UNL     1      -2.312   3.386  25.779  0.00  0.00    +0.138 C 
BRANCH  22  23
ATOM     23  C   UNL     1      -3.112   3.390  25.583  0.00  0.00    +0.139 A 
ATOM     24  C   UNL     1      -3.703   3.823  25.965  0.00  0.00    +0.037 A 
ATOM     25  C   UNL     1      -4.419   3.662  25.589  0.00  0.00    +0.038 A 
ATOM     26  C   UNL     1      -4.272   3.131  24.975  0.00  0.00    +0.156 A 
ATOM     29  O   UNL     1      -3.464   2.963  24.972  0.00  0.00    -0.458 OA
BRANCH  26  27
ATOM     27  C   UNL     1      -4.834   2.822  24.455  0.00  0.00    +0.246 C 
ATOM     28  O   UNL     1      -5.328   2.208  24.701  0.00  0.00    -0.212 OA
ENDBRANCH  26  27
ENDBRANCH  22  23
ENDBRANCH  21  22
ENDBRANCH  15  17
TORSDOF 9
ENDMDL
MODEL 8
REMARK VINA RESULT:      -8.8      1.415      2.981
REMARK  Name = 
REMARK  9 active torsions:
REMARK  status: ('A' for Active; 'I' for Inactive)
REMARK    1  A    between atoms: O_2  and  C_3
REMARK    2  A    between atoms: C_3  and  C_4
REMARK    3  A    between atoms: C_4  and  O_5
REMARK    4  A    between atoms: O_5  and  C_6
REMARK    5  A    between atoms: C_7  and  C_12
REMARK    6  A    between atoms: C_15  and  C_17
REMARK    7  A    between atoms: N_21  and  C_22
REMARK    8  A    between atoms: C_22  and  C_23
REMARK    9  A    between atoms: C_26  and  C_27
REMARK                            x       y       z     vdW  Elec       q    Type
REMARK                         _______ _______ _______ _____ _____    ______ ____
ROOT
ATOM     12  C   UNL     1      -3.595   2.119  24.548  0.00  0.00    +0.208 A 
ATOM     13  N   UNL     1      -3.474   2.030  23.737  0.00  0.00    -0.056 NA
ATOM     14  O   UNL     1      -2.915   1.433  23.627  0.00  0.00    -0.336 OA
ATOM     15  C   UNL     1      -2.691   1.154  24.370  0.00  0.00    +0.251 A 
ATOM     16  N   UNL     1      -3.111   1.578  24.940  0.00  0.00    -0.189 NA
ENDROOT
BRANCH  12   7
ATOM      6  C   UNL     1      -3.823   3.373  25.194  0.00  0.00    +0.228 A 
ATOM      7  C   UNL     1      -4.110   2.655  24.905  0.00  0.00    +0.092 A 
ATOM      8  C   UNL     1      -4.912   2.474  24.974  0.00  0.00    +0.009 A 
ATOM      9  C   UNL     1      -5.427   3.011  25.331  0.00  0.00    +0.021 A 
ATOM     10  C   UNL     1      -5.139   3.728  25.620  0.00  0.00    +0.102 A 
ATOM     11  N   UNL     1      -4.338   3.909  25.552  0.00  0.00    -0.210 NA
BRANCH   6   5
ATOM      5  O   UNL     1      -3.021   3.554  25.126  0.00  0.00    -0.457 OA
BRANCH   5   4
ATOM      4  C   UNL     1      -2.740   4.285  25.383  0.00  0.00    +0.239 C 
BRANCH   4   3
ATOM      3  C   UNL     1      -1.928   4.432  25.400  0.00  0.00    +0.189 C 
BRANCH   3   2
ATOM      1  C   UNL     1      -0.838   5.228  24.930  0.00  0.00    +0.174 C 
ATOM      2  O   UNL     1      -1.635   5.156  25.132  0.00  0.00    -0.347 OA
ENDBRANCH   3   2
ENDBRANCH   4   3
ENDBRANCH   5   4
ENDBRANCH   6   5
ENDBRANCH  12   7
BRANCH  15  17
ATOM     17  C   UNL     1      -2.142   0.555  24.517  0.00  0.00    +0.138 C 
ATOM     18  C   UNL     1      -1.329   0.599  24.386  0.00  0.00    +0.027 C 
ATOM     19  C   UNL     1      -0.995  -0.121  24.610  0.00  0.00    +0.019 C 
ATOM     20  C   UNL     1      -1.602  -0.611  24.878  0.00  0.00    +0.073 C 
ATOM     21  N   UNL     1      -2.311  -0.193  24.821  0.00  0.00    -0.260 NA
BRANCH  21  22
ATOM     22  C   UNL     1      -3.058  -0.474  25.031  0.00  0.00    +0.138 C 
BRANCH  22  23
ATOM     23  C   UNL     1      -3.230  -1.278  24.965  0.00  0.00    +0.139 A 
ATOM     24  C   UNL     1      -3.166  -1.839  25.568  0.00  0.00    +0.037 A 
ATOM     25  C   UNL     1      -3.392  -2.569  25.260  0.00  0.00    +0.038 A 
ATOM     26  C   UNL     1      -3.596  -2.462  24.469  0.00  0.00    +0.156 A 
ATOM     29  O   UNL     1      -3.496  -1.663  24.286  0.00  0.00    -0.458 OA
BRANCH  26  27
ATOM     27  C   UNL     1      -3.855  -3.048  23.950  0.00  0.00    +0.246 C 
ATOM     28  O   UNL     1      -4.536  -2.927  23.497  0.00  0.00    -0.212 OA
ENDBRANCH  26  27
ENDBRANCH  22  23
ENDBRANCH  21  22
ENDBRANCH  15  17
TORSDOF 9
ENDMDL
