MODEL 1
REMARK VINA RESULT:     -15.6      0.000      0.000
REMARK  Name = 
REMARK  2 active torsions:
REMARK  status: ('A' for Active; 'I' for Inactive)
REMARK    1  A    between atoms: C_7  and  N_10
REMARK    2  A    between atoms: C_17  and  C_24
REMARK                            x       y       z     vdW  Elec       q    Type
REMARK                         _______ _______ _______ _____ _____    ______ ____
ROOT
ATOM     10  N   UNL     1      -4.632   2.769  25.115  0.00  0.00    -0.273 NA
ATOM     11  C   UNL     1      -5.453   2.616  25.148  0.00  0.00    +0.074 C 
ATOM     12  C   UNL     1      -5.443   1.637  25.015  0.00  0.00    +0.039 C 
ATOM     13  C   UNL     1      -5.605   0.844  24.918  0.00  0.00    +0.011 C 
ATOM     14  C   UNL     1      -5.040   1.260  24.938  0.00  0.00    +0.054 C 
ATOM     15  C   UNL     1      -5.065   2.206  25.067  0.00  0.00    +0.078 C 
ATOM     16  C   UNL     1      -4.123   1.234  24.874  0.00  0.00    +0.041 A 
ATOM     17  C   UNL     1      -3.504   0.701  24.761  0.00  0.00    +0.014 A 
ATOM     18  C   UNL     1      -2.725   0.972  24.747  0.00  0.00    +0.006 A 
ATOM     19  C   UNL     1      -2.565   1.776  24.845  0.00  0.00    +0.061 A 
ATOM     20  C   UNL     1      -3.184   2.308  24.958  0.00  0.00    +0.261 A 
ATOM     21  O   UNL     1      -2.581   2.869  24.994  0.00  0.00    -0.267 OA
ATOM     22  N   UNL     1      -3.964   2.038  24.972  0.00  0.00    -0.299 N 
ATOM     23  C   UNL     1      -4.486   1.620  24.950  0.00  0.00    +0.110 C 
ENDROOT
BRANCH  10   7
ATOM      1  C   UNL     1      -1.514   4.807  24.464  0.00  0.00    +0.095 C 
ATOM      2  C   UNL     1      -1.820   4.495  25.164  0.00  0.00    +0.226 C 
ATOM      3  O   UNL     1      -1.421   4.615  25.877  0.00  0.00    -0.275 OA
ATOM      4  N   UNL     1      -2.522   4.064  25.152  0.00  0.00    -0.279 N 
ATOM      5  C   UNL     1      -2.828   3.752  25.852  0.00  0.00    +0.095 C 
ATOM      6  C   UNL     1      -3.530   3.321  25.840  0.00  0.00    +0.038 C 
ATOM      7  C   UNL     1      -3.929   3.201  25.127  0.00  0.00    +0.061 C 
ATOM      8  C   UNL     1      -3.624   3.512  24.427  0.00  0.00    +0.038 C 
ATOM      9  C   UNL     1      -2.921   3.944  24.439  0.00  0.00    +0.095 C 
ENDBRANCH  10   7
BRANCH  17  24
ATOM     24  C   UNL     1      -3.664  -0.102  24.663  0.00  0.00    +0.029 A 
ATOM     25  C   UNL     1      -3.976  -0.377  23.951  0.00  0.00    +0.002 A 
ATOM     26  C   UNL     1      -4.136  -1.180  23.853  0.00  0.00    +0.000 A 
ATOM     27  C   UNL     1      -3.983  -1.710  24.467  0.00  0.00    +0.002 A 
ATOM     28  C   UNL     1      -3.670  -1.435  25.179  0.00  0.00    +0.030 A 
ATOM     29  C   UNL     1      -3.510  -0.632  25.277  0.00  0.00    +0.140 A 
ATOM     30  F   UNL     1      -3.197  -0.356  25.990  0.00  0.00    -0.204 F 
ENDBRANCH  17  24
TORSDOF 2
ENDMDL
MODEL 2
REMARK VINA RESULT:     -15.4      1.445      2.632
REMARK  Name = 
REMARK  2 active torsions:
REMARK  status: ('A' for Active; 'I' for Inactive)
REMARK    1  A    between atoms: C_7  and  N_10
REMARK    2  A    between atoms: C_17  and  C_24
REMARK                            x       y       z     vdW  Elec       q    Type
REMARK                         _______ _______ _______ _____ _____    ______ ____
ROOT
ATOM     10  N   UNL     1      -1.777   1.181  24.524  0.00  0.00    -0.273 NA
ATOM     11  C   UNL     1      -1.037   0.795  24.490  0.00  0.00    +0.074 C 
ATOM     12  C   UNL     1      -1.339  -0.146  24.513  0.00  0.00    +0.039 C 
ATOM     13  C   UNL     1      -1.423  -0.956  24.523  0.00  0.00    +0.011 C 
ATOM     14  C   UNL     1      -1.839  -0.392  24.540  0.00  0.00    +0.054 C 
ATOM     15  C   UNL     1      -1.531   0.512  24.517  0.00  0.00    +0.078 C 
ATOM     16  C   UNL     1      -2.725  -0.151  24.582  0.00  0.00    +0.041 A 
ATOM     17  C   UNL     1      -3.478  -0.484  24.622  0.00  0.00    +0.014 A 
ATOM     18  C   UNL     1      -4.144   0.003  24.652  0.00  0.00    +0.006 A 
ATOM     19  C   UNL     1      -4.056   0.823  24.641  0.00  0.00    +0.061 A 
ATOM     20  C   UNL     1      -3.302   1.157  24.601  0.00  0.00    +0.261 A 
ATOM     21  O   UNL     1      -3.713   1.872  24.616  0.00  0.00    -0.267 OA
ATOM     22  N   UNL     1      -2.637   0.670  24.571  0.00  0.00    -0.299 N 
ATOM     23  C   UNL     1      -2.262   0.116  24.557  0.00  0.00    +0.110 C 
ENDROOT
BRANCH  10   7
ATOM      1  C   UNL     1      -4.187   3.979  25.337  0.00  0.00    +0.095 C 
ATOM      2  C   UNL     1      -3.955   3.659  24.614  0.00  0.00    +0.226 C 
ATOM      3  O   UNL     1      -4.267   3.959  23.911  0.00  0.00    -0.275 OA
ATOM      4  N   UNL     1      -3.411   3.040  24.591  0.00  0.00    -0.279 N 
ATOM      5  C   UNL     1      -3.178   2.720  23.867  0.00  0.00    +0.095 C 
ATOM      6  C   UNL     1      -2.634   2.101  23.844  0.00  0.00    +0.038 C 
ATOM      7  C   UNL     1      -2.322   1.800  24.547  0.00  0.00    +0.061 C 
ATOM      8  C   UNL     1      -2.553   2.119  25.271  0.00  0.00    +0.038 C 
ATOM      9  C   UNL     1      -3.098   2.739  25.293  0.00  0.00    +0.095 C 
ENDBRANCH  10   7
BRANCH  17  24
ATOM     24  C   UNL     1      -3.566  -1.304  24.633  0.00  0.00    +0.029 A 
ATOM     25  C   UNL     1      -3.348  -1.734  25.303  0.00  0.00    +0.002 A 
ATOM     26  C   UNL     1      -3.436  -2.554  25.314  0.00  0.00    +0.000 A 
ATOM     27  C   UNL     1      -3.742  -2.945  24.655  0.00  0.00    +0.002 A 
ATOM     28  C   UNL     1      -3.960  -2.516  23.985  0.00  0.00    +0.030 A 
ATOM     29  C   UNL     1      -3.872  -1.695  23.974  0.00  0.00    +0.140 A 
ATOM     30  F   UNL     1      -4.090  -1.265  23.305  0.00  0.00    -0.204 F 
ENDBRANCH  17  24
TORSDOF 2
ENDMDL
MODEL 3
REMARK VINA RESULT:     -15.3      1.666      4.003
REMARK  Name = 
REMARK  2 active torsions:
REMARK  status: ('A' for Active; 'I' for Inactive)
REMARK    1  A    between atoms: C_7  and  N_10
REMARK    2  A    between atoms: C_17  and  C_24
REMARK                            x       y       z     vdW  Elec       q    Type
REMARK                         _______ _______ _______ _____ _____    ______ ____
ROOT
ATOM     10  N   UNL     1      -4.421   1.256  24.602  0.00  0.00    -0.273 NA
ATOM     11  C   UNL     1      -4.918   1.918  24.491  0.00  0.00    +0.074 C 
ATOM     12  C   UNL     1      -4.248   2.641  24.560  0.00  0.00    +0.039 C 
ATOM     13  C   UNL     1      -3.829   3.339  24.592  0.00  0.00    +0.011 C 
ATOM     14  C   UNL     1      -3.697   2.652  24.646  0.00  0.00    +0.054 C 
ATOM     15  C   UNL     1      -4.356   1.965  24.577  0.00  0.00    +0.078 C 
ATOM     16  C   UNL     1      -3.008   2.060  24.784  0.00  0.00    +0.041 A 
ATOM     17  C   UNL     1      -2.194   2.043  24.912  0.00  0.00    +0.014 A 
ATOM     18  C   UNL     1      -1.806   1.321  25.009  0.00  0.00    +0.006 A 
ATOM     19  C   UNL     1      -2.234   0.616  24.977  0.00  0.00    +0.061 A 
ATOM     20  C   UNL     1      -3.048   0.632  24.848  0.00  0.00    +0.261 A 
ATOM     21  O   UNL     1      -2.985  -0.188  24.899  0.00  0.00    -0.267 OA
ATOM     22  N   UNL     1      -3.435   1.354  24.752  0.00  0.00    -0.299 N 
ATOM     23  C   UNL     1      -3.535   2.015  24.703  0.00  0.00    +0.110 C 
ENDROOT
BRANCH  10   7
ATOM      1  C   UNL     1      -3.325  -2.344  24.230  0.00  0.00    +0.095 C 
ATOM      2  C   UNL     1      -3.529  -1.908  24.899  0.00  0.00    +0.226 C 
ATOM      3  O   UNL     1      -3.511  -2.263  25.644  0.00  0.00    -0.275 OA
ATOM      4  N   UNL     1      -3.752  -1.117  24.825  0.00  0.00    -0.279 N 
ATOM      5  C   UNL     1      -3.956  -0.681  25.495  0.00  0.00    +0.095 C 
ATOM      6  C   UNL     1      -4.179   0.109  25.421  0.00  0.00    +0.038 C 
ATOM      7  C   UNL     1      -4.198   0.465  24.676  0.00  0.00    +0.061 C 
ATOM      8  C   UNL     1      -3.993   0.029  24.006  0.00  0.00    +0.038 C 
ATOM      9  C   UNL     1      -3.770  -0.762  24.080  0.00  0.00    +0.095 C 
ENDBRANCH  10   7
BRANCH  17  24
ATOM     24  C   UNL     1      -1.767   2.748  24.945  0.00  0.00    +0.029 A 
ATOM     25  C   UNL     1      -1.842   3.246  25.597  0.00  0.00    +0.002 A 
ATOM     26  C   UNL     1      -1.414   3.952  25.630  0.00  0.00    +0.000 A 
ATOM     27  C   UNL     1      -0.912   4.159  25.009  0.00  0.00    +0.002 A 
ATOM     28  C   UNL     1      -0.837   3.660  24.356  0.00  0.00    +0.030 A 
ATOM     29  C   UNL     1      -1.264   2.955  24.324  0.00  0.00    +0.140 A 
ATOM     30  F   UNL     1      -1.190   2.456  23.671  0.00  0.00    -0.204 F 
ENDBRANCH  17  24
TORSDOF 2
ENDMDL
