MODEL 1
REMARK VINA RESULT:     -12.5      0.000      0.000
REMARK  Name = 
REMARK  7 active torsions:
REMARK  status: ('A' for Active; 'I' for Inactive)
REMARK    1  A    between atoms: C_5  and  C_6
REMARK    2  A    between atoms: C_6  and  C_7
REMARK    3  A    between atoms: C_10  and  C_11
REMARK    4  A    between atoms: C_11  and  N_12
REMARK    5  A    between atoms: C_20  and  C_21
REMARK    6  A    between atoms: C_21  and  N_22
REMARK    7  A    between atoms: C_23  and  C_25
REMARK                            x       y       z     vdW  Elec       q    Type
REMARK                         _______ _______ _______ _____ _____    ______ ____
ROOT
ATOM      1  O   UNL     1      -5.786   3.345  26.062  0.00  0.00    -0.220 OA
ATOM      2  C   UNL     1      -5.434   2.758  25.602  0.00  0.00    +0.181 C 
ATOM      3  C   UNL     1      -5.889   2.137  25.306  0.00  0.00    +0.038 C 
ATOM      4  C   UNL     1      -5.536   1.549  24.846  0.00  0.00    +0.033 C 
ATOM      5  C   UNL     1      -4.728   1.584  24.682  0.00  0.00    +0.121 C 
ATOM     19  O   UNL     1      -4.273   2.205  24.978  0.00  0.00    -0.354 OA
ATOM     20  C   UNL     1      -4.626   2.792  25.438  0.00  0.00    +0.167 C 
ENDROOT
BRANCH   5   6
ATOM      6  C   UNL     1      -4.376   0.996  24.222  0.00  0.00    +0.079 C 
BRANCH   6   7
ATOM      7  C   UNL     1      -4.142   0.285  24.568  0.00  0.00    +0.103 A 
ATOM      8  N   UNL     1      -4.576  -0.418  24.572  0.00  0.00    -0.082 NA
ATOM      9  O   UNL     1      -4.136  -0.985  24.978  0.00  0.00    -0.357 OA
ATOM     10  C   UNL     1      -3.432  -0.634  25.225  0.00  0.00    +0.170 A 
ATOM     18  C   UNL     1      -3.436   0.151  24.972  0.00  0.00    +0.055 A 
BRANCH  10  11
ATOM     11  C   UNL     1      -2.829  -1.003  25.650  0.00  0.00    +0.141 C 
BRANCH  11  12
ATOM     12  N   UNL     1      -2.177  -1.317  25.255  0.00  0.00    -0.262 NA
ATOM     13  C   UNL     1      -1.461  -0.905  25.250  0.00  0.00    +0.105 C 
ATOM     14  C   UNL     1      -0.809  -1.220  24.854  0.00  0.00    +0.159 C 
ATOM     15  O   UNL     1      -0.872  -1.944  24.463  0.00  0.00    -0.351 OA
ATOM     16  C   UNL     1      -1.587  -2.354  24.470  0.00  0.00    +0.159 C 
ATOM     17  C   UNL     1      -2.240  -2.041  24.865  0.00  0.00    +0.105 C 
ENDBRANCH  11  12
ENDBRANCH  10  11
ENDBRANCH   6   7
ENDBRANCH   5   6
BRANCH  20  21
ATOM     21  C   UNL     1      -4.170   3.413  25.734  0.00  0.00    +0.147 C 
BRANCH  21  22
ATOM     22  N   UNL     1      -3.402   3.531  25.455  0.00  0.00    -0.199 NA
ATOM     23  C   UNL     1      -2.879   4.009  25.877  0.00  0.00    +0.265 C 
ATOM     24  O   UNL     1      -3.124   4.368  26.579  0.00  0.00    -0.268 OA
BRANCH  23  25
ATOM     25  C   UNL     1      -2.112   4.127  25.598  0.00  0.00    +0.057 A 
ATOM     26  C   UNL     1      -1.566   3.509  25.618  0.00  0.00    +0.005 A 
ATOM     27  C   UNL     1      -0.798   3.627  25.339  0.00  0.00    +0.002 A 
ATOM     28  C   UNL     1      -0.577   4.363  25.040  0.00  0.00    +0.030 A 
ATOM     29  C   UNL     1      -1.123   4.982  25.020  0.00  0.00    +0.140 A 
ATOM     30  F   UNL     1      -0.902   5.717  24.722  0.00  0.00    -0.204 F 
ATOM     31  C   UNL     1      -1.890   4.864  25.299  0.00  0.00    +0.034 A 
ENDBRANCH  23  25
ENDBRANCH  21  22
ENDBRANCH  20  21
TORSDOF 7
ENDMDL
MODEL 2
REMARK VINA RESULT:     -12.3      1.722      4.234
REMARK  Name = 
REMARK  7 active torsions:
REMARK  status: ('A' for Active; 'I' for Inactive)
REMARK    1  A    between atoms: C_5  and  C_6
REMARK    2  A    between atoms: C_6  and  C_7
REMARK    3  A    between atoms: C_10  and  C_11
REMARK    4  A    between atoms: C_11  and  N_12
REMARK    5  A    between atoms: C_20  and  C_21
REMARK    6  A    between atoms: C_21  and  N_22
REMARK    7  A    between atoms: C_23  and  C_25
REMARK                            x       y       z     vdW  Elec       q    Type
REMARK                         _______ _______ _______ _____ _____    ______ ____
ROOT
ATOM      1  O   UNL     1      -6.191   1.666  25.781  0.00  0.00    -0.220 OA
ATOM      2  C   UNL     1      -5.625   2.207  25.521  0.00  0.00    +0.181 C 
ATOM      3  C   UNL     1      -5.686   3.002  25.734  0.00  0.00    +0.038 C 
ATOM      4  C   UNL     1      -5.120   3.543  25.474  0.00  0.00    +0.033 C 
ATOM      5  C   UNL     1      -4.493   3.289  25.002  0.00  0.00    +0.121 C 
ATOM     19  O   UNL     1      -4.432   2.494  24.789  0.00  0.00    -0.354 OA
ATOM     20  C   UNL     1      -4.998   1.954  25.049  0.00  0.00    +0.167 C 
ENDROOT
BRANCH   5   6
ATOM      6  C   UNL     1      -3.927   3.831  24.742  0.00  0.00    +0.079 C 
BRANCH   6   7
ATOM      7  C   UNL     1      -3.198   3.882  25.126  0.00  0.00    +0.103 A 
ATOM      8  N   UNL     1      -3.083   3.994  25.935  0.00  0.00    -0.082 NA
ATOM      9  O   UNL     1      -2.271   4.012  26.077  0.00  0.00    -0.357 OA
ATOM     10  C   UNL     1      -1.884   3.911  25.356  0.00  0.00    +0.170 A 
ATOM     18  C   UNL     1      -2.457   3.831  24.768  0.00  0.00    +0.055 A 
BRANCH  10  11
ATOM     11  C   UNL     1      -1.067   3.893  25.242  0.00  0.00    +0.141 C 
BRANCH  11  12
ATOM     12  N   UNL     1      -0.665   3.173  25.246  0.00  0.00    -0.262 NA
ATOM     13  C   UNL     1      -0.438   2.824  24.533  0.00  0.00    +0.105 C 
ATOM     14  C   UNL     1      -0.036   2.103  24.537  0.00  0.00    +0.159 C 
ATOM     15  O   UNL     1       0.138   1.731  25.253  0.00  0.00    -0.351 OA
ATOM     16  C   UNL     1      -0.089   2.081  25.965  0.00  0.00    +0.159 C 
ATOM     17  C   UNL     1      -0.491   2.801  25.962  0.00  0.00    +0.105 C 
ENDBRANCH  11  12
ENDBRANCH  10  11
ENDBRANCH   6   7
ENDBRANCH   5   6
BRANCH  20  21
ATOM     21  C   UNL     1      -4.937   1.159  24.836  0.00  0.00    +0.147 C 
BRANCH  21  22
ATOM     22  N   UNL     1      -4.271   0.723  25.056  0.00  0.00    -0.199 NA
ATOM     23  C   UNL     1      -4.153  -0.034  24.748  0.00  0.00    +0.265 C 
ATOM     24  O   UNL     1      -4.701  -0.354  24.221  0.00  0.00    -0.268 OA
BRANCH  23  25
ATOM     25  C   UNL     1      -3.489  -0.469  24.968  0.00  0.00    +0.057 A 
ATOM     26  C   UNL     1      -3.505  -0.929  25.653  0.00  0.00    +0.005 A 
ATOM     27  C   UNL     1      -2.839  -1.365  25.873  0.00  0.00    +0.002 A 
ATOM     28  C   UNL     1      -2.158  -1.341  25.408  0.00  0.00    +0.030 A 
ATOM     29  C   UNL     1      -2.142  -0.880  24.724  0.00  0.00    +0.140 A 
ATOM     30  F   UNL     1      -1.461  -0.856  24.260  0.00  0.00    -0.204 F 
ATOM     31  C   UNL     1      -2.807  -0.445  24.504  0.00  0.00    +0.034 A 
ENDBRANCH  23  25
ENDBRANCH  21  22
ENDBRANCH  20  21
TORSDOF 7
ENDMDL
MODEL 3
REMARK VINA RESULT:     -12.1      2.281      4.216
REMARK  Name = 
REMARK  7 active torsions:
REMARK  status: ('A' for Active; 'I' for Inactive)
REMARK    1  A    between atoms: C_5  and  C_6
REMARK    2  A    between atoms: C_6  and  C_7
REMARK    3  A    between atoms: C_10  and  C_11
REMARK    4  A    between atoms: C_11  and  N_12
REMARK    5  A    between atoms: C_20  and  C_21
REMARK    6  A    between atoms: C_21  and  N_22
REMARK    7  A    between atoms: C_23  and  C_25
REMARK                            x       y       z     vdW  Elec       q    Type
REMARK                         _______ _______ _______ _____ _____    ______ ____
ROOT
ATOM      1  O   UNL     1      -5.063   2.862  24.128  0.00  0.00    -0.220 OA
ATOM      2  C   UNL     1      -4.306   2.977  24.433  0.00  0.00    +0.181 C 
ATOM      3  C   UNL     1      -3.883   3.659  24.240  0.00  0.00    +0.038 C 
ATOM      4  C   UNL     1      -3.125   3.775  24.546  0.00  0.00    +0.033 C 
ATOM      5  C   UNL     1      -2.790   3.209  25.043  0.00  0.00    +0.121 C 
ATOM     19  O   UNL     1      -3.213   2.527  25.235  0.00  0.00    -0.354 OA
ATOM     20  C   UNL     1      -3.970   2.411  24.930  0.00  0.00    +0.167 C 
ENDROOT
BRANCH   5   6
ATOM      6  C   UNL     1      -2.032   3.325  25.348  0.00  0.00    +0.079 C 
BRANCH   6   7
ATOM      7  C   UNL     1      -1.381   2.978  24.979  0.00  0.00    +0.103 A 
ATOM      8  N   UNL     1      -1.071   3.190  24.244  0.00  0.00    -0.082 NA
ATOM      9  O   UNL     1      -0.424   2.702  24.090  0.00  0.00    -0.357 OA
ATOM     10  C   UNL     1      -0.335   2.189  24.730  0.00  0.00    +0.170 A 
ATOM     18  C   UNL     1      -0.926   2.359  25.279  0.00  0.00    +0.055 A 
BRANCH  10  11
ATOM     11  C   UNL     1       0.245   1.606  24.807  0.00  0.00    +0.141 C 
BRANCH  11  12
ATOM     12  N   UNL     1       0.203   0.920  24.353  0.00  0.00    -0.262 NA
ATOM     13  C   UNL     1      -0.292   0.301  24.585  0.00  0.00    +0.105 C 
ATOM     14  C   UNL     1      -0.333  -0.386  24.130  0.00  0.00    +0.159 C 
ATOM     15  O   UNL     1       0.119  -0.455  23.443  0.00  0.00    -0.351 OA
ATOM     16  C   UNL     1       0.614   0.163  23.212  0.00  0.00    +0.159 C 
ATOM     17  C   UNL     1       0.656   0.850  23.666  0.00  0.00    +0.105 C 
ENDBRANCH  11  12
ENDBRANCH  10  11
ENDBRANCH   6   7
ENDBRANCH   5   6
BRANCH  20  21
ATOM     21  C   UNL     1      -4.392   1.729  25.123  0.00  0.00    +0.147 C 
BRANCH  21  22
ATOM     22  N   UNL     1      -4.093   0.987  24.919  0.00  0.00    -0.199 NA
ATOM     23  C   UNL     1      -4.453   0.303  25.209  0.00  0.00    +0.265 C 
ATOM     24  O   UNL     1      -5.111   0.362  25.703  0.00  0.00    -0.268 OA
BRANCH  23  25
ATOM     25  C   UNL     1      -4.154  -0.437  25.006  0.00  0.00    +0.057 A 
ATOM     26  C   UNL     1      -3.704  -0.864  25.551  0.00  0.00    +0.005 A 
ATOM     27  C   UNL     1      -3.405  -1.606  25.347  0.00  0.00    +0.002 A 
ATOM     28  C   UNL     1      -3.555  -1.920  24.600  0.00  0.00    +0.030 A 
ATOM     29  C   UNL     1      -4.004  -1.493  24.055  0.00  0.00    +0.140 A 
ATOM     30  F   UNL     1      -4.154  -1.808  23.308  0.00  0.00    -0.204 F 
ATOM     31  C   UNL     1      -4.303  -0.753  24.258  0.00  0.00    +0.034 A 
ENDBRANCH  23  25
ENDBRANCH  21  22
ENDBRANCH  20  21
TORSDOF 7
ENDMDL
MODEL 4
REMARK VINA RESULT:     -12.1      1.966      5.202
REMARK  Name = 
REMARK  7 active torsions:
REMARK  status: ('A' for Active; 'I' for Inactive)
REMARK    1  A    between atoms: C_5  and  C_6
REMARK    2  A    between atoms: C_6  and  C_7
REMARK    3  A    between atoms: C_10  and  C_11
REMARK    4  A    between atoms: C_11  and  N_12
REMARK    5  A    between atoms: C_20  and  C_21
REMARK    6  A    between atoms: C_21  and  N_22
REMARK    7  A    between atoms: C_23  and  C_25
REMARK                            x       y       z     vdW  Elec       q    Type
REMARK                         _______ _______ _______ _____ _____    ______ ____
ROOT
ATOM      1  O   UNL     1       0.416   1.506  24.366  0.00  0.00    -0.220 OA
ATOM      2  C   UNL     1      -0.119   2.014  24.733  0.00  0.00    +0.181 C 
ATOM      3  C   UNL     1      -0.030   2.831  24.658  0.00  0.00    +0.038 C 
ATOM      4  C   UNL     1      -0.566   3.340  25.026  0.00  0.00    +0.033 C 
ATOM      5  C   UNL     1      -1.190   3.031  25.468  0.00  0.00    +0.121 C 
ATOM     19  O   UNL     1      -1.279   2.215  25.543  0.00  0.00    -0.354 OA
ATOM     20  C   UNL     1      -0.744   1.707  25.176  0.00  0.00    +0.167 C 
ENDROOT
BRANCH   5   6
ATOM      6  C   UNL     1      -1.726   3.541  25.836  0.00  0.00    +0.079 C 
BRANCH   6   7
ATOM      7  C   UNL     1      -2.462   3.685  25.491  0.00  0.00    +0.103 A 
ATOM      8  N   UNL     1      -2.591   3.986  24.734  0.00  0.00    -0.082 NA
ATOM      9  O   UNL     1      -3.406   4.040  24.618  0.00  0.00    -0.357 OA
ATOM     10  C   UNL     1      -3.780   3.773  25.303  0.00  0.00    +0.170 A 
ATOM     18  C   UNL     1      -3.196   3.553  25.843  0.00  0.00    +0.055 A 
BRANCH  10  11
ATOM     11  C   UNL     1      -4.595   3.733  25.427  0.00  0.00    +0.141 C 
BRANCH  11  12
ATOM     12  N   UNL     1      -4.993   3.019  25.323  0.00  0.00    -0.262 NA
ATOM     13  C   UNL     1      -5.373   2.662  25.964  0.00  0.00    +0.105 C 
ATOM     14  C   UNL     1      -5.771   1.947  25.860  0.00  0.00    +0.159 C 
ATOM     15  O   UNL     1      -5.790   1.588  25.116  0.00  0.00    -0.351 OA
ATOM     16  C   UNL     1      -5.410   1.945  24.477  0.00  0.00    +0.159 C 
ATOM     17  C   UNL     1      -5.012   2.660  24.580  0.00  0.00    +0.105 C 
ENDBRANCH  11  12
ENDBRANCH  10  11
ENDBRANCH   6   7
ENDBRANCH   5   6
BRANCH  20  21
ATOM     21  C   UNL     1      -0.833   0.890  25.250  0.00  0.00    +0.147 C 
BRANCH  21  22
ATOM     22  N   UNL     1      -1.579   0.547  25.171  0.00  0.00    -0.199 NA
ATOM     23  C   UNL     1      -1.677  -0.263  25.297  0.00  0.00    +0.265 C 
ATOM     24  O   UNL     1      -1.028  -0.729  25.503  0.00  0.00    -0.268 OA
BRANCH  23  25
ATOM     25  C   UNL     1      -2.423  -0.605  25.218  0.00  0.00    +0.057 A 
ATOM     26  C   UNL     1      -2.845  -0.833  25.889  0.00  0.00    +0.005 A 
ATOM     27  C   UNL     1      -3.592  -1.176  25.810  0.00  0.00    +0.002 A 
ATOM     28  C   UNL     1      -3.915  -1.290  25.060  0.00  0.00    +0.030 A 
ATOM     29  C   UNL     1      -3.493  -1.062  24.389  0.00  0.00    +0.140 A 
ATOM     30  F   UNL     1      -3.817  -1.176  23.639  0.00  0.00    -0.204 F 
ATOM     31  C   UNL     1      -2.747  -0.720  24.468  0.00  0.00    +0.034 A 
ENDBRANCH  23  25
ENDBRANCH  21  22
ENDBRANCH  20  21
TORSDOF 7
ENDMDL
MODEL 5
REMARK VINA RESULT:     -12.0      1.567      3.975
REMARK  Name = 
REMARK  7 active torsions:
REMARK  status: ('A' for Active; 'I' for Inactive)
REMARK    1  A    between atoms: C_5  and  C_6
REMARK    2  A    between atoms: C_6  and  C_7
REMARK    3  A    between atoms: C_10  and  C_11
REMARK    4  A    between atoms: C_11  and  N_12
REMARK    5  A    between atoms: C_20  and  C_21
REMARK    6  A    between atoms: C_21  and  N_22
REMARK    7  A    between atoms: C_23  and  C_25
REMARK                            x       y       z     vdW  Elec       q    Type
REMARK                         _______ _______ _______ _____ _____    ______ ____
ROOT
ATOM      1  O   UNL     1      -4.701  -1.359  23.998  0.00  0.00    -0.220 OA
ATOM      2  C   UNL     1      -3.999  -1.205  24.401  0.00  0.00    +0.181 C 
ATOM      3  C   UNL     1      -3.382  -1.752  24.380  0.00  0.00    +0.038 C 
ATOM      4  C   UNL     1      -2.679  -1.598  24.783  0.00  0.00    +0.033 C 
ATOM      5  C   UNL     1      -2.593  -0.896  25.208  0.00  0.00    +0.121 C 
ATOM     19  O   UNL     1      -3.210  -0.349  25.230  0.00  0.00    -0.354 OA
ATOM     20  C   UNL     1      -3.912  -0.503  24.827  0.00  0.00    +0.167 C 
ENDROOT
BRANCH   5   6
ATOM      6  C   UNL     1      -1.890  -0.742  25.612  0.00  0.00    +0.079 C 
BRANCH   6   7
ATOM      7  C   UNL     1      -1.348  -0.200  25.305  0.00  0.00    +0.103 A 
ATOM      8  N   UNL     1      -1.028  -0.212  24.544  0.00  0.00    -0.082 NA
ATOM      9  O   UNL     1      -0.514   0.428  24.474  0.00  0.00    -0.357 OA
ATOM     10  C   UNL     1      -0.516   0.836  25.191  0.00  0.00    +0.170 A 
ATOM     18  C   UNL     1      -1.031   0.448  25.705  0.00  0.00    +0.055 A 
BRANCH  10  11
ATOM     11  C   UNL     1      -0.078   1.515  25.365  0.00  0.00    +0.141 C 
BRANCH  11  12
ATOM     12  N   UNL     1      -0.383   2.259  25.185  0.00  0.00    -0.262 NA
ATOM     13  C   UNL     1      -0.322   2.556  24.417  0.00  0.00    +0.105 C 
ATOM     14  C   UNL     1      -0.627   3.301  24.238  0.00  0.00    +0.159 C 
ATOM     15  O   UNL     1      -0.994   3.750  24.826  0.00  0.00    -0.351 OA
ATOM     16  C   UNL     1      -1.055   3.453  25.593  0.00  0.00    +0.159 C 
ATOM     17  C   UNL     1      -0.750   2.708  25.773  0.00  0.00    +0.105 C 
ENDBRANCH  11  12
ENDBRANCH  10  11
ENDBRANCH   6   7
ENDBRANCH   5   6
BRANCH  20  21
ATOM     21  C   UNL     1      -4.529   0.044  24.848  0.00  0.00    +0.147 C 
BRANCH  21  22
ATOM     22  N   UNL     1      -4.363   0.853  24.858  0.00  0.00    -0.199 NA
ATOM     23  C   UNL     1      -4.977   1.400  24.927  0.00  0.00    +0.265 C 
ATOM     24  O   UNL     1      -5.758   1.137  24.986  0.00  0.00    -0.268 OA
BRANCH  23  25
ATOM     25  C   UNL     1      -4.812   2.207  24.936  0.00  0.00    +0.057 A 
ATOM     26  C   UNL     1      -4.980   2.655  25.608  0.00  0.00    +0.005 A 
ATOM     27  C   UNL     1      -4.814   3.464  25.618  0.00  0.00    +0.002 A 
ATOM     28  C   UNL     1      -4.480   3.823  24.955  0.00  0.00    +0.030 A 
ATOM     29  C   UNL     1      -4.311   3.375  24.283  0.00  0.00    +0.140 A 
ATOM     30  F   UNL     1      -3.977   3.736  23.621  0.00  0.00    -0.204 F 
ATOM     31  C   UNL     1      -4.477   2.568  24.274  0.00  0.00    +0.034 A 
ENDBRANCH  23  25
ENDBRANCH  21  22
ENDBRANCH  20  21
TORSDOF 7
ENDMDL
MODEL 6
REMARK VINA RESULT:     -12.0      1.370      4.065
REMARK  Name = 
REMARK  7 active torsions:
REMARK  status: ('A' for Active; 'I' for Inactive)
REMARK    1  A    between atoms: C_5  and  C_6
REMARK    2  A    between atoms: C_6  and  C_7
REMARK    3  A    between atoms: C_10  and  C_11
REMARK    4  A    between atoms: C_11  and  N_12
REMARK    5  A    between atoms: C_20  and  C_21
REMARK    6  A    between atoms: C_21  and  N_22
REMARK    7  A    between atoms: C_23  and  C_25
REMARK                            x       y       z     vdW  Elec       q    Type
REMARK                         _______ _______ _______ _____ _____    ______ ____
ROOT
ATOM      1  O   UNL     1      -0.774  -1.748  25.191  0.00  0.00    -0.220 OA
ATOM      2  C   UNL     1      -1.525  -1.507  24.952  0.00  0.00    +0.181 C 
ATOM      3  C   UNL     1      -2.170  -2.012  25.046  0.00  0.00    +0.038 C 
ATOM      4  C   UNL     1      -2.922  -1.770  24.807  0.00  0.00    +0.033 C 
ATOM      5  C   UNL     1      -3.028  -1.023  24.472  0.00  0.00    +0.121 C 
ATOM     19  O   UNL     1      -2.382  -0.518  24.378  0.00  0.00    -0.354 OA
ATOM     20  C   UNL     1      -1.632  -0.760  24.617  0.00  0.00    +0.167 C 
ENDROOT
BRANCH   5   6
ATOM      6  C   UNL     1      -3.780  -0.781  24.232  0.00  0.00    +0.079 C 
BRANCH   6   7
ATOM      7  C   UNL     1      -4.158  -0.160  24.622  0.00  0.00    +0.103 A 
ATOM      8  N   UNL     1      -4.291  -0.107  25.435  0.00  0.00    -0.082 NA
ATOM      9  O   UNL     1      -4.684   0.603  25.583  0.00  0.00    -0.357 OA
ATOM     10  C   UNL     1      -4.792   0.989  24.862  0.00  0.00    +0.170 A 
ATOM     18  C   UNL     1      -4.467   0.518  24.268  0.00  0.00    +0.055 A 
BRANCH  10  11
ATOM     11  C   UNL     1      -5.162   1.719  24.753  0.00  0.00    +0.141 C 
BRANCH  11  12
ATOM     12  N   UNL     1      -4.729   2.416  24.830  0.00  0.00    -0.262 NA
ATOM     13  C   UNL     1      -4.347   2.738  24.172  0.00  0.00    +0.105 C 
ATOM     14  C   UNL     1      -3.914   3.436  24.249  0.00  0.00    +0.159 C 
ATOM     15  O   UNL     1      -3.861   3.812  24.982  0.00  0.00    -0.351 OA
ATOM     16  C   UNL     1      -4.242   3.489  25.638  0.00  0.00    +0.159 C 
ATOM     17  C   UNL     1      -4.676   2.792  25.563  0.00  0.00    +0.105 C 
ENDBRANCH  11  12
ENDBRANCH  10  11
ENDBRANCH   6   7
ENDBRANCH   5   6
BRANCH  20  21
ATOM     21  C   UNL     1      -0.986  -0.255  24.522  0.00  0.00    +0.147 C 
BRANCH  21  22
ATOM     22  N   UNL     1      -1.012   0.511  24.830  0.00  0.00    -0.199 NA
ATOM     23  C   UNL     1      -0.431   1.059  24.623  0.00  0.00    +0.265 C 
ATOM     24  O   UNL     1       0.175   0.841  24.108  0.00  0.00    -0.268 OA
BRANCH  23  25
ATOM     25  C   UNL     1      -0.458   1.823  24.931  0.00  0.00    +0.057 A 
ATOM     26  C   UNL     1      -0.499   1.938  25.747  0.00  0.00    +0.005 A 
ATOM     27  C   UNL     1      -0.525   2.703  26.056  0.00  0.00    +0.002 A 
ATOM     28  C   UNL     1      -0.510   3.353  25.547  0.00  0.00    +0.030 A 
ATOM     29  C   UNL     1      -0.469   3.238  24.731  0.00  0.00    +0.140 A 
ATOM     30  F   UNL     1      -0.454   3.888  24.224  0.00  0.00    -0.204 F 
ATOM     31  C   UNL     1      -0.443   2.474  24.424  0.00  0.00    +0.034 A 
ENDBRANCH  23  25
ENDBRANCH  21  22
ENDBRANCH  20  21
TORSDOF 7
ENDMDL
MODEL 7
REMARK VINA RESULT:     -11.9      1.738      3.664
REMARK  Name = 
REMARK  7 active torsions:
REMARK  status: ('A' for Active; 'I' for Inactive)
REMARK    1  A    between atoms: C_5  and  C_6
REMARK    2  A    between atoms: C_6  and  C_7
REMARK    3  A    between atoms: C_10  and  C_11
REMARK    4  A    between atoms: C_11  and  N_12
REMARK    5  A    between atoms: C_20  and  C_21
REMARK    6  A    between atoms: C_21  and  N_22
REMARK    7  A    between atoms: C_23  and  C_25
REMARK                            x       y       z     vdW  Elec       q    Type
REMARK                         _______ _______ _______ _____ _____    ______ ____
ROOT
ATOM      1  O   UNL     1      -1.705   4.953  24.987  0.00  0.00    -0.220 OA
ATOM      2  C   UNL     1      -1.421   4.211  25.206  0.00  0.00    +0.181 C 
ATOM      3  C   UNL     1      -0.625   4.025  25.095  0.00  0.00    +0.038 C 
ATOM      4  C   UNL     1      -0.340   3.282  25.314  0.00  0.00    +0.033 C 
ATOM      5  C   UNL     1      -0.852   2.726  25.645  0.00  0.00    +0.121 C 
ATOM     19  O   UNL     1      -1.648   2.912  25.756  0.00  0.00    -0.354 OA
ATOM     20  C   UNL     1      -1.932   3.654  25.537  0.00  0.00    +0.167 C 
ENDROOT
BRANCH   5   6
ATOM      6  C   UNL     1      -0.567   1.982  25.864  0.00  0.00    +0.079 C 
BRANCH   6   7
ATOM      7  C   UNL     1      -0.772   1.315  25.423  0.00  0.00    +0.103 A 
ATOM      8  N   UNL     1      -0.704   1.236  24.604  0.00  0.00    -0.082 NA
ATOM      9  O   UNL     1      -0.970   0.483  24.399  0.00  0.00    -0.357 OA
ATOM     10  C   UNL     1      -1.202   0.097  25.090  0.00  0.00    +0.170 A 
ATOM     18  C   UNL     1      -1.079   0.612  25.723  0.00  0.00    +0.055 A 
BRANCH  10  11
ATOM     11  C   UNL     1      -1.504  -0.669  25.140  0.00  0.00    +0.141 C 
BRANCH  11  12
ATOM     12  N   UNL     1      -2.315  -0.799  25.070  0.00  0.00    -0.262 NA
ATOM     13  C   UNL     1      -2.784  -0.846  25.748  0.00  0.00    +0.105 C 
ATOM     14  C   UNL     1      -3.596  -0.975  25.678  0.00  0.00    +0.159 C 
ATOM     15  O   UNL     1      -3.939  -1.057  24.932  0.00  0.00    -0.351 OA
ATOM     16  C   UNL     1      -3.470  -1.009  24.256  0.00  0.00    +0.159 C 
ATOM     17  C   UNL     1      -2.658  -0.880  24.324  0.00  0.00    +0.105 C 
ENDBRANCH  11  12
ENDBRANCH  10  11
ENDBRANCH   6   7
ENDBRANCH   5   6
BRANCH  20  21
ATOM     21  C   UNL     1      -2.728   3.840  25.648  0.00  0.00    +0.147 C 
BRANCH  21  22
ATOM     22  N   UNL     1      -3.312   3.292  25.449  0.00  0.00    -0.199 NA
ATOM     23  C   UNL     1      -4.106   3.462  25.597  0.00  0.00    +0.265 C 
ATOM     24  O   UNL     1      -4.315   4.181  25.945  0.00  0.00    -0.268 OA
BRANCH  23  25
ATOM     25  C   UNL     1      -4.689   2.915  25.398  0.00  0.00    +0.057 A 
ATOM     26  C   UNL     1      -4.754   2.647  24.620  0.00  0.00    +0.005 A 
ATOM     27  C   UNL     1      -5.338   2.098  24.420  0.00  0.00    +0.002 A 
ATOM     28  C   UNL     1      -5.856   1.819  24.998  0.00  0.00    +0.030 A 
ATOM     29  C   UNL     1      -5.790   2.086  25.776  0.00  0.00    +0.140 A 
ATOM     30  F   UNL     1      -6.308   1.806  26.353  0.00  0.00    -0.204 F 
ATOM     31  C   UNL     1      -5.207   2.634  25.975  0.00  0.00    +0.034 A 
ENDBRANCH  23  25
ENDBRANCH  21  22
ENDBRANCH  20  21
TORSDOF 7
ENDMDL
