MODEL 1
REMARK VINA RESULT:     -16.7      0.000      0.000
REMARK  Name = 
REMARK  4 active torsions:
REMARK  status: ('A' for Active; 'I' for Inactive)
REMARK    1  A    between atoms: C_2  and  O_5
REMARK    2  A    between atoms: O_5  and  C_6
REMARK    3  A    between atoms: C_9  and  C_12
REMARK    4  A    between atoms: C_22  and  C_24
REMARK                            x       y       z     vdW  Elec       q    Type
REMARK                         _______ _______ _______ _____ _____    ______ ____
ROOT
ATOM     12  C   UNL     1      -4.435   0.858  24.841  0.00  0.00    +0.056 A 
ATOM     13  C   UNL     1      -5.239   0.999  24.959  0.00  0.00    +0.006 A 
ATOM     14  C   UNL     1      -5.506   1.763  25.118  0.00  0.00    +0.013 A 
ATOM     15  C   UNL     1      -4.968   2.387  25.159  0.00  0.00    +0.041 A 
ATOM     16  C   UNL     1      -4.936   3.294  25.307  0.00  0.00    +0.058 C 
ATOM     17  C   UNL     1      -5.349   3.843  25.448  0.00  0.00    +0.011 C 
ATOM     18  C   UNL     1      -4.556   3.701  25.331  0.00  0.00    +0.043 C 
ATOM     19  C   UNL     1      -3.574   3.731  25.222  0.00  0.00    +0.096 C 
ATOM     20  N   UNL     1      -3.426   2.923  25.070  0.00  0.00    -0.275 N 
ATOM     21  C   UNL     1      -3.988   3.339  25.205  0.00  0.00    +0.100 C 
ATOM     22  C   UNL     1      -2.849   2.293  24.897  0.00  0.00    +0.255 C 
ATOM     23  O   UNL     1      -2.003   2.533  24.839  0.00  0.00    -0.269 OA
ATOM     29  C   UNL     1      -4.579   2.754  25.176  0.00  0.00    +0.110 C 
ATOM     30  N   UNL     1      -4.163   2.246  25.042  0.00  0.00    -0.299 N 
ATOM     31  C   UNL     1      -3.897   1.482  24.883  0.00  0.00    +0.261 A 
ATOM     32  O   UNL     1      -2.863   1.571  24.778  0.00  0.00    -0.267 OA
ENDROOT
BRANCH  12   9
ATOM      6  C   UNL     1      -3.638  -1.435  24.367  0.00  0.00    +0.147 A 
ATOM      7  C   UNL     1      -3.906  -0.957  23.750  0.00  0.00    +0.037 A 
ATOM      8  C   UNL     1      -4.172  -0.191  23.909  0.00  0.00    +0.003 A 
ATOM      9  C   UNL     1      -4.169   0.094  24.683  0.00  0.00    +0.005 A 
ATOM     10  C   UNL     1      -3.901  -0.385  25.298  0.00  0.00    +0.003 A 
ATOM     11  C   UNL     1      -3.635  -1.150  25.140  0.00  0.00    +0.037 A 
BRANCH   6   5
ATOM      5  O   UNL     1      -3.370  -2.225  24.156  0.00  0.00    -0.404 OA
BRANCH   5   2
ATOM      1  F   UNL     1      -3.659  -3.693  24.860  0.00  0.00    -0.133 F 
ATOM      2  C   UNL     1      -3.515  -2.962  24.509  0.00  0.00    +0.575 C 
ATOM      3  F   UNL     1      -4.198  -3.044  24.054  0.00  0.00    -0.133 F 
ATOM      4  F   UNL     1      -2.832  -2.878  24.964  0.00  0.00    -0.133 F 
ENDBRANCH   5   2
ENDBRANCH   6   5
ENDBRANCH  12   9
BRANCH  22  24
ATOM     24  C   UNL     1      -3.389   1.514  24.830  0.00  0.00    +0.083 A 
ATOM     25  C   UNL     1      -3.736   1.028  25.398  0.00  0.00    +0.012 A 
ATOM     26  C   UNL     1      -4.146   0.429  25.005  0.00  0.00    +0.008 A 
ATOM     27  C   UNL     1      -4.051   0.545  24.194  0.00  0.00    +0.036 A 
ATOM     28  S   UNL     1      -3.583   1.217  24.085  0.00  0.00    -0.082 S 
ENDBRANCH  22  24
TORSDOF 4
ENDMDL
MODEL 2
REMARK VINA RESULT:     -16.5      2.562      4.378
REMARK  Name = 
REMARK  4 active torsions:
REMARK  status: ('A' for Active; 'I' for Inactive)
REMARK    1  A    between atoms: C_2  and  O_5
REMARK    2  A    between atoms: O_5  and  C_6
REMARK    3  A    between atoms: C_9  and  C_12
REMARK    4  A    between atoms: C_22  and  C_24
REMARK                            x       y       z     vdW  Elec       q    Type
REMARK                         _______ _______ _______ _____ _____    ______ ____
ROOT
ATOM     12  C   UNL     1      -4.052  -0.085  24.461  0.00  0.00    +0.056 A 
ATOM     13  C   UNL     1      -4.579  -0.566  24.047  0.00  0.00    +0.006 A 
ATOM     14  C   UNL     1      -4.429  -1.373  23.971  0.00  0.00    +0.013 A 
ATOM     15  C   UNL     1      -3.751  -1.700  24.309  0.00  0.00    +0.041 A 
ATOM     16  C   UNL     1      -3.318  -2.505  24.403  0.00  0.00    +0.058 C 
ATOM     17  C   UNL     1      -3.373  -3.183  24.231  0.00  0.00    +0.011 C 
ATOM     18  C   UNL     1      -2.854  -2.706  24.639  0.00  0.00    +0.043 C 
ATOM     19  C   UNL     1      -2.119  -2.301  25.162  0.00  0.00    +0.096 C 
ATOM     20  N   UNL     1      -2.376  -1.506  25.171  0.00  0.00    -0.275 N 
ATOM     21  C   UNL     1      -2.600  -2.129  24.909  0.00  0.00    +0.100 C 
ATOM     22  C   UNL     1      -2.238  -0.683  25.423  0.00  0.00    +0.255 C 
ATOM     23  O   UNL     1      -1.507  -0.528  25.891  0.00  0.00    -0.269 OA
ATOM     29  C   UNL     1      -3.300  -1.860  24.546  0.00  0.00    +0.110 C 
ATOM     30  N   UNL     1      -3.224  -1.219  24.723  0.00  0.00    -0.299 N 
ATOM     31  C   UNL     1      -3.374  -0.412  24.799  0.00  0.00    +0.261 A 
ATOM     32  O   UNL     1      -2.575  -0.037  25.354  0.00  0.00    -0.267 OA
ENDROOT
BRANCH  12   9
ATOM      6  C   UNL     1      -4.505   2.337  24.689  0.00  0.00    +0.147 A 
ATOM      7  C   UNL     1      -4.061   2.059  24.051  0.00  0.00    +0.037 A 
ATOM      8  C   UNL     1      -3.910   1.251  23.975  0.00  0.00    +0.003 A 
ATOM      9  C   UNL     1      -4.203   0.722  24.536  0.00  0.00    +0.005 A 
ATOM     10  C   UNL     1      -4.647   1.001  25.174  0.00  0.00    +0.003 A 
ATOM     11  C   UNL     1      -4.798   1.808  25.250  0.00  0.00    +0.037 A 
BRANCH   6   5
ATOM      5  O   UNL     1      -4.639   3.185  24.729  0.00  0.00    -0.404 OA
BRANCH   5   2
ATOM      1  F   UNL     1      -4.746   4.208  26.024  0.00  0.00    -0.133 F 
ATOM      2  C   UNL     1      -4.692   3.699  25.378  0.00  0.00    +0.575 C 
ATOM      3  F   UNL     1      -3.870   3.761  25.396  0.00  0.00    -0.133 F 
ATOM      4  F   UNL     1      -5.514   3.635  25.360  0.00  0.00    -0.133 F 
ENDBRANCH   5   2
ENDBRANCH   6   5
ENDBRANCH  12   9
BRANCH  22  24
ATOM     24  C   UNL     1      -2.986  -0.217  25.071  0.00  0.00    +0.083 A 
ATOM     25  C   UNL     1      -3.767  -0.147  25.327  0.00  0.00    +0.012 A 
ATOM     26  C   UNL     1      -4.169   0.335  24.790  0.00  0.00    +0.008 A 
ATOM     27  C   UNL     1      -3.636   0.561  24.203  0.00  0.00    +0.036 A 
ATOM     28  S   UNL     1      -2.904   0.220  24.376  0.00  0.00    -0.082 S 
ENDBRANCH  22  24
TORSDOF 4
ENDMDL
