MODEL 1
REMARK VINA RESULT:      -8.7      0.000      0.000
REMARK  Name = 
REMARK  3 active torsions:
REMARK  status: ('A' for Active; 'I' for Inactive)
REMARK    1  A    between atoms: O_2  and  C_3
REMARK    2  A    between atoms: C_7  and  N_11
REMARK    3  A    between atoms: C_12  and  C_14
REMARK                            x       y       z     vdW  Elec       q    Type
REMARK                         _______ _______ _______ _____ _____    ______ ____
ROOT
ATOM      3  C   UNL     1      -4.746   2.395  25.025  0.00  0.00    +0.174 C 
ATOM      4  C   UNL     1      -5.430   1.990  25.246  0.00  0.00    +0.174 C 
ATOM      5  O   UNL     1      -5.318   1.191  25.078  0.00  0.00    -0.349 OA
ATOM      6  C   UNL     1      -4.566   1.101  24.752  0.00  0.00    +0.167 C 
ATOM      7  C   UNL     1      -4.032   0.552  24.447  0.00  0.00    +0.154 C 
ATOM      8  C   UNL     1      -3.348   0.956  24.226  0.00  0.00    +0.166 C 
ATOM      9  O   UNL     1      -3.459   1.756  24.394  0.00  0.00    -0.349 OA
ATOM     10  C   UNL     1      -4.213   1.846  24.720  0.00  0.00    +0.173 C 
ENDROOT
BRANCH   7  11
ATOM     11  N   UNL     1      -4.159  -0.260  24.375  0.00  0.00    -0.202 NA
ATOM     12  C   UNL     1      -3.535  -0.788  24.492  0.00  0.00    +0.241 C 
ATOM     13  O   UNL     1      -2.784  -0.503  24.680  0.00  0.00    -0.273 OA
BRANCH  12  14
ATOM     14  C   UNL     1      -3.663  -1.600  24.421  0.00  0.00    +0.078 C 
ATOM     15  C   UNL     1      -3.402  -2.269  24.826  0.00  0.00    +0.009 C 
ATOM     16  C   UNL     1      -3.843  -2.747  24.320  0.00  0.00    +0.001 C 
ATOM     17  C   UNL     1      -4.104  -2.078  23.914  0.00  0.00    +0.009 C 
ENDBRANCH  12  14
ENDBRANCH   7  11
BRANCH   3   2
ATOM      1  C   UNL     1      -5.160   3.675  25.508  0.00  0.00    +0.174 C 
ATOM      2  O   UNL     1      -4.619   3.207  25.096  0.00  0.00    -0.348 OA
ENDBRANCH   3   2
TORSDOF 3
ENDMDL
MODEL 2
REMARK VINA RESULT:      -8.7      0.846      1.326
REMARK  Name = 
REMARK  3 active torsions:
REMARK  status: ('A' for Active; 'I' for Inactive)
REMARK    1  A    between atoms: O_2  and  C_3
REMARK    2  A    between atoms: C_7  and  N_11
REMARK    3  A    between atoms: C_12  and  C_14
REMARK                            x       y       z     vdW  Elec       q    Type
REMARK                         _______ _______ _______ _____ _____    ______ ____
ROOT
ATOM      3  C   UNL     1      -3.878   2.513  24.360  0.00  0.00    +0.174 C 
ATOM      4  C   UNL     1      -3.385   2.290  23.738  0.00  0.00    +0.174 C 
ATOM      5  O   UNL     1      -3.407   1.468  23.678  0.00  0.00    -0.349 OA
ATOM      6  C   UNL     1      -3.913   1.183  24.264  0.00  0.00    +0.167 C 
ATOM      7  C   UNL     1      -4.239   0.499  24.590  0.00  0.00    +0.154 C 
ATOM      8  C   UNL     1      -4.732   0.722  25.213  0.00  0.00    +0.166 C 
ATOM      9  O   UNL     1      -4.710   1.544  25.272  0.00  0.00    -0.349 OA
ATOM     10  C   UNL     1      -4.204   1.829  24.685  0.00  0.00    +0.173 C 
ENDROOT
BRANCH   7  11
ATOM     11  N   UNL     1      -4.098  -0.274  24.336  0.00  0.00    -0.202 NA
ATOM     12  C   UNL     1      -3.977  -0.874  24.890  0.00  0.00    +0.241 C 
ATOM     13  O   UNL     1      -3.997  -0.702  25.696  0.00  0.00    -0.273 OA
BRANCH  12  14
ATOM     14  C   UNL     1      -3.835  -1.646  24.636  0.00  0.00    +0.078 C 
ATOM     15  C   UNL     1      -4.065  -2.098  23.985  0.00  0.00    +0.009 C 
ATOM     16  C   UNL     1      -3.635  -2.738  24.278  0.00  0.00    +0.001 C 
ATOM     17  C   UNL     1      -3.406  -2.286  24.930  0.00  0.00    +0.009 C 
ENDBRANCH  12  14
ENDBRANCH   7  11
BRANCH   3   2
ATOM      1  C   UNL     1      -3.590   3.912  24.290  0.00  0.00    +0.174 C 
ATOM      2  O   UNL     1      -4.019   3.286  24.614  0.00  0.00    -0.348 OA
ENDBRANCH   3   2
TORSDOF 3
ENDMDL
MODEL 3
REMARK VINA RESULT:      -8.4      1.337      1.833
REMARK  Name = 
REMARK  3 active torsions:
REMARK  status: ('A' for Active; 'I' for Inactive)
REMARK    1  A    between atoms: O_2  and  C_3
REMARK    2  A    between atoms: C_7  and  N_11
REMARK    3  A    between atoms: C_12  and  C_14
REMARK                            x       y       z     vdW  Elec       q    Type
REMARK                         _______ _______ _______ _____ _____    ______ ____
ROOT
ATOM      3  C   UNL     1      -2.739   3.009  24.954  0.00  0.00    +0.174 C 
ATOM      4  C   UNL     1      -2.025   2.607  24.865  0.00  0.00    +0.174 C 
ATOM      5  O   UNL     1      -2.196   1.821  24.686  0.00  0.00    -0.349 OA
ATOM      6  C   UNL     1      -3.015   1.736  24.665  0.00  0.00    +0.167 C 
ATOM      7  C   UNL     1      -3.628   1.198  24.541  0.00  0.00    +0.154 C 
ATOM      8  C   UNL     1      -4.343   1.599  24.631  0.00  0.00    +0.166 C 
ATOM      9  O   UNL     1      -4.172   2.386  24.810  0.00  0.00    -0.349 OA
ATOM     10  C   UNL     1      -3.351   2.470  24.831  0.00  0.00    +0.173 C 
ENDROOT
BRANCH   7  11
ATOM     11  N   UNL     1      -3.541   0.397  24.360  0.00  0.00    -0.202 NA
ATOM     12  C   UNL     1      -4.058  -0.158  24.684  0.00  0.00    +0.241 C 
ATOM     13  O   UNL     1      -4.663   0.087  25.189  0.00  0.00    -0.273 OA
BRANCH  12  14
ATOM     14  C   UNL     1      -3.971  -0.958  24.503  0.00  0.00    +0.078 C 
ATOM     15  C   UNL     1      -4.222  -1.448  23.887  0.00  0.00    +0.009 C 
ATOM     16  C   UNL     1      -3.848  -2.089  24.246  0.00  0.00    +0.001 C 
ATOM     17  C   UNL     1      -3.597  -1.600  24.861  0.00  0.00    +0.009 C 
ENDBRANCH  12  14
ENDBRANCH   7  11
BRANCH   3   2
ATOM      1  C   UNL     1      -2.171   4.255  25.365  0.00  0.00    +0.174 C 
ATOM      2  O   UNL     1      -2.827   3.809  25.136  0.00  0.00    -0.348 OA
ENDBRANCH   3   2
TORSDOF 3
ENDMDL
MODEL 4
REMARK VINA RESULT:      -8.2      1.784      2.599
REMARK  Name = 
REMARK  3 active torsions:
REMARK  status: ('A' for Active; 'I' for Inactive)
REMARK    1  A    between atoms: O_2  and  C_3
REMARK    2  A    between atoms: C_7  and  N_11
REMARK    3  A    between atoms: C_12  and  C_14
REMARK                            x       y       z     vdW  Elec       q    Type
REMARK                         _______ _______ _______ _____ _____    ______ ____
ROOT
ATOM      3  C   UNL     1      -1.186   1.704  25.361  0.00  0.00    +0.174 C 
ATOM      4  C   UNL     1      -0.674   1.058  25.334  0.00  0.00    +0.174 C 
ATOM      5  O   UNL     1      -1.103   0.405  25.071  0.00  0.00    -0.349 OA
ATOM      6  C   UNL     1      -1.879   0.646  24.935  0.00  0.00    +0.167 C 
ATOM      7  C   UNL     1      -2.625   0.393  24.689  0.00  0.00    +0.154 C 
ATOM      8  C   UNL     1      -3.137   1.039  24.716  0.00  0.00    +0.166 C 
ATOM      9  O   UNL     1      -2.708   1.692  24.979  0.00  0.00    -0.349 OA
ATOM     10  C   UNL     1      -1.931   1.450  25.115  0.00  0.00    +0.173 C 
ENDROOT
BRANCH   7  11
ATOM     11  N   UNL     1      -2.823  -0.374  24.457  0.00  0.00    -0.202 NA
ATOM     12  C   UNL     1      -3.536  -0.709  24.704  0.00  0.00    +0.241 C 
ATOM     13  O   UNL     1      -4.050  -0.278  25.184  0.00  0.00    -0.273 OA
BRANCH  12  14
ATOM     14  C   UNL     1      -3.734  -1.475  24.472  0.00  0.00    +0.078 C 
ATOM     15  C   UNL     1      -3.544  -2.233  24.737  0.00  0.00    +0.009 C 
ATOM     16  C   UNL     1      -4.014  -2.558  24.143  0.00  0.00    +0.001 C 
ATOM     17  C   UNL     1      -4.205  -1.801  23.878  0.00  0.00    +0.009 C 
ENDBRANCH  12  14
ENDBRANCH   7  11
BRANCH   3   2
ATOM      1  C   UNL     1      -0.237   2.628  25.899  0.00  0.00    +0.174 C 
ATOM      2  O   UNL     1      -0.987   2.471  25.593  0.00  0.00    -0.348 OA
ENDBRANCH   3   2
TORSDOF 3
ENDMDL
MODEL 5
REMARK VINA RESULT:      -7.9      2.377      4.430
REMARK  Name = 
REMARK  3 active torsions:
REMARK  status: ('A' for Active; 'I' for Inactive)
REMARK    1  A    between atoms: O_2  and  C_3
REMARK    2  A    between atoms: C_7  and  N_11
REMARK    3  A    between atoms: C_12  and  C_14
REMARK                            x       y       z     vdW  Elec       q    Type
REMARK                         _______ _______ _______ _____ _____    ______ ____
ROOT
ATOM      3  C   UNL     1      -3.724   0.561  24.536  0.00  0.00    +0.174 C 
ATOM      4  C   UNL     1      -2.967   0.412  24.244  0.00  0.00    +0.174 C 
ATOM      5  O   UNL     1      -2.547   1.121  24.254  0.00  0.00    -0.349 OA
ATOM      6  C   UNL     1      -3.042   1.708  24.552  0.00  0.00    +0.167 C 
ATOM      7  C   UNL     1      -3.090   2.509  24.744  0.00  0.00    +0.154 C 
ATOM      8  C   UNL     1      -3.847   2.658  25.035  0.00  0.00    +0.166 C 
ATOM      9  O   UNL     1      -4.268   1.949  25.025  0.00  0.00    -0.349 OA
ATOM     10  C   UNL     1      -3.771   1.362  24.726  0.00  0.00    +0.173 C 
ENDROOT
BRANCH   7  11
ATOM     11  N   UNL     1      -2.485   3.065  24.658  0.00  0.00    -0.202 NA
ATOM     12  C   UNL     1      -2.366   3.638  25.238  0.00  0.00    +0.241 C 
ATOM     13  O   UNL     1      -2.851   3.657  25.905  0.00  0.00    -0.273 OA
BRANCH  12  14
ATOM     14  C   UNL     1      -1.762   4.193  25.152  0.00  0.00    +0.078 C 
ATOM     15  C   UNL     1      -0.951   4.154  25.005  0.00  0.00    +0.009 C 
ATOM     16  C   UNL     1      -0.907   4.977  25.031  0.00  0.00    +0.001 C 
ATOM     17  C   UNL     1      -1.718   5.016  25.178  0.00  0.00    +0.009 C 
ENDBRANCH  12  14
ENDBRANCH   7  11
BRANCH   3   2
ATOM      1  C   UNL     1      -4.209  -0.775  24.383  0.00  0.00    +0.174 C 
ATOM      2  O   UNL     1      -4.329   0.006  24.622  0.00  0.00    -0.348 OA
ENDBRANCH   3   2
TORSDOF 3
ENDMDL
