MODEL 1
REMARK VINA RESULT:     -13.8      0.000      0.000
REMARK  Name = 
REMARK  5 active torsions:
REMARK  status: ('A' for Active; 'I' for Inactive)
REMARK    1  A    between atoms: N_4  and  C_21
REMARK    2  A    between atoms: C_7  and  C_8
REMARK    3  A    between atoms: C_10  and  N_11
REMARK    4  A    between atoms: C_12  and  C_14
REMARK    5  A    between atoms: C_24  and  C_27
REMARK                            x       y       z     vdW  Elec       q    Type
REMARK                         _______ _______ _______ _____ _____    ______ ____
ROOT
ATOM      1  C   UNL     1      -5.576   1.657  25.529  0.00  0.00    +0.054 C 
ATOM      2  C   UNL     1      -5.009   1.163  25.187  0.00  0.00    +0.077 A 
ATOM      3  N   UNL     1      -5.008   0.340  25.208  0.00  0.00    -0.170 NA
ATOM      4  N   UNL     1      -4.342   0.075  24.798  0.00  0.00    -0.234 N 
ATOM      5  C   UNL     1      -3.931   0.736  24.525  0.00  0.00    +0.058 A 
ATOM      6  C   UNL     1      -3.231   0.726  24.088  0.00  0.00    +0.052 C 
ATOM      7  C   UNL     1      -4.344   1.410  24.766  0.00  0.00    +0.010 A 
ENDROOT
BRANCH   4  21
ATOM     21  C   UNL     1      -4.125  -0.713  24.682  0.00  0.00    +0.082 A 
ATOM     22  C   UNL     1      -4.356  -1.107  23.996  0.00  0.00    +0.019 A 
ATOM     23  C   UNL     1      -4.139  -1.894  23.880  0.00  0.00    +0.005 A 
ATOM     24  C   UNL     1      -3.691  -2.287  24.449  0.00  0.00    +0.072 A 
ATOM     25  C   UNL     1      -3.459  -1.893  25.137  0.00  0.00    +0.005 A 
ATOM     26  C   UNL     1      -3.677  -1.105  25.253  0.00  0.00    +0.019 A 
BRANCH  24  27
ATOM     27  C   UNL     1      -3.474  -3.075  24.333  0.00  0.00    +0.419 C 
ATOM     28  F   UNL     1      -3.256  -3.862  24.217  0.00  0.00    -0.166 F 
ATOM     29  F   UNL     1      -4.268  -3.281  24.243  0.00  0.00    -0.166 F 
ATOM     30  F   UNL     1      -2.680  -2.869  24.424  0.00  0.00    -0.166 F 
ENDBRANCH  24  27
ENDBRANCH   4  21
BRANCH   7   8
ATOM      8  C   UNL     1      -4.127   2.191  24.611  0.00  0.00    +0.048 C 
ATOM      9  C   UNL     1      -3.362   2.496  24.633  0.00  0.00    +0.035 C 
ATOM     10  C   UNL     1      -3.401   3.297  24.443  0.00  0.00    +0.118 C 
ATOM     19  C   UNL     1      -4.192   3.488  24.304  0.00  0.00    -0.009 C 
ATOM     20  C   UNL     1      -4.641   2.804  24.408  0.00  0.00    -0.025 C 
BRANCH  10  11
ATOM     11  N   UNL     1      -2.763   3.818  24.399  0.00  0.00    -0.199 NA
ATOM     12  C   UNL     1      -2.389   4.072  25.089  0.00  0.00    +0.271 C 
ATOM     13  O   UNL     1      -2.652   3.805  25.824  0.00  0.00    -0.268 OA
BRANCH  12  14
ATOM     14  C   UNL     1      -1.750   4.593  25.045  0.00  0.00    +0.084 A 
ATOM     15  C   UNL     1      -1.789   5.415  25.115  0.00  0.00    +0.012 A 
ATOM     16  C   UNL     1      -1.024   5.713  25.035  0.00  0.00    +0.008 A 
ATOM     17  C   UNL     1      -0.512   5.077  24.916  0.00  0.00    +0.036 A 
ATOM     18  S   UNL     1      -0.962   4.384  24.922  0.00  0.00    -0.082 S 
ENDBRANCH  12  14
ENDBRANCH  10  11
ENDBRANCH   7   8
TORSDOF 5
ENDMDL
MODEL 2
REMARK VINA RESULT:     -12.9      3.261      5.917
REMARK  Name = 
REMARK  5 active torsions:
REMARK  status: ('A' for Active; 'I' for Inactive)
REMARK    1  A    between atoms: N_4  and  C_21
REMARK    2  A    between atoms: C_7  and  C_8
REMARK    3  A    between atoms: C_10  and  N_11
REMARK    4  A    between atoms: C_12  and  C_14
REMARK    5  A    between atoms: C_24  and  C_27
REMARK                            x       y       z     vdW  Elec       q    Type
REMARK                         _______ _______ _______ _____ _____    ______ ____
ROOT
ATOM      1  C   UNL     1      -5.396   2.740  25.886  0.00  0.00    +0.054 C 
ATOM      2  C   UNL     1      -4.630   2.818  25.586  0.00  0.00    +0.077 A 
ATOM      3  N   UNL     1      -4.157   3.491  25.635  0.00  0.00    -0.170 NA
ATOM      4  N   UNL     1      -3.438   3.324  25.265  0.00  0.00    -0.234 N 
ATOM      5  C   UNL     1      -3.468   2.548  24.988  0.00  0.00    +0.058 A 
ATOM      6  C   UNL     1      -2.866   2.154  24.583  0.00  0.00    +0.052 C 
ATOM      7  C   UNL     1      -4.205   2.234  25.187  0.00  0.00    +0.010 A 
ENDROOT
BRANCH   4  21
ATOM     21  C   UNL     1      -2.801   3.843  25.186  0.00  0.00    +0.082 A 
ATOM     22  C   UNL     1      -2.212   3.862  25.762  0.00  0.00    +0.019 A 
ATOM     23  C   UNL     1      -1.575   4.381  25.682  0.00  0.00    +0.005 A 
ATOM     24  C   UNL     1      -1.528   4.880  25.028  0.00  0.00    +0.072 A 
ATOM     25  C   UNL     1      -2.119   4.862  24.452  0.00  0.00    +0.005 A 
ATOM     26  C   UNL     1      -2.756   4.342  24.531  0.00  0.00    +0.019 A 
BRANCH  24  27
ATOM     27  C   UNL     1      -0.891   5.399  24.949  0.00  0.00    +0.419 C 
ATOM     28  F   UNL     1      -0.254   5.917  24.870  0.00  0.00    -0.166 F 
ATOM     29  F   UNL     1      -1.348   6.008  25.268  0.00  0.00    -0.166 F 
ATOM     30  F   UNL     1      -0.435   4.790  24.631  0.00  0.00    -0.166 F 
ENDBRANCH  24  27
ENDBRANCH   4  21
BRANCH   7   8
ATOM      8  C   UNL     1      -4.469   1.471  25.015  0.00  0.00    +0.048 C 
ATOM      9  C   UNL     1      -4.066   0.771  25.176  0.00  0.00    +0.035 C 
ATOM     10  C   UNL     1      -4.531   0.143  24.913  0.00  0.00    +0.118 C 
ATOM     19  C   UNL     1      -5.222   0.456  24.589  0.00  0.00    -0.009 C 
ATOM     20  C   UNL     1      -5.184   1.277  24.652  0.00  0.00    -0.025 C 
BRANCH  10  11
ATOM     11  N   UNL     1      -4.340  -0.658  24.964  0.00  0.00    -0.199 NA
ATOM     12  C   UNL     1      -4.049  -1.057  24.303  0.00  0.00    +0.271 C 
ATOM     13  O   UNL     1      -3.948  -0.655  23.590  0.00  0.00    -0.268 OA
BRANCH  12  14
ATOM     14  C   UNL     1      -3.858  -1.858  24.355  0.00  0.00    +0.084 A 
ATOM     15  C   UNL     1      -4.201  -2.468  23.918  0.00  0.00    +0.012 A 
ATOM     16  C   UNL     1      -3.846  -3.176  24.146  0.00  0.00    +0.008 A 
ATOM     17  C   UNL     1      -3.282  -3.005  24.724  0.00  0.00    +0.036 A 
ATOM     18  S   UNL     1      -3.290  -2.189  24.853  0.00  0.00    -0.082 S 
ENDBRANCH  12  14
ENDBRANCH  10  11
ENDBRANCH   7   8
TORSDOF 5
ENDMDL
MODEL 3
REMARK VINA RESULT:     -11.5      2.069      2.747
REMARK  Name = 
REMARK  5 active torsions:
REMARK  status: ('A' for Active; 'I' for Inactive)
REMARK    1  A    between atoms: N_4  and  C_21
REMARK    2  A    between atoms: C_7  and  C_8
REMARK    3  A    between atoms: C_10  and  N_11
REMARK    4  A    between atoms: C_12  and  C_14
REMARK    5  A    between atoms: C_24  and  C_27
REMARK                            x       y       z     vdW  Elec       q    Type
REMARK                         _______ _______ _______ _____ _____    ______ ____
ROOT
ATOM      1  C   UNL     1       0.348   0.235  23.669  0.00  0.00    +0.054 C 
ATOM      2  C   UNL     1      -0.350  -0.001  24.042  0.00  0.00    +0.077 A 
ATOM      3  N   UNL     1      -0.740  -0.719  23.933  0.00  0.00    -0.170 NA
ATOM      4  N   UNL     1      -1.410  -0.720  24.414  0.00  0.00    -0.234 N 
ATOM      5  C   UNL     1      -1.435  -0.003  24.820  0.00  0.00    +0.058 A 
ATOM      6  C   UNL     1      -2.013   0.229  25.361  0.00  0.00    +0.052 C 
ATOM      7  C   UNL     1      -0.779   0.443  24.590  0.00  0.00    +0.010 A 
ENDROOT
BRANCH   4  21
ATOM     21  C   UNL     1      -1.961  -1.333  24.477  0.00  0.00    +0.082 A 
ATOM     22  C   UNL     1      -2.753  -1.193  24.299  0.00  0.00    +0.019 A 
ATOM     23  C   UNL     1      -3.304  -1.805  24.362  0.00  0.00    +0.005 A 
ATOM     24  C   UNL     1      -3.061  -2.555  24.604  0.00  0.00    +0.072 A 
ATOM     25  C   UNL     1      -2.267  -2.694  24.782  0.00  0.00    +0.005 A 
ATOM     26  C   UNL     1      -1.717  -2.082  24.719  0.00  0.00    +0.019 A 
BRANCH  24  27
ATOM     27  C   UNL     1      -3.611  -3.167  24.667  0.00  0.00    +0.419 C 
ATOM     28  F   UNL     1      -4.161  -3.779  24.731  0.00  0.00    -0.166 F 
ATOM     29  F   UNL     1      -3.638  -3.228  23.844  0.00  0.00    -0.166 F 
ATOM     30  F   UNL     1      -3.584  -3.105  25.489  0.00  0.00    -0.166 F 
ENDBRANCH  24  27
ENDBRANCH   4  21
BRANCH   7   8
ATOM      8  C   UNL     1      -0.587   1.198  24.862  0.00  0.00    +0.048 C 
ATOM      9  C   UNL     1      -0.845   1.910  24.538  0.00  0.00    +0.035 C 
ATOM     10  C   UNL     1      -0.521   2.525  24.982  0.00  0.00    +0.118 C 
ATOM     19  C   UNL     1      -0.062   2.192  25.581  0.00  0.00    -0.009 C 
ATOM     20  C   UNL     1      -0.103   1.372  25.507  0.00  0.00    -0.025 C 
BRANCH  10  11
ATOM     11  N   UNL     1      -0.635   3.331  24.851  0.00  0.00    -0.199 NA
ATOM     12  C   UNL     1      -1.190   3.748  25.296  0.00  0.00    +0.271 C 
ATOM     13  O   UNL     1      -1.633   3.359  25.873  0.00  0.00    -0.268 OA
BRANCH  12  14
ATOM     14  C   UNL     1      -1.303   4.555  25.164  0.00  0.00    +0.084 A 
ATOM     15  C   UNL     1      -0.750   5.077  24.844  0.00  0.00    +0.012 A 
ATOM     16  C   UNL     1      -1.094   5.826  24.811  0.00  0.00    +0.008 A 
ATOM     17  C   UNL     1      -1.860   5.767  25.111  0.00  0.00    +0.036 A 
ATOM     18  S   UNL     1      -1.990   4.982  25.330  0.00  0.00    -0.082 S 
ENDBRANCH  12  14
ENDBRANCH  10  11
ENDBRANCH   7   8
TORSDOF 5
ENDMDL
MODEL 4
REMARK VINA RESULT:     -11.5      3.780      6.494
REMARK  Name = 
REMARK  5 active torsions:
REMARK  status: ('A' for Active; 'I' for Inactive)
REMARK    1  A    between atoms: N_4  and  C_21
REMARK    2  A    between atoms: C_7  and  C_8
REMARK    3  A    between atoms: C_10  and  N_11
REMARK    4  A    between atoms: C_12  and  C_14
REMARK    5  A    between atoms: C_24  and  C_27
REMARK                            x       y       z     vdW  Elec       q    Type
REMARK                         _______ _______ _______ _____ _____    ______ ____
ROOT
ATOM      1  C   UNL     1       0.606   0.526  23.931  0.00  0.00    +0.054 C 
ATOM      2  C   UNL     1       0.062   1.059  24.249  0.00  0.00    +0.077 A 
ATOM      3  N   UNL     1       0.129   1.880  24.244  0.00  0.00    -0.170 NA
ATOM      4  N   UNL     1      -0.536   2.193  24.620  0.00  0.00    -0.234 N 
ATOM      5  C   UNL     1      -1.014   1.563  24.858  0.00  0.00    +0.058 A 
ATOM      6  C   UNL     1      -1.735   1.625  25.255  0.00  0.00    +0.052 C 
ATOM      7  C   UNL     1      -0.644   0.862  24.628  0.00  0.00    +0.010 A 
ENDROOT
BRANCH   4  21
ATOM     21  C   UNL     1      -0.695   2.994  24.738  0.00  0.00    +0.082 A 
ATOM     22  C   UNL     1      -0.946   3.461  24.107  0.00  0.00    +0.019 A 
ATOM     23  C   UNL     1      -1.105   4.262  24.225  0.00  0.00    +0.005 A 
ATOM     24  C   UNL     1      -1.014   4.595  24.973  0.00  0.00    +0.072 A 
ATOM     25  C   UNL     1      -0.763   4.128  25.606  0.00  0.00    +0.005 A 
ATOM     26  C   UNL     1      -0.604   3.326  25.488  0.00  0.00    +0.019 A 
BRANCH  24  27
ATOM     27  C   UNL     1      -1.173   5.397  25.091  0.00  0.00    +0.419 C 
ATOM     28  F   UNL     1      -1.333   6.197  25.209  0.00  0.00    -0.166 F 
ATOM     29  F   UNL     1      -0.456   5.592  24.732  0.00  0.00    -0.166 F 
ATOM     30  F   UNL     1      -1.890   5.201  25.450  0.00  0.00    -0.166 F 
ENDBRANCH  24  27
ENDBRANCH   4  21
BRANCH   7   8
ATOM      8  C   UNL     1      -0.931   0.099  24.757  0.00  0.00    +0.048 C 
ATOM      9  C   UNL     1      -1.511  -0.283  24.312  0.00  0.00    +0.035 C 
ATOM     10  C   UNL     1      -1.626  -1.033  24.633  0.00  0.00    +0.118 C 
ATOM     19  C   UNL     1      -1.117  -1.115  25.277  0.00  0.00    -0.009 C 
ATOM     20  C   UNL     1      -0.688  -0.416  25.354  0.00  0.00    -0.025 C 
BRANCH  10  11
ATOM     11  N   UNL     1      -2.157  -1.602  24.359  0.00  0.00    -0.199 NA
ATOM     12  C   UNL     1      -2.907  -1.664  24.696  0.00  0.00    +0.271 C 
ATOM     13  O   UNL     1      -3.128  -1.157  25.308  0.00  0.00    -0.268 OA
BRANCH  12  14
ATOM     14  C   UNL     1      -3.437  -2.234  24.422  0.00  0.00    +0.084 A 
ATOM     15  C   UNL     1      -3.407  -3.043  24.584  0.00  0.00    +0.012 A 
ATOM     16  C   UNL     1      -4.041  -3.404  24.199  0.00  0.00    +0.008 A 
ATOM     17  C   UNL     1      -4.464  -2.818  23.800  0.00  0.00    +0.036 A 
ATOM     18  S   UNL     1      -4.090  -2.095  23.937  0.00  0.00    -0.082 S 
ENDBRANCH  12  14
ENDBRANCH  10  11
ENDBRANCH   7   8
TORSDOF 5
ENDMDL
MODEL 5
REMARK VINA RESULT:     -10.9      3.653      4.973
REMARK  Name = 
REMARK  5 active torsions:
REMARK  status: ('A' for Active; 'I' for Inactive)
REMARK    1  A    between atoms: N_4  and  C_21
REMARK    2  A    between atoms: C_7  and  C_8
REMARK    3  A    between atoms: C_10  and  N_11
REMARK    4  A    between atoms: C_12  and  C_14
REMARK    5  A    between atoms: C_24  and  C_27
REMARK                            x       y       z     vdW  Elec       q    Type
REMARK                         _______ _______ _______ _____ _____    ______ ____
ROOT
ATOM      1  C   UNL     1      -3.395  -0.903  24.157  0.00  0.00    +0.054 C 
ATOM      2  C   UNL     1      -3.380  -0.117  24.410  0.00  0.00    +0.077 A 
ATOM      3  N   UNL     1      -4.036   0.373  24.508  0.00  0.00    -0.170 NA
ATOM      4  N   UNL     1      -3.769   1.109  24.768  0.00  0.00    -0.234 N 
ATOM      5  C   UNL     1      -2.947   1.074  24.831  0.00  0.00    +0.058 A 
ATOM      6  C   UNL     1      -2.452   1.689  25.072  0.00  0.00    +0.052 C 
ATOM      7  C   UNL     1      -2.706   0.316  24.609  0.00  0.00    +0.010 A 
ENDROOT
BRANCH   4  21
ATOM     21  C   UNL     1      -4.240   1.765  24.936  0.00  0.00    +0.082 A 
ATOM     22  C   UNL     1      -4.789   1.731  25.550  0.00  0.00    +0.019 A 
ATOM     23  C   UNL     1      -5.261   2.387  25.718  0.00  0.00    +0.005 A 
ATOM     24  C   UNL     1      -5.183   3.076  25.273  0.00  0.00    +0.072 A 
ATOM     25  C   UNL     1      -4.633   3.111  24.658  0.00  0.00    +0.005 A 
ATOM     26  C   UNL     1      -4.161   2.454  24.490  0.00  0.00    +0.019 A 
BRANCH  24  27
ATOM     27  C   UNL     1      -5.654   3.733  25.441  0.00  0.00    +0.419 C 
ATOM     28  F   UNL     1      -6.126   4.388  25.609  0.00  0.00    -0.166 F 
ATOM     29  F   UNL     1      -4.976   4.190  25.558  0.00  0.00    -0.166 F 
ATOM     30  F   UNL     1      -6.331   3.276  25.325  0.00  0.00    -0.166 F 
ENDBRANCH  24  27
ENDBRANCH   4  21
BRANCH   7   8
ATOM      8  C   UNL     1      -1.929   0.040  24.591  0.00  0.00    +0.048 C 
ATOM      9  C   UNL     1      -1.435   0.023  23.931  0.00  0.00    +0.035 C 
ATOM     10  C   UNL     1      -0.711  -0.294  24.162  0.00  0.00    +0.118 C 
ATOM     19  C   UNL     1      -0.756  -0.473  24.966  0.00  0.00    -0.009 C 
ATOM     20  C   UNL     1      -1.508  -0.266  25.231  0.00  0.00    -0.025 C 
BRANCH  10  11
ATOM     11  N   UNL     1      -0.055  -0.412  23.676  0.00  0.00    -0.199 NA
ATOM     12  C   UNL     1       0.476   0.205  23.541  0.00  0.00    +0.271 C 
ATOM     13  O   UNL     1       0.352   0.941  23.892  0.00  0.00    -0.268 OA
BRANCH  12  14
ATOM     14  C   UNL     1       1.132   0.086  23.055  0.00  0.00    +0.084 A 
ATOM     15  C   UNL     1       1.131  -0.296  22.323  0.00  0.00    +0.012 A 
ATOM     16  C   UNL     1       1.902  -0.290  22.031  0.00  0.00    +0.008 A 
ATOM     17  C   UNL     1       2.381   0.096  22.582  0.00  0.00    +0.036 A 
ATOM     18  S   UNL     1       1.904   0.329  23.214  0.00  0.00    -0.082 S 
ENDBRANCH  12  14
ENDBRANCH  10  11
ENDBRANCH   7   8
TORSDOF 5
ENDMDL
MODEL 6
REMARK VINA RESULT:     -10.8      3.468      4.722
REMARK  Name = 
REMARK  5 active torsions:
REMARK  status: ('A' for Active; 'I' for Inactive)
REMARK    1  A    between atoms: N_4  and  C_21
REMARK    2  A    between atoms: C_7  and  C_8
REMARK    3  A    between atoms: C_10  and  N_11
REMARK    4  A    between atoms: C_12  and  C_14
REMARK    5  A    between atoms: C_24  and  C_27
REMARK                            x       y       z     vdW  Elec       q    Type
REMARK                         _______ _______ _______ _____ _____    ______ ____
ROOT
ATOM      1  C   UNL     1      -1.350   4.211  24.993  0.00  0.00    +0.054 C 
ATOM      2  C   UNL     1      -1.886   3.583  24.981  0.00  0.00    +0.077 A 
ATOM      3  N   UNL     1      -2.708   3.648  24.998  0.00  0.00    -0.170 NA
ATOM      4  N   UNL     1      -3.024   2.885  24.978  0.00  0.00    -0.234 N 
ATOM      5  C   UNL     1      -2.396   2.350  24.948  0.00  0.00    +0.058 A 
ATOM      6  C   UNL     1      -2.462   1.528  24.921  0.00  0.00    +0.052 C 
ATOM      7  C   UNL     1      -1.693   2.782  24.951  0.00  0.00    +0.010 A 
ENDROOT
BRANCH   4  21
ATOM     21  C   UNL     1      -3.826   2.692  24.985  0.00  0.00    +0.082 A 
ATOM     22  C   UNL     1      -4.185   2.399  24.303  0.00  0.00    +0.019 A 
ATOM     23  C   UNL     1      -4.988   2.205  24.310  0.00  0.00    +0.005 A 
ATOM     24  C   UNL     1      -5.430   2.305  24.999  0.00  0.00    +0.072 A 
ATOM     25  C   UNL     1      -5.070   2.599  25.681  0.00  0.00    +0.005 A 
ATOM     26  C   UNL     1      -4.268   2.792  25.674  0.00  0.00    +0.019 A 
BRANCH  24  27
ATOM     27  C   UNL     1      -6.232   2.112  25.006  0.00  0.00    +0.419 C 
ATOM     28  F   UNL     1      -7.034   1.919  25.013  0.00  0.00    -0.166 F 
ATOM     29  F   UNL     1      -6.409   2.859  25.310  0.00  0.00    -0.166 F 
ATOM     30  F   UNL     1      -6.055   1.366  24.702  0.00  0.00    -0.166 F 
ENDBRANCH  24  27
ENDBRANCH   4  21
BRANCH   7   8
ATOM      8  C   UNL     1      -0.931   2.466  24.927  0.00  0.00    +0.048 C 
ATOM      9  C   UNL     1      -0.525   2.228  24.250  0.00  0.00    +0.035 C 
ATOM     10  C   UNL     1       0.215   1.948  24.481  0.00  0.00    +0.118 C 
ATOM     19  C   UNL     1       0.266   2.011  25.302  0.00  0.00    -0.009 C 
ATOM     20  C   UNL     1      -0.442   2.331  25.578  0.00  0.00    -0.025 C 
BRANCH  10  11
ATOM     11  N   UNL     1       0.802   1.655  23.980  0.00  0.00    -0.199 NA
ATOM     12  C   UNL     1       0.804   0.857  23.769  0.00  0.00    +0.271 C 
ATOM     13  O   UNL     1       0.219   0.352  24.057  0.00  0.00    -0.268 OA
BRANCH  12  14
ATOM     14  C   UNL     1       1.391   0.565  23.268  0.00  0.00    +0.084 A 
ATOM     15  C   UNL     1       2.176   0.818  23.242  0.00  0.00    +0.012 A 
ATOM     16  C   UNL     1       2.567   0.378  22.663  0.00  0.00    +0.008 A 
ATOM     17  C   UNL     1       2.023  -0.148  22.333  0.00  0.00    +0.036 A 
ATOM     18  S   UNL     1       1.296  -0.032  22.707  0.00  0.00    -0.082 S 
ENDBRANCH  12  14
ENDBRANCH  10  11
ENDBRANCH   7   8
TORSDOF 5
ENDMDL
MODEL 7
REMARK VINA RESULT:     -10.4      3.582      4.761
REMARK  Name = 
REMARK  5 active torsions:
REMARK  status: ('A' for Active; 'I' for Inactive)
REMARK    1  A    between atoms: N_4  and  C_21
REMARK    2  A    between atoms: C_7  and  C_8
REMARK    3  A    between atoms: C_10  and  N_11
REMARK    4  A    between atoms: C_12  and  C_14
REMARK    5  A    between atoms: C_24  and  C_27
REMARK                            x       y       z     vdW  Elec       q    Type
REMARK                         _______ _______ _______ _____ _____    ______ ____
ROOT
ATOM      1  C   UNL     1      -1.610  -0.924  25.528  0.00  0.00    +0.054 C 
ATOM      2  C   UNL     1      -1.249  -0.498  24.919  0.00  0.00    +0.077 A 
ATOM      3  N   UNL     1      -0.460  -0.557  24.688  0.00  0.00    -0.170 NA
ATOM      4  N   UNL     1      -0.339  -0.034  24.061  0.00  0.00    -0.234 N 
ATOM      5  C   UNL     1      -1.054   0.348  23.905  0.00  0.00    +0.058 A 
ATOM      6  C   UNL     1      -1.182   0.916  23.321  0.00  0.00    +0.052 C 
ATOM      7  C   UNL     1      -1.617   0.060  24.436  0.00  0.00    +0.010 A 
ENDROOT
BRANCH   4  21
ATOM     21  C   UNL     1       0.373   0.087  23.660  0.00  0.00    +0.082 A 
ATOM     22  C   UNL     1       0.834   0.749  23.831  0.00  0.00    +0.019 A 
ATOM     23  C   UNL     1       1.545   0.869  23.430  0.00  0.00    +0.005 A 
ATOM     24  C   UNL     1       1.794   0.328  22.860  0.00  0.00    +0.072 A 
ATOM     25  C   UNL     1       1.333  -0.335  22.690  0.00  0.00    +0.005 A 
ATOM     26  C   UNL     1       0.621  -0.455  23.091  0.00  0.00    +0.019 A 
BRANCH  24  27
ATOM     27  C   UNL     1       2.506   0.449  22.459  0.00  0.00    +0.419 C 
ATOM     28  F   UNL     1       3.217   0.569  22.059  0.00  0.00    -0.166 F 
ATOM     29  F   UNL     1       2.238  -0.027  21.840  0.00  0.00    -0.166 F 
ATOM     30  F   UNL     1       2.773   0.924  23.078  0.00  0.00    -0.166 F 
ENDBRANCH  24  27
ENDBRANCH   4  21
BRANCH   7   8
ATOM      8  C   UNL     1      -2.408   0.292  24.475  0.00  0.00    +0.048 C 
ATOM      9  C   UNL     1      -2.715   0.894  24.946  0.00  0.00    +0.035 C 
ATOM     10  C   UNL     1      -3.527   0.936  24.811  0.00  0.00    +0.118 C 
ATOM     19  C   UNL     1      -3.722   0.359  24.255  0.00  0.00    -0.009 C 
ATOM     20  C   UNL     1      -3.031  -0.039  24.047  0.00  0.00    -0.025 C 
BRANCH  10  11
ATOM     11  N   UNL     1      -4.053   1.462  25.169  0.00  0.00    -0.199 NA
ATOM     12  C   UNL     1      -4.343   2.107  24.745  0.00  0.00    +0.271 C 
ATOM     13  O   UNL     1      -4.109   2.228  23.964  0.00  0.00    -0.268 OA
BRANCH  12  14
ATOM     14  C   UNL     1      -4.869   2.633  25.104  0.00  0.00    +0.084 A 
ATOM     15  C   UNL     1      -5.631   2.453  25.366  0.00  0.00    +0.012 A 
ATOM     16  C   UNL     1      -5.959   3.139  25.687  0.00  0.00    +0.008 A 
ATOM     17  C   UNL     1      -5.399   3.742  25.624  0.00  0.00    +0.036 A 
ATOM     18  S   UNL     1      -4.726   3.429  25.263  0.00  0.00    -0.082 S 
ENDBRANCH  12  14
ENDBRANCH  10  11
ENDBRANCH   7   8
TORSDOF 5
ENDMDL
