MODEL 1
REMARK VINA RESULT:     -12.7      0.000      0.000
REMARK  Name = 
REMARK  6 active torsions:
REMARK  status: ('A' for Active; 'I' for Inactive)
REMARK    1  A    between atoms: C_2  and  C_4
REMARK    2  A    between atoms: C_7  and  N_8
REMARK    3  A    between atoms: C_9  and  O_11
REMARK    4  A    between atoms: O_11  and  C_12
REMARK    5  A    between atoms: C_16  and  N_20
REMARK    6  A    between atoms: C_24  and  C_25
REMARK                            x       y       z     vdW  Elec       q    Type
REMARK                         _______ _______ _______ _____ _____    ______ ____
ROOT
ATOM     12  C   UNL     1      -0.505   1.331  24.857  0.00  0.00    +0.229 C 
ATOM     13  C   UNL     1      -0.411   1.636  24.096  0.00  0.00    +0.188 C 
ATOM     14  O   UNL     1      -0.537   2.450  24.131  0.00  0.00    -0.348 OA
ATOM     15  C   UNL     1      -0.709   2.649  24.912  0.00  0.00    +0.171 C 
ATOM     16  C   UNL     1      -0.894   3.274  25.418  0.00  0.00    +0.167 C 
ATOM     17  C   UNL     1      -0.988   2.970  26.179  0.00  0.00    +0.169 C 
ATOM     18  O   UNL     1      -0.861   2.155  26.144  0.00  0.00    -0.348 OA
ATOM     19  C   UNL     1      -0.689   1.957  25.361  0.00  0.00    +0.187 C 
ENDROOT
BRANCH  16  20
ATOM     20  N   UNL     1      -0.971   4.067  25.200  0.00  0.00    -0.210 N 
ATOM     21  N   UNL     1      -0.357   4.570  24.973  0.00  0.00    -0.043 NA
ATOM     22  N   UNL     1      -0.683   5.308  24.804  0.00  0.00    -0.023 NA
ATOM     23  N   UNL     1      -1.497   5.262  24.926  0.00  0.00    -0.108 NA
ATOM     24  C   UNL     1      -1.675   4.495  25.171  0.00  0.00    +0.184 A 
BRANCH  24  25
ATOM     25  C   UNL     1      -2.426   4.207  25.356  0.00  0.00    +0.037 A 
ATOM     26  C   UNL     1      -2.916   3.920  24.757  0.00  0.00    +0.003 A 
ATOM     27  C   UNL     1      -3.667   3.632  24.941  0.00  0.00    +0.000 A 
ATOM     28  C   UNL     1      -3.928   3.631  25.724  0.00  0.00    +0.000 A 
ATOM     29  C   UNL     1      -3.437   3.918  26.322  0.00  0.00    +0.000 A 
ATOM     30  C   UNL     1      -2.687   4.206  26.138  0.00  0.00    +0.003 A 
ENDBRANCH  24  25
ENDBRANCH  16  20
BRANCH  12  11
ATOM     11  O   UNL     1      -0.427   0.539  25.075  0.00  0.00    -0.432 OA
BRANCH  11   9
ATOM      8  N   UNL     1      -1.327  -0.521  25.403  0.00  0.00    -0.142 NA
ATOM      9  C   UNL     1      -0.999  -0.010  24.846  0.00  0.00    +0.425 C 
ATOM     10  O   UNL     1      -1.243  -0.046  24.058  0.00  0.00    -0.224 OA
BRANCH   8   7
ATOM      4  C   UNL     1      -3.044  -2.167  24.716  0.00  0.00    +0.035 A 
ATOM      5  C   UNL     1      -3.267  -1.482  25.119  0.00  0.00    +0.004 A 
ATOM      6  C   UNL     1      -2.694  -0.934  25.348  0.00  0.00    +0.017 A 
ATOM      7  C   UNL     1      -1.899  -1.070  25.174  0.00  0.00    +0.077 A 
ATOM     31  C   UNL     1      -1.677  -1.754  24.771  0.00  0.00    +0.017 A 
ATOM     32  C   UNL     1      -2.249  -2.303  24.542  0.00  0.00    +0.004 A 
BRANCH   4   2
ATOM      1  C   UNL     1      -4.150  -2.527  23.886  0.00  0.00    +0.077 C 
ATOM      2  C   UNL     1      -3.616  -2.715  24.488  0.00  0.00    +0.173 C 
ATOM      3  O   UNL     1      -3.656  -3.450  24.859  0.00  0.00    -0.291 OA
ENDBRANCH   4   2
ENDBRANCH   8   7
ENDBRANCH  11   9
ENDBRANCH  12  11
TORSDOF 6
ENDMDL
MODEL 2
REMARK VINA RESULT:     -12.4      1.500      2.534
REMARK  Name = 
REMARK  6 active torsions:
REMARK  status: ('A' for Active; 'I' for Inactive)
REMARK    1  A    between atoms: C_2  and  C_4
REMARK    2  A    between atoms: C_7  and  N_8
REMARK    3  A    between atoms: C_9  and  O_11
REMARK    4  A    between atoms: O_11  and  C_12
REMARK    5  A    between atoms: C_16  and  N_20
REMARK    6  A    between atoms: C_24  and  C_25
REMARK                            x       y       z     vdW  Elec       q    Type
REMARK                         _______ _______ _______ _____ _____    ______ ____
ROOT
ATOM     12  C   UNL     1      -3.850   2.437  24.443  0.00  0.00    +0.229 C 
ATOM     13  C   UNL     1      -3.661   2.793  23.723  0.00  0.00    +0.188 C 
ATOM     14  O   UNL     1      -3.095   3.375  23.869  0.00  0.00    -0.348 OA
ATOM     15  C   UNL     1      -2.934   3.379  24.677  0.00  0.00    +0.171 C 
ATOM     16  C   UNL     1      -2.486   3.740  25.268  0.00  0.00    +0.167 C 
ATOM     17  C   UNL     1      -2.675   3.384  25.987  0.00  0.00    +0.169 C 
ATOM     18  O   UNL     1      -3.241   2.802  25.842  0.00  0.00    -0.348 OA
ATOM     19  C   UNL     1      -3.402   2.799  25.032  0.00  0.00    +0.187 C 
ENDROOT
BRANCH  16  20
ATOM     20  N   UNL     1      -1.942   4.351  25.157  0.00  0.00    -0.210 N 
ATOM     21  N   UNL     1      -2.125   5.148  25.039  0.00  0.00    -0.043 NA
ATOM     22  N   UNL     1      -1.416   5.561  24.955  0.00  0.00    -0.023 NA
ATOM     23  N   UNL     1      -0.796   5.022  25.021  0.00  0.00    -0.108 NA
ATOM     24  C   UNL     1      -1.121   4.274  25.146  0.00  0.00    +0.184 A 
BRANCH  24  25
ATOM     25  C   UNL     1      -0.699   3.571  25.243  0.00  0.00    +0.037 A 
ATOM     26  C   UNL     1      -0.540   3.286  26.001  0.00  0.00    +0.003 A 
ATOM     27  C   UNL     1      -0.118   2.584  26.097  0.00  0.00    +0.000 A 
ATOM     28  C   UNL     1       0.146   2.167  25.435  0.00  0.00    +0.000 A 
ATOM     29  C   UNL     1      -0.013   2.453  24.678  0.00  0.00    +0.000 A 
ATOM     30  C   UNL     1      -0.436   3.154  24.582  0.00  0.00    +0.003 A 
ENDBRANCH  24  25
ENDBRANCH  16  20
BRANCH  12  11
ATOM     11  O   UNL     1      -4.394   1.826  24.553  0.00  0.00    -0.432 OA
BRANCH  11   9
ATOM      8  N   UNL     1      -4.419   0.450  24.938  0.00  0.00    -0.142 NA
ATOM      9  C   UNL     1      -4.167   1.043  24.424  0.00  0.00    +0.425 C 
ATOM     10  O   UNL     1      -3.687   0.854  23.779  0.00  0.00    -0.224 OA
BRANCH   8   7
ATOM      4  C   UNL     1      -3.738  -1.898  24.551  0.00  0.00    +0.035 A 
ATOM      5  C   UNL     1      -3.453  -1.489  25.208  0.00  0.00    +0.004 A 
ATOM      6  C   UNL     1      -3.681  -0.706  25.337  0.00  0.00    +0.017 A 
ATOM      7  C   UNL     1      -4.192  -0.333  24.808  0.00  0.00    +0.077 A 
ATOM     31  C   UNL     1      -4.477  -0.742  24.152  0.00  0.00    +0.017 A 
ATOM     32  C   UNL     1      -4.250  -1.525  24.022  0.00  0.00    +0.004 A 
BRANCH   4   2
ATOM      1  C   UNL     1      -2.731  -2.912  24.565  0.00  0.00    +0.077 C 
ATOM      2  C   UNL     1      -3.511  -2.681  24.422  0.00  0.00    +0.173 C 
ATOM      3  O   UNL     1      -4.062  -3.232  24.152  0.00  0.00    -0.291 OA
ENDBRANCH   4   2
ENDBRANCH   8   7
ENDBRANCH  11   9
ENDBRANCH  12  11
TORSDOF 6
ENDMDL
MODEL 3
REMARK VINA RESULT:     -11.3      1.586      5.388
REMARK  Name = 
REMARK  6 active torsions:
REMARK  status: ('A' for Active; 'I' for Inactive)
REMARK    1  A    between atoms: C_2  and  C_4
REMARK    2  A    between atoms: C_7  and  N_8
REMARK    3  A    between atoms: C_9  and  O_11
REMARK    4  A    between atoms: O_11  and  C_12
REMARK    5  A    between atoms: C_16  and  N_20
REMARK    6  A    between atoms: C_24  and  C_25
REMARK                            x       y       z     vdW  Elec       q    Type
REMARK                         _______ _______ _______ _____ _____    ______ ____
ROOT
ATOM     12  C   UNL     1      -0.288   0.410  24.608  0.00  0.00    +0.229 C 
ATOM     13  C   UNL     1      -0.284   0.143  23.828  0.00  0.00    +0.188 C 
ATOM     14  O   UNL     1      -0.755  -0.533  23.787  0.00  0.00    -0.348 OA
ATOM     15  C   UNL     1      -1.050  -0.685  24.542  0.00  0.00    +0.171 C 
ATOM     16  C   UNL     1      -1.522  -1.195  24.985  0.00  0.00    +0.167 C 
ATOM     17  C   UNL     1      -1.527  -0.929  25.765  0.00  0.00    +0.169 C 
ATOM     18  O   UNL     1      -1.056  -0.253  25.805  0.00  0.00    -0.348 OA
ATOM     19  C   UNL     1      -0.761  -0.102  25.049  0.00  0.00    +0.187 C 
ENDROOT
BRANCH  16  20
ATOM     20  N   UNL     1      -1.922  -1.858  24.696  0.00  0.00    -0.210 N 
ATOM     21  N   UNL     1      -1.577  -2.574  24.475  0.00  0.00    -0.043 NA
ATOM     22  N   UNL     1      -2.178  -3.079  24.221  0.00  0.00    -0.023 NA
ATOM     23  N   UNL     1      -2.893  -2.675  24.285  0.00  0.00    -0.108 NA
ATOM     24  C   UNL     1      -2.735  -1.920  24.579  0.00  0.00    +0.184 A 
BRANCH  24  25
ATOM     25  C   UNL     1      -3.294  -1.331  24.729  0.00  0.00    +0.037 A 
ATOM     26  C   UNL     1      -3.584  -0.870  24.109  0.00  0.00    +0.003 A 
ATOM     27  C   UNL     1      -4.142  -0.281  24.259  0.00  0.00    +0.000 A 
ATOM     28  C   UNL     1      -4.411  -0.154  25.030  0.00  0.00    +0.000 A 
ATOM     29  C   UNL     1      -4.120  -0.616  25.649  0.00  0.00    +0.000 A 
ATOM     30  C   UNL     1      -3.562  -1.204  25.498  0.00  0.00    +0.003 A 
ENDBRANCH  24  25
ENDBRANCH  16  20
BRANCH  12  11
ATOM     11  O   UNL     1       0.111   1.072  24.896  0.00  0.00    -0.432 OA
BRANCH  11   9
ATOM      8  N   UNL     1      -0.288   2.321  25.465  0.00  0.00    -0.142 NA
ATOM      9  C   UNL     1      -0.220   1.823  24.811  0.00  0.00    +0.425 C 
ATOM     10  O   UNL     1      -0.484   2.076  24.071  0.00  0.00    -0.224 OA
BRANCH   8   7
ATOM      4  C   UNL     1      -1.281   4.573  25.210  0.00  0.00    +0.035 A 
ATOM      5  C   UNL     1      -1.708   3.974  25.584  0.00  0.00    +0.004 A 
ATOM      6  C   UNL     1      -1.376   3.223  25.669  0.00  0.00    +0.017 A 
ATOM      7  C   UNL     1      -0.619   3.072  25.380  0.00  0.00    +0.077 A 
ATOM     31  C   UNL     1      -0.193   3.671  25.007  0.00  0.00    +0.017 A 
ATOM     32  C   UNL     1      -0.524   4.422  24.922  0.00  0.00    +0.004 A 
BRANCH   4   2
ATOM      1  C   UNL     1      -2.414   5.441  25.287  0.00  0.00    +0.077 C 
ATOM      2  C   UNL     1      -1.613   5.324  25.126  0.00  0.00    +0.173 C 
ATOM      3  O   UNL     1      -1.145   5.957  24.881  0.00  0.00    -0.291 OA
ENDBRANCH   4   2
ENDBRANCH   8   7
ENDBRANCH  11   9
ENDBRANCH  12  11
TORSDOF 6
ENDMDL
MODEL 4
REMARK VINA RESULT:     -10.9      2.078      5.960
REMARK  Name = 
REMARK  6 active torsions:
REMARK  status: ('A' for Active; 'I' for Inactive)
REMARK    1  A    between atoms: C_2  and  C_4
REMARK    2  A    between atoms: C_7  and  N_8
REMARK    3  A    between atoms: C_9  and  O_11
REMARK    4  A    between atoms: O_11  and  C_12
REMARK    5  A    between atoms: C_16  and  N_20
REMARK    6  A    between atoms: C_24  and  C_25
REMARK                            x       y       z     vdW  Elec       q    Type
REMARK                         _______ _______ _______ _____ _____    ______ ____
ROOT
ATOM     12  C   UNL     1      -4.088   0.756  24.654  0.00  0.00    +0.229 C 
ATOM     13  C   UNL     1      -4.121   0.570  23.851  0.00  0.00    +0.188 C 
ATOM     14  O   UNL     1      -3.922  -0.226  23.766  0.00  0.00    -0.348 OA
ATOM     15  C   UNL     1      -3.765  -0.532  24.515  0.00  0.00    +0.171 C 
ATOM     16  C   UNL     1      -3.545  -1.212  24.926  0.00  0.00    +0.167 C 
ATOM     17  C   UNL     1      -3.511  -1.026  25.729  0.00  0.00    +0.169 C 
ATOM     18  O   UNL     1      -3.711  -0.230  25.814  0.00  0.00    -0.348 OA
ATOM     19  C   UNL     1      -3.868   0.075  25.064  0.00  0.00    +0.187 C 
ENDROOT
BRANCH  16  20
ATOM     20  N   UNL     1      -3.387  -1.950  24.593  0.00  0.00    -0.210 N 
ATOM     21  N   UNL     1      -3.948  -2.486  24.310  0.00  0.00    -0.043 NA
ATOM     22  N   UNL     1      -3.547  -3.148  24.026  0.00  0.00    -0.023 NA
ATOM     23  N   UNL     1      -2.739  -3.023  24.133  0.00  0.00    -0.108 NA
ATOM     24  C   UNL     1      -2.640  -2.282  24.483  0.00  0.00    +0.184 A 
BRANCH  24  25
ATOM     25  C   UNL     1      -1.920  -1.935  24.687  0.00  0.00    +0.037 A 
ATOM     26  C   UNL     1      -1.639  -1.992  25.462  0.00  0.00    +0.003 A 
ATOM     27  C   UNL     1      -0.919  -1.645  25.666  0.00  0.00    +0.000 A 
ATOM     28  C   UNL     1      -0.479  -1.240  25.096  0.00  0.00    +0.000 A 
ATOM     29  C   UNL     1      -0.761  -1.184  24.322  0.00  0.00    +0.000 A 
ATOM     30  C   UNL     1      -1.480  -1.531  24.118  0.00  0.00    +0.003 A 
ENDBRANCH  24  25
ENDBRANCH  16  20
BRANCH  12  11
ATOM     11  O   UNL     1      -4.246   1.494  24.987  0.00  0.00    -0.432 OA
BRANCH  11   9
ATOM      8  N   UNL     1      -3.386   2.506  25.515  0.00  0.00    -0.142 NA
ATOM      9  C   UNL     1      -3.724   2.121  24.869  0.00  0.00    +0.425 C 
ATOM     10  O   UNL     1      -3.540   2.364  24.101  0.00  0.00    -0.224 OA
BRANCH   8   7
ATOM      4  C   UNL     1      -1.819   4.388  25.159  0.00  0.00    +0.035 A 
ATOM      5  C   UNL     1      -1.528   3.636  25.333  0.00  0.00    +0.004 A 
ATOM      6  C   UNL     1      -2.051   3.009  25.452  0.00  0.00    +0.017 A 
ATOM      7  C   UNL     1      -2.864   3.133  25.396  0.00  0.00    +0.077 A 
ATOM     31  C   UNL     1      -3.155   3.885  25.223  0.00  0.00    +0.017 A 
ATOM     32  C   UNL     1      -2.633   4.513  25.104  0.00  0.00    +0.004 A 
BRANCH   4   2
ATOM      1  C   UNL     1      -0.554   4.876  24.707  0.00  0.00    +0.077 C 
ATOM      2  C   UNL     1      -1.296   5.015  25.040  0.00  0.00    +0.173 C 
ATOM      3  O   UNL     1      -1.515   5.781  25.255  0.00  0.00    -0.291 OA
ENDBRANCH   4   2
ENDBRANCH   8   7
ENDBRANCH  11   9
ENDBRANCH  12  11
TORSDOF 6
ENDMDL
MODEL 5
REMARK VINA RESULT:      -9.6      1.691      5.232
REMARK  Name = 
REMARK  6 active torsions:
REMARK  status: ('A' for Active; 'I' for Inactive)
REMARK    1  A    between atoms: C_2  and  C_4
REMARK    2  A    between atoms: C_7  and  N_8
REMARK    3  A    between atoms: C_9  and  O_11
REMARK    4  A    between atoms: O_11  and  C_12
REMARK    5  A    between atoms: C_16  and  N_20
REMARK    6  A    between atoms: C_24  and  C_25
REMARK                            x       y       z     vdW  Elec       q    Type
REMARK                         _______ _______ _______ _____ _____    ______ ____
ROOT
ATOM     12  C   UNL     1      -1.303   1.523  24.902  0.00  0.00    +0.229 C 
ATOM     13  C   UNL     1      -0.966   1.383  25.642  0.00  0.00    +0.188 C 
ATOM     14  O   UNL     1      -0.793   0.578  25.694  0.00  0.00    -0.348 OA
ATOM     15  C   UNL     1      -1.023   0.221  24.988  0.00  0.00    +0.171 C 
ATOM     16  C   UNL     1      -1.058  -0.497  24.583  0.00  0.00    +0.167 C 
ATOM     17  C   UNL     1      -1.396  -0.357  23.844  0.00  0.00    +0.169 C 
ATOM     18  O   UNL     1      -1.569   0.447  23.791  0.00  0.00    -0.348 OA
ATOM     19  C   UNL     1      -1.338   0.805  24.498  0.00  0.00    +0.187 C 
ENDROOT
BRANCH  16  20
ATOM     20  N   UNL     1      -0.801  -1.227  24.868  0.00  0.00    -0.210 N 
ATOM     21  N   UNL     1      -0.018  -1.441  25.021  0.00  0.00    -0.043 NA
ATOM     22  N   UNL     1      -0.015  -2.217  25.298  0.00  0.00    -0.023 NA
ATOM     23  N   UNL     1      -0.795  -2.484  25.317  0.00  0.00    -0.108 NA
ATOM     24  C   UNL     1      -1.281  -1.873  25.051  0.00  0.00    +0.184 A 
BRANCH  24  25
ATOM     25  C   UNL     1      -2.103  -1.901  24.981  0.00  0.00    +0.037 A 
ATOM     26  C   UNL     1      -2.579  -1.663  25.611  0.00  0.00    +0.003 A 
ATOM     27  C   UNL     1      -3.401  -1.693  25.541  0.00  0.00    +0.000 A 
ATOM     28  C   UNL     1      -3.746  -1.959  24.840  0.00  0.00    +0.000 A 
ATOM     29  C   UNL     1      -3.269  -2.197  24.210  0.00  0.00    +0.000 A 
ATOM     30  C   UNL     1      -2.447  -2.168  24.281  0.00  0.00    +0.003 A 
ENDBRANCH  24  25
ENDBRANCH  16  20
BRANCH  12  11
ATOM     11  O   UNL     1      -1.561   2.253  24.617  0.00  0.00    -0.432 OA
BRANCH  11   9
ATOM      8  N   UNL     1      -2.926   2.631  24.431  0.00  0.00    -0.142 NA
ATOM      9  C   UNL     1      -2.255   2.589  24.909  0.00  0.00    +0.425 C 
ATOM     10  O   UNL     1      -2.278   2.883  25.680  0.00  0.00    -0.224 OA
BRANCH   8   7
ATOM      4  C   UNL     1      -5.011   3.638  25.307  0.00  0.00    +0.035 A 
ATOM      5  C   UNL     1      -4.958   2.821  25.205  0.00  0.00    +0.004 A 
ATOM      6  C   UNL     1      -4.263   2.486  24.913  0.00  0.00    +0.017 A 
ATOM      7  C   UNL     1      -3.621   2.967  24.723  0.00  0.00    +0.077 A 
ATOM     31  C   UNL     1      -3.673   3.784  24.826  0.00  0.00    +0.017 A 
ATOM     32  C   UNL     1      -4.368   4.120  25.118  0.00  0.00    +0.004 A 
BRANCH   4   2
ATOM      1  C   UNL     1      -5.874   4.768  25.450  0.00  0.00    +0.077 C 
ATOM      2  C   UNL     1      -5.706   3.973  25.599  0.00  0.00    +0.173 C 
ATOM      3  O   UNL     1      -6.232   3.515  26.039  0.00  0.00    -0.291 OA
ENDBRANCH   4   2
ENDBRANCH   8   7
ENDBRANCH  11   9
ENDBRANCH  12  11
TORSDOF 6
ENDMDL
MODEL 6
REMARK VINA RESULT:      -9.0      2.239      4.556
REMARK  Name = 
REMARK  6 active torsions:
REMARK  status: ('A' for Active; 'I' for Inactive)
REMARK    1  A    between atoms: C_2  and  C_4
REMARK    2  A    between atoms: C_7  and  N_8
REMARK    3  A    between atoms: C_9  and  O_11
REMARK    4  A    between atoms: O_11  and  C_12
REMARK    5  A    between atoms: C_16  and  N_20
REMARK    6  A    between atoms: C_24  and  C_25
REMARK                            x       y       z     vdW  Elec       q    Type
REMARK                         _______ _______ _______ _____ _____    ______ ____
ROOT
ATOM     12  C   UNL     1      -1.736   2.316  23.790  0.00  0.00    +0.229 C 
ATOM     13  C   UNL     1      -1.765   2.076  23.002  0.00  0.00    +0.188 C 
ATOM     14  O   UNL     1      -1.194   1.490  22.894  0.00  0.00    -0.348 OA
ATOM     15  C   UNL     1      -0.813   1.368  23.614  0.00  0.00    +0.171 C 
ATOM     16  C   UNL     1      -0.225   0.932  23.994  0.00  0.00    +0.167 C 
ATOM     17  C   UNL     1      -0.196   1.172  24.782  0.00  0.00    +0.169 C 
ATOM     18  O   UNL     1      -0.766   1.758  24.890  0.00  0.00    -0.348 OA
ATOM     19  C   UNL     1      -1.148   1.879  24.168  0.00  0.00    +0.187 C 
ENDROOT
BRANCH  16  20
ATOM     20  N   UNL     1       0.251   0.355  23.645  0.00  0.00    -0.210 N 
ATOM     21  N   UNL     1       0.877   0.492  23.124  0.00  0.00    -0.043 NA
ATOM     22  N   UNL     1       1.197  -0.239  22.913  0.00  0.00    -0.023 NA
ATOM     23  N   UNL     1       0.771  -0.826  23.304  0.00  0.00    -0.108 NA
ATOM     24  C   UNL     1       0.186  -0.459  23.756  0.00  0.00    +0.184 A 
BRANCH  24  25
ATOM     25  C   UNL     1      -0.367  -0.841  24.235  0.00  0.00    +0.037 A 
ATOM     26  C   UNL     1      -1.058  -1.147  23.904  0.00  0.00    +0.003 A 
ATOM     27  C   UNL     1      -1.611  -1.528  24.383  0.00  0.00    +0.000 A 
ATOM     28  C   UNL     1      -1.472  -1.604  25.194  0.00  0.00    +0.000 A 
ATOM     29  C   UNL     1      -0.781  -1.298  25.524  0.00  0.00    +0.000 A 
ATOM     30  C   UNL     1      -0.229  -0.917  25.044  0.00  0.00    +0.003 A 
ENDBRANCH  24  25
ENDBRANCH  16  20
BRANCH  12  11
ATOM     11  O   UNL     1      -2.212   2.893  24.139  0.00  0.00    -0.432 OA
BRANCH  11   9
ATOM      8  N   UNL     1      -3.281   2.597  25.040  0.00  0.00    -0.142 NA
ATOM      9  C   UNL     1      -3.012   2.742  24.274  0.00  0.00    +0.425 C 
ATOM     10  O   UNL     1      -3.543   2.735  23.642  0.00  0.00    -0.224 OA
BRANCH   8   7
ATOM      4  C   UNL     1      -5.679   2.142  25.447  0.00  0.00    +0.035 A 
ATOM      5  C   UNL     1      -5.161   1.518  25.294  0.00  0.00    +0.004 A 
ATOM      6  C   UNL     1      -4.362   1.670  25.159  0.00  0.00    +0.017 A 
ATOM      7  C   UNL     1      -4.080   2.445  25.176  0.00  0.00    +0.077 A 
ATOM     31  C   UNL     1      -4.598   3.068  25.328  0.00  0.00    +0.017 A 
ATOM     32  C   UNL     1      -5.398   2.917  25.464  0.00  0.00    +0.004 A 
BRANCH   4   2
ATOM      1  C   UNL     1      -6.758   1.910  26.355  0.00  0.00    +0.077 C 
ATOM      2  C   UNL     1      -6.479   1.989  25.582  0.00  0.00    +0.173 C 
ATOM      3  O   UNL     1      -6.999   1.917  24.946  0.00  0.00    -0.291 OA
ENDBRANCH   4   2
ENDBRANCH   8   7
ENDBRANCH  11   9
ENDBRANCH  12  11
TORSDOF 6
ENDMDL
MODEL 7
REMARK VINA RESULT:      -8.8      2.355      3.343
REMARK  Name = 
REMARK  6 active torsions:
REMARK  status: ('A' for Active; 'I' for Inactive)
REMARK    1  A    between atoms: C_2  and  C_4
REMARK    2  A    between atoms: C_7  and  N_8
REMARK    3  A    between atoms: C_9  and  O_11
REMARK    4  A    between atoms: O_11  and  C_12
REMARK    5  A    between atoms: C_16  and  N_20
REMARK    6  A    between atoms: C_24  and  C_25
REMARK                            x       y       z     vdW  Elec       q    Type
REMARK                         _______ _______ _______ _____ _____    ______ ____
ROOT
ATOM     12  C   UNL     1      -4.726   0.648  24.836  0.00  0.00    +0.229 C 
ATOM     13  C   UNL     1      -5.116   0.682  25.561  0.00  0.00    +0.188 C 
ATOM     14  O   UNL     1      -5.256   1.475  25.738  0.00  0.00    -0.348 OA
ATOM     15  C   UNL     1      -4.953   1.931  25.122  0.00  0.00    +0.171 C 
ATOM     16  C   UNL     1      -4.851   2.703  24.850  0.00  0.00    +0.167 C 
ATOM     17  C   UNL     1      -4.461   2.669  24.124  0.00  0.00    +0.169 C 
ATOM     18  O   UNL     1      -4.321   1.876  23.948  0.00  0.00    -0.348 OA
ATOM     19  C   UNL     1      -4.625   1.420  24.564  0.00  0.00    +0.187 C 
ENDROOT
BRANCH  16  20
ATOM     20  N   UNL     1      -5.097   3.390  25.236  0.00  0.00    -0.210 N 
ATOM     21  N   UNL     1      -5.879   3.613  25.378  0.00  0.00    -0.043 NA
ATOM     22  N   UNL     1      -5.869   4.334  25.778  0.00  0.00    -0.023 NA
ATOM     23  N   UNL     1      -5.083   4.557  25.884  0.00  0.00    -0.108 NA
ATOM     24  C   UNL     1      -4.605   3.973  25.549  0.00  0.00    +0.184 A 
BRANCH  24  25
ATOM     25  C   UNL     1      -3.780   3.973  25.531  0.00  0.00    +0.037 A 
ATOM     26  C   UNL     1      -3.382   4.222  24.852  0.00  0.00    +0.003 A 
ATOM     27  C   UNL     1      -2.558   4.222  24.834  0.00  0.00    +0.000 A 
ATOM     28  C   UNL     1      -2.130   3.972  25.495  0.00  0.00    +0.000 A 
ATOM     29  C   UNL     1      -2.529   3.723  26.173  0.00  0.00    +0.000 A 
ATOM     30  C   UNL     1      -3.353   3.724  26.191  0.00  0.00    +0.003 A 
ENDBRANCH  24  25
ENDBRANCH  16  20
BRANCH  12  11
ATOM     11  O   UNL     1      -4.479  -0.039  24.449  0.00  0.00    -0.432 OA
BRANCH  11   9
ATOM      8  N   UNL     1      -3.183  -0.581  24.190  0.00  0.00    -0.142 NA
ATOM      9  C   UNL     1      -3.808  -0.441  24.709  0.00  0.00    +0.425 C 
ATOM     10  O   UNL     1      -3.761  -0.703  25.491  0.00  0.00    -0.224 OA
BRANCH   8   7
ATOM      4  C   UNL     1      -1.167  -1.786  24.971  0.00  0.00    +0.035 A 
ATOM      5  C   UNL     1      -1.175  -0.961  24.958  0.00  0.00    +0.004 A 
ATOM      6  C   UNL     1      -1.848  -0.560  24.697  0.00  0.00    +0.017 A 
ATOM      7  C   UNL     1      -2.511  -0.983  24.450  0.00  0.00    +0.077 A 
ATOM     31  C   UNL     1      -2.502  -1.807  24.463  0.00  0.00    +0.017 A 
ATOM     32  C   UNL     1      -1.831  -2.209  24.723  0.00  0.00    +0.004 A 
BRANCH   4   2
ATOM      1  C   UNL     1      -0.346  -2.955  24.969  0.00  0.00    +0.077 C 
ATOM      2  C   UNL     1      -0.495  -2.187  25.231  0.00  0.00    +0.173 C 
ATOM      3  O   UNL     1       0.028  -1.821  25.754  0.00  0.00    -0.291 OA
ENDBRANCH   4   2
ENDBRANCH   8   7
ENDBRANCH  11   9
ENDBRANCH  12  11
TORSDOF 6
ENDMDL
MODEL 8
REMARK VINA RESULT:      -8.8      3.159      4.973
REMARK  Name = 
REMARK  6 active torsions:
REMARK  status: ('A' for Active; 'I' for Inactive)
REMARK    1  A    between atoms: C_2  and  C_4
REMARK    2  A    between atoms: C_7  and  N_8
REMARK    3  A    between atoms: C_9  and  O_11
REMARK    4  A    between atoms: O_11  and  C_12
REMARK    5  A    between atoms: C_16  and  N_20
REMARK    6  A    between atoms: C_24  and  C_25
REMARK                            x       y       z     vdW  Elec       q    Type
REMARK                         _______ _______ _______ _____ _____    ______ ____
ROOT
ATOM     12  C   UNL     1      -0.008   0.814  23.603  0.00  0.00    +0.229 C 
ATOM     13  C   UNL     1       0.163   1.033  24.379  0.00  0.00    +0.188 C 
ATOM     14  O   UNL     1      -0.517   1.368  24.704  0.00  0.00    -0.348 OA
ATOM     15  C   UNL     1      -1.108   1.355  24.130  0.00  0.00    +0.171 C 
ATOM     16  C   UNL     1      -1.894   1.554  23.975  0.00  0.00    +0.167 C 
ATOM     17  C   UNL     1      -2.065   1.334  23.199  0.00  0.00    +0.169 C 
ATOM     18  O   UNL     1      -1.385   1.000  22.873  0.00  0.00    -0.348 OA
ATOM     19  C   UNL     1      -0.794   1.013  23.449  0.00  0.00    +0.187 C 
ENDROOT
BRANCH  16  20
ATOM     20  N   UNL     1      -2.417   1.909  24.505  0.00  0.00    -0.210 N 
ATOM     21  N   UNL     1      -2.370   2.684  24.788  0.00  0.00    -0.043 NA
ATOM     22  N   UNL     1      -3.003   2.806  25.302  0.00  0.00    -0.023 NA
ATOM     23  N   UNL     1      -3.441   2.108  25.338  0.00  0.00    -0.108 NA
ATOM     24  C   UNL     1      -3.079   1.554  24.845  0.00  0.00    +0.184 A 
BRANCH  24  25
ATOM     25  C   UNL     1      -3.335   0.780  24.715  0.00  0.00    +0.037 A 
ATOM     26  C   UNL     1      -3.804   0.605  24.058  0.00  0.00    +0.003 A 
ATOM     27  C   UNL     1      -4.059  -0.168  23.929  0.00  0.00    +0.000 A 
ATOM     28  C   UNL     1      -3.846  -0.767  24.456  0.00  0.00    +0.000 A 
ATOM     29  C   UNL     1      -3.378  -0.591  25.112  0.00  0.00    +0.000 A 
ATOM     30  C   UNL     1      -3.123   0.182  25.241  0.00  0.00    +0.003 A 
ENDBRANCH  24  25
ENDBRANCH  16  20
BRANCH  12  11
ATOM     11  O   UNL     1       0.515   0.458  23.073  0.00  0.00    -0.432 OA
BRANCH  11   9
ATOM      8  N   UNL     1       1.848   0.087  22.715  0.00  0.00    -0.142 NA
ATOM      9  C   UNL     1       1.328   0.498  23.206  0.00  0.00    +0.425 C 
ATOM     10  O   UNL     1       1.621   0.951  23.831  0.00  0.00    -0.224 OA
BRANCH   8   7
ATOM      4  C   UNL     1       4.287   0.206  23.115  0.00  0.00    +0.035 A 
ATOM      5  C   UNL     1       3.862  -0.459  23.356  0.00  0.00    +0.004 A 
ATOM      6  C   UNL     1       3.048  -0.498  23.222  0.00  0.00    +0.017 A 
ATOM      7  C   UNL     1       2.661   0.127  22.848  0.00  0.00    +0.077 A 
ATOM     31  C   UNL     1       3.086   0.791  22.608  0.00  0.00    +0.017 A 
ATOM     32  C   UNL     1       3.900   0.831  22.741  0.00  0.00    +0.004 A 
BRANCH   4   2
ATOM      1  C   UNL     1       5.386   0.466  23.991  0.00  0.00    +0.077 C 
ATOM      2  C   UNL     1       5.100   0.245  23.249  0.00  0.00    +0.173 C 
ATOM      3  O   UNL     1       5.628   0.063  22.641  0.00  0.00    -0.291 OA
ENDBRANCH   4   2
ENDBRANCH   8   7
ENDBRANCH  11   9
ENDBRANCH  12  11
TORSDOF 6
ENDMDL
