MODEL 1
REMARK VINA RESULT:     -12.7      0.000      0.000
REMARK  Name = 
REMARK  4 active torsions:
REMARK  status: ('A' for Active; 'I' for Inactive)
REMARK    1  A    between atoms: C_2  and  C_5
REMARK    2  A    between atoms: C_12  and  C_14
REMARK    3  A    between atoms: N_17  and  C_18
REMARK    4  A    between atoms: C_18  and  C_19
REMARK                            x       y       z     vdW  Elec       q    Type
REMARK                         _______ _______ _______ _____ _____    ______ ____
ROOT
ATOM      5  C   UNL     1      -3.678  -2.181  24.497  0.00  0.00    +0.073 A 
ATOM      6  C   UNL     1      -3.977  -1.528  24.093  0.00  0.00    +0.025 A 
ATOM      7  C   UNL     1      -4.042  -0.799  24.474  0.00  0.00    +0.100 A 
ATOM      8  C   UNL     1      -3.807  -0.724  25.262  0.00  0.00    +0.100 A 
ATOM      9  C   UNL     1      -3.507  -1.378  25.667  0.00  0.00    +0.021 A 
ATOM     10  C   UNL     1      -3.442  -2.106  25.284  0.00  0.00    +0.005 A 
ATOM     11  N   UNL     1      -3.934   0.057  25.492  0.00  0.00    -0.229 NA
ATOM     12  C   UNL     1      -4.248   0.465  24.848  0.00  0.00    +0.140 A 
ATOM     13  N   UNL     1      -4.314  -0.064  24.220  0.00  0.00    -0.229 NA
ENDROOT
BRANCH  12  14
ATOM     14  C   UNL     1      -4.458   1.263  24.835  0.00  0.00    +0.076 C 
ATOM     15  C   UNL     1      -5.200   1.572  25.021  0.00  0.00    +0.026 C 
ATOM     16  C   UNL     1      -5.164   2.392  24.935  0.00  0.00    +0.073 C 
ATOM     17  N   UNL     1      -4.400   2.590  24.695  0.00  0.00    -0.268 NA
ATOM     25  C   UNL     1      -3.964   1.892  24.634  0.00  0.00    +0.080 C 
BRANCH  17  18
ATOM     18  C   UNL     1      -4.121   3.351  24.544  0.00  0.00    +0.101 C 
BRANCH  18  19
ATOM     19  C   UNL     1      -3.511   3.666  25.003  0.00  0.00    +0.013 A 
ATOM     20  C   UNL     1      -2.750   3.730  24.689  0.00  0.00    +0.000 A 
ATOM     21  C   UNL     1      -2.141   4.045  25.148  0.00  0.00    +0.020 A 
ATOM     22  C   UNL     1      -2.291   4.295  25.919  0.00  0.00    +0.099 A 
ATOM     23  N   UNL     1      -3.052   4.231  26.233  0.00  0.00    -0.243 NA
ATOM     24  C   UNL     1      -3.662   3.916  25.774  0.00  0.00    +0.096 A 
ENDBRANCH  18  19
ENDBRANCH  17  18
ENDBRANCH  12  14
BRANCH   5   2
ATOM      1  F   UNL     1      -3.549  -3.637  23.733  0.00  0.00    -0.166 F 
ATOM      2  C   UNL     1      -3.613  -2.908  24.115  0.00  0.00    +0.419 C 
ATOM      3  F   UNL     1      -2.793  -2.879  24.196  0.00  0.00    -0.166 F 
ATOM      4  F   UNL     1      -4.434  -2.939  24.034  0.00  0.00    -0.166 F 
ENDBRANCH   5   2
TORSDOF 4
ENDMDL
MODEL 2
REMARK VINA RESULT:     -12.7      3.072      5.598
REMARK  Name = 
REMARK  4 active torsions:
REMARK  status: ('A' for Active; 'I' for Inactive)
REMARK    1  A    between atoms: C_2  and  C_5
REMARK    2  A    between atoms: C_12  and  C_14
REMARK    3  A    between atoms: N_17  and  C_18
REMARK    4  A    between atoms: C_18  and  C_19
REMARK                            x       y       z     vdW  Elec       q    Type
REMARK                         _______ _______ _______ _____ _____    ______ ____
ROOT
ATOM      5  C   UNL     1      -1.618   4.434  25.152  0.00  0.00    +0.073 A 
ATOM      6  C   UNL     1      -1.595   3.778  24.653  0.00  0.00    +0.025 A 
ATOM      7  C   UNL     1      -2.172   3.191  24.716  0.00  0.00    +0.100 A 
ATOM      8  C   UNL     1      -2.771   3.261  25.279  0.00  0.00    +0.100 A 
ATOM      9  C   UNL     1      -2.793   3.918  25.779  0.00  0.00    +0.021 A 
ATOM     10  C   UNL     1      -2.217   4.504  25.715  0.00  0.00    +0.005 A 
ATOM     11  N   UNL     1      -3.260   2.600  25.214  0.00  0.00    -0.229 NA
ATOM     12  C   UNL     1      -2.964   2.122  24.611  0.00  0.00    +0.140 A 
ATOM     13  N   UNL     1      -2.291   2.487  24.304  0.00  0.00    -0.229 NA
ENDROOT
BRANCH  12  14
ATOM     14  C   UNL     1      -3.284   1.404  24.360  0.00  0.00    +0.076 C 
ATOM     15  C   UNL     1      -3.205   1.075  23.608  0.00  0.00    +0.026 C 
ATOM     16  C   UNL     1      -3.611   0.357  23.599  0.00  0.00    +0.073 C 
ATOM     17  N   UNL     1      -3.942   0.242  24.346  0.00  0.00    -0.268 NA
ATOM     25  C   UNL     1      -3.739   0.890  24.816  0.00  0.00    +0.080 C 
BRANCH  17  18
ATOM     18  C   UNL     1      -4.395  -0.405  24.582  0.00  0.00    +0.101 C 
BRANCH  18  19
ATOM     19  C   UNL     1      -4.039  -1.143  24.683  0.00  0.00    +0.013 A 
ATOM     20  C   UNL     1      -4.095  -1.713  24.088  0.00  0.00    +0.000 A 
ATOM     21  C   UNL     1      -3.740  -2.450  24.189  0.00  0.00    +0.020 A 
ATOM     22  C   UNL     1      -3.329  -2.619  24.884  0.00  0.00    +0.099 A 
ATOM     23  N   UNL     1      -3.273  -2.050  25.479  0.00  0.00    -0.243 NA
ATOM     24  C   UNL     1      -3.629  -1.311  25.378  0.00  0.00    +0.096 A 
ENDBRANCH  18  19
ENDBRANCH  17  18
ENDBRANCH  12  14
BRANCH   5   2
ATOM      1  F   UNL     1      -0.464   5.607  25.025  0.00  0.00    -0.166 F 
ATOM      2  C   UNL     1      -1.041   5.020  25.088  0.00  0.00    +0.419 C 
ATOM      3  F   UNL     1      -1.611   5.551  24.816  0.00  0.00    -0.166 F 
ATOM      4  F   UNL     1      -0.471   4.490  25.361  0.00  0.00    -0.166 F 
ENDBRANCH   5   2
TORSDOF 4
ENDMDL
MODEL 3
REMARK VINA RESULT:     -12.4      1.667      2.217
REMARK  Name = 
REMARK  4 active torsions:
REMARK  status: ('A' for Active; 'I' for Inactive)
REMARK    1  A    between atoms: C_2  and  C_5
REMARK    2  A    between atoms: C_12  and  C_14
REMARK    3  A    between atoms: N_17  and  C_18
REMARK    4  A    between atoms: C_18  and  C_19
REMARK                            x       y       z     vdW  Elec       q    Type
REMARK                         _______ _______ _______ _____ _____    ______ ____
ROOT
ATOM      5  C   UNL     1      -3.511  -1.937  24.563  0.00  0.00    +0.073 A 
ATOM      6  C   UNL     1      -2.778  -1.608  24.748  0.00  0.00    +0.025 A 
ATOM      7  C   UNL     1      -2.641  -0.805  24.617  0.00  0.00    +0.100 A 
ATOM      8  C   UNL     1      -3.238  -0.331  24.302  0.00  0.00    +0.100 A 
ATOM      9  C   UNL     1      -3.973  -0.660  24.117  0.00  0.00    +0.021 A 
ATOM     10  C   UNL     1      -4.108  -1.463  24.248  0.00  0.00    +0.005 A 
ATOM     11  N   UNL     1      -2.946   0.437  24.234  0.00  0.00    -0.229 NA
ATOM     12  C   UNL     1      -2.168   0.438  24.507  0.00  0.00    +0.140 A 
ATOM     13  N   UNL     1      -1.980  -0.329  24.744  0.00  0.00    -0.229 NA
ENDROOT
BRANCH  12  14
ATOM     14  C   UNL     1      -1.665   1.092  24.539  0.00  0.00    +0.076 C 
ATOM     15  C   UNL     1      -1.178   1.358  23.929  0.00  0.00    +0.026 C 
ATOM     16  C   UNL     1      -0.773   2.025  24.198  0.00  0.00    +0.073 C 
ATOM     17  N   UNL     1      -1.011   2.171  24.974  0.00  0.00    -0.268 NA
ATOM     25  C   UNL     1      -1.562   1.594  25.185  0.00  0.00    +0.080 C 
BRANCH  17  18
ATOM     18  C   UNL     1      -0.744   2.785  25.456  0.00  0.00    +0.101 C 
BRANCH  18  19
ATOM     19  C   UNL     1      -1.081   3.536  25.392  0.00  0.00    +0.013 A 
ATOM     20  C   UNL     1      -0.673   4.139  25.004  0.00  0.00    +0.000 A 
ATOM     21  C   UNL     1      -1.010   4.889  24.941  0.00  0.00    +0.020 A 
ATOM     22  C   UNL     1      -1.754   5.037  25.265  0.00  0.00    +0.099 A 
ATOM     23  N   UNL     1      -2.161   4.434  25.654  0.00  0.00    -0.243 NA
ATOM     24  C   UNL     1      -1.825   3.683  25.718  0.00  0.00    +0.096 A 
ENDBRANCH  18  19
ENDBRANCH  17  18
ENDBRANCH  12  14
BRANCH   5   2
ATOM      1  F   UNL     1      -3.784  -3.543  24.824  0.00  0.00    -0.166 F 
ATOM      2  C   UNL     1      -3.648  -2.740  24.693  0.00  0.00    +0.419 C 
ATOM      3  F   UNL     1      -3.626  -2.876  23.880  0.00  0.00    -0.166 F 
ATOM      4  F   UNL     1      -3.670  -2.604  25.507  0.00  0.00    -0.166 F 
ENDBRANCH   5   2
TORSDOF 4
ENDMDL
