MODEL 1
REMARK VINA RESULT:      -9.4      0.000      0.000
REMARK  Name = 
REMARK  7 active torsions:
REMARK  status: ('A' for Active; 'I' for Inactive)
REMARK    1  A    between atoms: C_2  and  C_4
REMARK    2  A    between atoms: C_6  and  C_7
REMARK    3  A    between atoms: C_7  and  C_8
REMARK    4  A    between atoms: C_20  and  C_21
REMARK    5  A    between atoms: C_21  and  N_22
REMARK    6  A    between atoms: C_23  and  C_25
REMARK    7  A    between atoms: C_28  and  C_31
REMARK                            x       y       z     vdW  Elec       q    Type
REMARK                         _______ _______ _______ _____ _____    ______ ____
ROOT
ATOM      4  C   UNL     1      -1.287  -0.195  24.558  0.00  0.00    +0.006 C 
ATOM      5  C   UNL     1      -0.501  -0.085  24.333  0.00  0.00    +0.005 C 
ATOM      6  C   UNL     1      -0.273   0.613  23.959  0.00  0.00    +0.027 C 
ATOM     17  C   UNL     1      -0.830   1.202  23.809  0.00  0.00    -0.048 C 
ATOM     18  C   UNL     1      -0.601   1.901  23.434  0.00  0.00    +0.026 C 
ATOM     19  C   UNL     1      -1.617   1.093  24.034  0.00  0.00    -0.033 C 
ATOM     20  C   UNL     1      -1.845   0.395  24.408  0.00  0.00    +0.043 C 
ENDROOT
BRANCH   4   2
ATOM      1  C   UNL     1      -1.808  -1.523  24.486  0.00  0.00    +0.000 C 
ATOM      2  C   UNL     1      -1.516  -0.894  24.932  0.00  0.00    +0.000 C 
ATOM      3  C   UNL     1      -1.452  -0.962  25.751  0.00  0.00    +0.000 C 
ENDBRANCH   4   2
BRANCH   6   7
ATOM      7  C   UNL     1       0.514   0.722  23.734  0.00  0.00    +0.089 C 
BRANCH   7   8
ATOM      8  C   UNL     1       0.848   0.241  23.153  0.00  0.00    +0.226 C 
ATOM      9  O   UNL     1       0.384  -0.320  22.766  0.00  0.00    -0.275 OA
ATOM     10  N   UNL     1       1.646   0.320  22.961  0.00  0.00    -0.277 N 
ATOM     11  C   UNL     1       2.111   0.881  23.348  0.00  0.00    +0.111 C 
ATOM     12  C   UNL     1       2.908   0.961  23.156  0.00  0.00    +0.094 C 
ATOM     13  N   UNL     1       3.243   0.479  22.575  0.00  0.00    -0.269 NA
ATOM     14  C   UNL     1       4.041   0.559  22.382  0.00  0.00    +0.090 C 
ATOM     15  C   UNL     1       2.779  -0.082  22.187  0.00  0.00    +0.094 C 
ATOM     16  C   UNL     1       1.980  -0.162  22.380  0.00  0.00    +0.111 C 
ENDBRANCH   7   8
ENDBRANCH   6   7
BRANCH  20  21
ATOM     21  C   UNL     1      -2.631   0.285  24.632  0.00  0.00    +0.120 C 
BRANCH  21  22
ATOM     22  N   UNL     1      -3.098   0.935  24.833  0.00  0.00    -0.201 NA
ATOM     23  C   UNL     1      -3.919   0.886  24.775  0.00  0.00    +0.265 C 
ATOM     24  O   UNL     1      -4.274   0.187  24.516  0.00  0.00    -0.268 OA
BRANCH  23  25
ATOM     25  C   UNL     1      -4.387   1.537  24.975  0.00  0.00    +0.055 A 
ATOM     26  C   UNL     1      -5.106   1.423  25.363  0.00  0.00    +0.005 A 
ATOM     27  C   UNL     1      -5.573   2.073  25.563  0.00  0.00    +0.010 A 
ATOM     28  C   UNL     1      -5.321   2.836  25.376  0.00  0.00    +0.068 A 
ATOM     29  C   UNL     1      -4.601   2.949  24.989  0.00  0.00    +0.010 A 
ATOM     30  C   UNL     1      -4.134   2.299  24.788  0.00  0.00    +0.005 A 
BRANCH  28  31
ATOM     31  C   UNL     1      -5.787   3.485  25.576  0.00  0.00    +0.100 C 
ATOM     32  N   UNL     1      -6.255   4.136  25.777  0.00  0.00    -0.191 NA
ENDBRANCH  28  31
ENDBRANCH  23  25
ENDBRANCH  21  22
ENDBRANCH  20  21
TORSDOF 7
ENDMDL
MODEL 2
REMARK VINA RESULT:      -8.4      0.930      6.331
REMARK  Name = 
REMARK  7 active torsions:
REMARK  status: ('A' for Active; 'I' for Inactive)
REMARK    1  A    between atoms: C_2  and  C_4
REMARK    2  A    between atoms: C_6  and  C_7
REMARK    3  A    between atoms: C_7  and  C_8
REMARK    4  A    between atoms: C_20  and  C_21
REMARK    5  A    between atoms: C_21  and  N_22
REMARK    6  A    between atoms: C_23  and  C_25
REMARK    7  A    between atoms: C_28  and  C_31
REMARK                            x       y       z     vdW  Elec       q    Type
REMARK                         _______ _______ _______ _____ _____    ______ ____
ROOT
ATOM      4  C   UNL     1      -1.892   0.561  24.677  0.00  0.00    +0.006 C 
ATOM      5  C   UNL     1      -2.519   1.095  24.717  0.00  0.00    +0.005 C 
ATOM      6  C   UNL     1      -2.638   1.638  24.109  0.00  0.00    +0.027 C 
ATOM     17  C   UNL     1      -2.130   1.648  23.459  0.00  0.00    -0.048 C 
ATOM     18  C   UNL     1      -2.249   2.192  22.850  0.00  0.00    +0.026 C 
ATOM     19  C   UNL     1      -1.502   1.114  23.419  0.00  0.00    -0.033 C 
ATOM     20  C   UNL     1      -1.383   0.571  24.027  0.00  0.00    +0.043 C 
ENDROOT
BRANCH   4   2
ATOM      1  C   UNL     1      -2.126  -0.728  25.248  0.00  0.00    +0.000 C 
ATOM      2  C   UNL     1      -1.773   0.017  25.286  0.00  0.00    +0.000 C 
ATOM      3  C   UNL     1      -1.302   0.219  25.932  0.00  0.00    +0.000 C 
ENDBRANCH   4   2
BRANCH   6   7
ATOM      7  C   UNL     1      -3.266   2.173  24.150  0.00  0.00    +0.089 C 
BRANCH   7   8
ATOM      8  C   UNL     1      -4.022   1.908  24.346  0.00  0.00    +0.226 C 
ATOM      9  O   UNL     1      -4.253   1.141  24.150  0.00  0.00    -0.275 OA
ATOM     10  N   UNL     1      -4.545   2.409  24.739  0.00  0.00    -0.277 N 
ATOM     11  C   UNL     1      -4.314   3.176  24.936  0.00  0.00    +0.111 C 
ATOM     12  C   UNL     1      -4.837   3.677  25.329  0.00  0.00    +0.094 C 
ATOM     13  N   UNL     1      -5.594   3.412  25.526  0.00  0.00    -0.269 NA
ATOM     14  C   UNL     1      -6.117   3.914  25.920  0.00  0.00    +0.090 C 
ATOM     15  C   UNL     1      -5.826   2.645  25.330  0.00  0.00    +0.094 C 
ATOM     16  C   UNL     1      -5.302   2.143  24.936  0.00  0.00    +0.111 C 
ENDBRANCH   7   8
ENDBRANCH   6   7
BRANCH  20  21
ATOM     21  C   UNL     1      -0.756   0.036  23.987  0.00  0.00    +0.120 C 
BRANCH  21  22
ATOM     22  N   UNL     1      -0.014   0.289  23.730  0.00  0.00    -0.201 NA
ATOM     23  C   UNL     1       0.533  -0.260  23.449  0.00  0.00    +0.265 C 
ATOM     24  O   UNL     1       0.340  -1.061  23.424  0.00  0.00    -0.268 OA
BRANCH  23  25
ATOM     25  C   UNL     1       1.276  -0.007  23.191  0.00  0.00    +0.055 A 
ATOM     26  C   UNL     1       1.626  -0.360  22.533  0.00  0.00    +0.005 A 
ATOM     27  C   UNL     1       2.369  -0.107  22.276  0.00  0.00    +0.010 A 
ATOM     28  C   UNL     1       2.761   0.499  22.677  0.00  0.00    +0.068 A 
ATOM     29  C   UNL     1       2.409   0.851  23.335  0.00  0.00    +0.010 A 
ATOM     30  C   UNL     1       1.667   0.598  23.592  0.00  0.00    +0.005 A 
BRANCH  28  31
ATOM     31  C   UNL     1       3.502   0.751  22.421  0.00  0.00    +0.100 C 
ATOM     32  N   UNL     1       4.245   1.004  22.163  0.00  0.00    -0.191 NA
ENDBRANCH  28  31
ENDBRANCH  23  25
ENDBRANCH  21  22
ENDBRANCH  20  21
TORSDOF 7
ENDMDL
MODEL 3
REMARK VINA RESULT:      -7.7      1.495      1.998
REMARK  Name = 
REMARK  7 active torsions:
REMARK  status: ('A' for Active; 'I' for Inactive)
REMARK    1  A    between atoms: C_2  and  C_4
REMARK    2  A    between atoms: C_6  and  C_7
REMARK    3  A    between atoms: C_7  and  C_8
REMARK    4  A    between atoms: C_20  and  C_21
REMARK    5  A    between atoms: C_21  and  N_22
REMARK    6  A    between atoms: C_23  and  C_25
REMARK    7  A    between atoms: C_28  and  C_31
REMARK                            x       y       z     vdW  Elec       q    Type
REMARK                         _______ _______ _______ _____ _____    ______ ____
ROOT
ATOM      4  C   UNL     1      -1.887   1.869  23.254  0.00  0.00    +0.006 C 
ATOM      5  C   UNL     1      -1.122   1.568  23.317  0.00  0.00    +0.005 C 
ATOM      6  C   UNL     1      -0.726   1.595  24.039  0.00  0.00    +0.027 C 
ATOM     17  C   UNL     1      -1.094   1.924  24.700  0.00  0.00    -0.048 C 
ATOM     18  C   UNL     1      -0.698   1.952  25.423  0.00  0.00    +0.026 C 
ATOM     19  C   UNL     1      -1.860   2.226  24.637  0.00  0.00    -0.033 C 
ATOM     20  C   UNL     1      -2.256   2.198  23.915  0.00  0.00    +0.043 C 
ENDROOT
BRANCH   4   2
ATOM      1  C   UNL     1      -2.240   2.482  22.013  0.00  0.00    +0.000 C 
ATOM      2  C   UNL     1      -2.283   1.841  22.531  0.00  0.00    +0.000 C 
ATOM      3  C   UNL     1      -2.721   1.173  22.326  0.00  0.00    +0.000 C 
ENDBRANCH   4   2
BRANCH   6   7
ATOM      7  C   UNL     1       0.040   1.293  24.102  0.00  0.00    +0.089 C 
BRANCH   7   8
ATOM      8  C   UNL     1       0.240   0.591  23.719  0.00  0.00    +0.226 C 
ATOM      9  O   UNL     1      -0.311  -0.021  23.666  0.00  0.00    -0.275 OA
ATOM     10  N   UNL     1       0.990   0.501  23.388  0.00  0.00    -0.277 N 
ATOM     11  C   UNL     1       1.541   1.112  23.441  0.00  0.00    +0.111 C 
ATOM     12  C   UNL     1       2.291   1.022  23.110  0.00  0.00    +0.094 C 
ATOM     13  N   UNL     1       2.491   0.319  22.726  0.00  0.00    -0.269 NA
ATOM     14  C   UNL     1       3.241   0.229  22.395  0.00  0.00    +0.090 C 
ATOM     15  C   UNL     1       1.940  -0.293  22.673  0.00  0.00    +0.094 C 
ATOM     16  C   UNL     1       1.189  -0.203  23.004  0.00  0.00    +0.111 C 
ENDBRANCH   7   8
ENDBRANCH   6   7
BRANCH  20  21
ATOM     21  C   UNL     1      -3.021   2.500  23.851  0.00  0.00    +0.120 C 
BRANCH  21  22
ATOM     22  N   UNL     1      -3.596   2.286  24.403  0.00  0.00    -0.201 NA
ATOM     23  C   UNL     1      -4.289   2.729  24.468  0.00  0.00    +0.265 C 
ATOM     24  O   UNL     1      -4.407   3.385  23.983  0.00  0.00    -0.268 OA
BRANCH  23  25
ATOM     25  C   UNL     1      -4.864   2.515  25.021  0.00  0.00    +0.055 A 
ATOM     26  C   UNL     1      -5.252   1.790  24.952  0.00  0.00    +0.005 A 
ATOM     27  C   UNL     1      -5.827   1.577  25.504  0.00  0.00    +0.010 A 
ATOM     28  C   UNL     1      -6.014   2.089  26.124  0.00  0.00    +0.068 A 
ATOM     29  C   UNL     1      -5.626   2.813  26.192  0.00  0.00    +0.010 A 
ATOM     30  C   UNL     1      -5.051   3.026  25.640  0.00  0.00    +0.005 A 
BRANCH  28  31
ATOM     31  C   UNL     1      -6.589   1.876  26.676  0.00  0.00    +0.100 C 
ATOM     32  N   UNL     1      -7.165   1.662  27.228  0.00  0.00    -0.191 NA
ENDBRANCH  28  31
ENDBRANCH  23  25
ENDBRANCH  21  22
ENDBRANCH  20  21
TORSDOF 7
ENDMDL
MODEL 4
REMARK VINA RESULT:      -6.0     14.661     15.975
REMARK  Name = 
REMARK  7 active torsions:
REMARK  status: ('A' for Active; 'I' for Inactive)
REMARK    1  A    between atoms: C_2  and  C_4
REMARK    2  A    between atoms: C_6  and  C_7
REMARK    3  A    between atoms: C_7  and  C_8
REMARK    4  A    between atoms: C_20  and  C_21
REMARK    5  A    between atoms: C_21  and  N_22
REMARK    6  A    between atoms: C_23  and  C_25
REMARK    7  A    between atoms: C_28  and  C_31
REMARK                            x       y       z     vdW  Elec       q    Type
REMARK                         _______ _______ _______ _____ _____    ______ ____
ROOT
ATOM      4  C   UNL     1      -7.684 -10.015  13.654  0.00  0.00    +0.006 C 
ATOM      5  C   UNL     1      -7.193  -9.995  12.991  0.00  0.00    +0.005 C 
ATOM      6  C   UNL     1      -6.375 -10.002  13.083  0.00  0.00    +0.027 C 
ATOM     17  C   UNL     1      -6.044 -10.029  13.838  0.00  0.00    -0.048 C 
ATOM     18  C   UNL     1      -5.224 -10.036  13.930  0.00  0.00    +0.026 C 
ATOM     19  C   UNL     1      -6.534 -10.049  14.502  0.00  0.00    -0.033 C 
ATOM     20  C   UNL     1      -7.353 -10.042  14.410  0.00  0.00    +0.043 C 
ENDROOT
BRANCH   4   2
ATOM      1  C   UNL     1      -8.909 -10.713  13.423  0.00  0.00    +0.000 C 
ATOM      2  C   UNL     1      -8.503 -10.007  13.562  0.00  0.00    +0.000 C 
ATOM      3  C   UNL     1      -8.917  -9.296  13.610  0.00  0.00    +0.000 C 
ENDBRANCH   4   2
BRANCH   6   7
ATOM      7  C   UNL     1      -5.884  -9.982  12.419  0.00  0.00    +0.089 C 
BRANCH   7   8
ATOM      8  C   UNL     1      -5.871  -9.314  11.935  0.00  0.00    +0.226 C 
ATOM      9  O   UNL     1      -6.174  -8.598  12.213  0.00  0.00    -0.275 OA
ATOM     10  N   UNL     1      -5.556  -9.361  11.175  0.00  0.00    -0.277 N 
ATOM     11  C   UNL     1      -5.253 -10.076  10.897  0.00  0.00    +0.111 C 
ATOM     12  C   UNL     1      -4.938 -10.124  10.137  0.00  0.00    +0.094 C 
ATOM     13  N   UNL     1      -4.925  -9.455   9.653  0.00  0.00    -0.269 NA
ATOM     14  C   UNL     1      -4.609  -9.503   8.892  0.00  0.00    +0.090 C 
ATOM     15  C   UNL     1      -5.227  -8.740   9.930  0.00  0.00    +0.094 C 
ATOM     16  C   UNL     1      -5.543  -8.692  10.691  0.00  0.00    +0.111 C 
ENDBRANCH   7   8
ENDBRANCH   6   7
BRANCH  20  21
ATOM     21  C   UNL     1      -7.843 -10.062  15.073  0.00  0.00    +0.120 C 
BRANCH  21  22
ATOM     22  N   UNL     1      -7.520 -10.185  15.822  0.00  0.00    -0.201 NA
ATOM     23  C   UNL     1      -7.979 -10.057  16.495  0.00  0.00    +0.265 C 
ATOM     24  O   UNL     1      -8.761  -9.805  16.420  0.00  0.00    -0.268 OA
BRANCH  23  25
ATOM     25  C   UNL     1      -7.655 -10.180  17.245  0.00  0.00    +0.055 A 
ATOM     26  C   UNL     1      -8.049 -10.658  17.790  0.00  0.00    +0.005 A 
ATOM     27  C   UNL     1      -7.726 -10.781  18.539  0.00  0.00    +0.010 A 
ATOM     28  C   UNL     1      -7.009 -10.427  18.743  0.00  0.00    +0.068 A 
ATOM     29  C   UNL     1      -6.616  -9.949  18.197  0.00  0.00    +0.010 A 
ATOM     30  C   UNL     1      -6.939  -9.826  17.448  0.00  0.00    +0.005 A 
BRANCH  28  31
ATOM     31  C   UNL     1      -6.686 -10.550  19.491  0.00  0.00    +0.100 C 
ATOM     32  N   UNL     1      -6.363 -10.673  20.241  0.00  0.00    -0.191 NA
ENDBRANCH  28  31
ENDBRANCH  23  25
ENDBRANCH  21  22
ENDBRANCH  20  21
TORSDOF 7
ENDMDL
MODEL 5
REMARK VINA RESULT:      -6.0     14.174     16.412
REMARK  Name = 
REMARK  7 active torsions:
REMARK  status: ('A' for Active; 'I' for Inactive)
REMARK    1  A    between atoms: C_2  and  C_4
REMARK    2  A    between atoms: C_6  and  C_7
REMARK    3  A    between atoms: C_7  and  C_8
REMARK    4  A    between atoms: C_20  and  C_21
REMARK    5  A    between atoms: C_21  and  N_22
REMARK    6  A    between atoms: C_23  and  C_25
REMARK    7  A    between atoms: C_28  and  C_31
REMARK                            x       y       z     vdW  Elec       q    Type
REMARK                         _______ _______ _______ _____ _____    ______ ____
ROOT
ATOM      4  C   UNL     1      -5.828 -10.251  15.841  0.00  0.00    +0.006 C 
ATOM      5  C   UNL     1      -6.584 -10.228  16.171  0.00  0.00    +0.005 C 
ATOM      6  C   UNL     1      -7.245 -10.345  15.694  0.00  0.00    +0.027 C 
ATOM     17  C   UNL     1      -7.153 -10.485  14.886  0.00  0.00    -0.048 C 
ATOM     18  C   UNL     1      -7.815 -10.602  14.409  0.00  0.00    +0.026 C 
ATOM     19  C   UNL     1      -6.396 -10.509  14.556  0.00  0.00    -0.033 C 
ATOM     20  C   UNL     1      -5.735 -10.392  15.033  0.00  0.00    +0.043 C 
ENDROOT
BRANCH   4   2
ATOM      1  C   UNL     1      -4.838 -10.769  16.732  0.00  0.00    +0.000 C 
ATOM      2  C   UNL     1      -5.165 -10.134  16.319  0.00  0.00    +0.000 C 
ATOM      3  C   UNL     1      -4.831  -9.383  16.383  0.00  0.00    +0.000 C 
ENDBRANCH   4   2
BRANCH   6   7
ATOM      7  C   UNL     1      -8.002 -10.321  16.024  0.00  0.00    +0.089 C 
BRANCH   7   8
ATOM      8  C   UNL     1      -8.257  -9.646  16.423  0.00  0.00    +0.226 C 
ATOM      9  O   UNL     1      -7.897  -8.918  16.274  0.00  0.00    -0.275 OA
ATOM     10  N   UNL     1      -8.871  -9.698  16.971  0.00  0.00    -0.277 N 
ATOM     11  C   UNL     1      -9.231 -10.425  17.120  0.00  0.00    +0.111 C 
ATOM     12  C   UNL     1      -9.845 -10.477  17.667  0.00  0.00    +0.094 C 
ATOM     13  N   UNL     1     -10.100  -9.801  18.067  0.00  0.00    -0.269 NA
ATOM     14  C   UNL     1     -10.715  -9.854  18.615  0.00  0.00    +0.090 C 
ATOM     15  C   UNL     1      -9.741  -9.074  17.918  0.00  0.00    +0.094 C 
ATOM     16  C   UNL     1      -9.126  -9.022  17.370  0.00  0.00    +0.111 C 
ENDBRANCH   7   8
ENDBRANCH   6   7
BRANCH  20  21
ATOM     21  C   UNL     1      -4.979 -10.416  14.704  0.00  0.00    +0.120 C 
BRANCH  21  22
ATOM     22  N   UNL     1      -4.873 -10.264  13.900  0.00  0.00    -0.201 NA
ATOM     23  C   UNL     1      -4.156 -10.446  13.536  0.00  0.00    +0.265 C 
ATOM     24  O   UNL     1      -3.544 -10.781  13.976  0.00  0.00    -0.268 OA
BRANCH  23  25
ATOM     25  C   UNL     1      -4.051 -10.294  12.731  0.00  0.00    +0.055 A 
ATOM     26  C   UNL     1      -3.374 -10.566  12.346  0.00  0.00    +0.005 A 
ATOM     27  C   UNL     1      -3.269 -10.414  11.542  0.00  0.00    +0.010 A 
ATOM     28  C   UNL     1      -3.841  -9.990  11.123  0.00  0.00    +0.068 A 
ATOM     29  C   UNL     1      -4.517  -9.719  11.510  0.00  0.00    +0.010 A 
ATOM     30  C   UNL     1      -4.622  -9.871  12.314  0.00  0.00    +0.005 A 
BRANCH  28  31
ATOM     31  C   UNL     1      -3.736  -9.838  10.320  0.00  0.00    +0.100 C 
ATOM     32  N   UNL     1      -3.630  -9.686   9.515  0.00  0.00    -0.191 NA
ENDBRANCH  28  31
ENDBRANCH  23  25
ENDBRANCH  21  22
ENDBRANCH  20  21
TORSDOF 7
ENDMDL
