MODEL 1
REMARK VINA RESULT:     -12.4      0.000      0.000
REMARK  Name = 
REMARK  3 active torsions:
REMARK  status: ('A' for Active; 'I' for Inactive)
REMARK    1  A    between atoms: C_7  and  C_9
REMARK    2  A    between atoms: N_12  and  C_13
REMARK    3  A    between atoms: C_13  and  C_14
REMARK                            x       y       z     vdW  Elec       q    Type
REMARK                         _______ _______ _______ _____ _____    ______ ____
ROOT
ATOM      9  C   UNL     1      -4.406   1.141  24.808  0.00  0.00    +0.076 C 
ATOM     10  C   UNL     1      -5.113   1.471  25.077  0.00  0.00    +0.026 C 
ATOM     11  C   UNL     1      -5.064   2.290  24.985  0.00  0.00    +0.073 C 
ATOM     12  N   UNL     1      -4.327   2.465  24.659  0.00  0.00    -0.267 NA
ATOM     20  C   UNL     1      -3.921   1.755  24.550  0.00  0.00    +0.080 C 
ENDROOT
BRANCH   9   7
ATOM      1  C   UNL     1      -3.773  -3.053  24.010  0.00  0.00    +0.031 C 
ATOM      2  C   UNL     1      -3.771  -2.324  24.393  0.00  0.00    -0.020 A 
ATOM      3  C   UNL     1      -4.097  -1.663  24.025  0.00  0.00    +0.016 A 
ATOM      4  C   UNL     1      -4.095  -0.932  24.409  0.00  0.00    +0.100 A 
ATOM      5  C   UNL     1      -3.766  -0.864  25.162  0.00  0.00    +0.100 A 
ATOM      6  N   UNL     1      -3.842  -0.079  25.403  0.00  0.00    -0.229 NA
ATOM      7  C   UNL     1      -4.219   0.338  24.799  0.00  0.00    +0.140 A 
ATOM      8  N   UNL     1      -4.375  -0.190  24.185  0.00  0.00    -0.229 NA
ATOM     21  C   UNL     1      -3.438  -1.526  25.531  0.00  0.00    +0.020 A 
ATOM     22  C   UNL     1      -3.441  -2.255  25.147  0.00  0.00    -0.003 A 
ENDBRANCH   9   7
BRANCH  12  13
ATOM     13  C   UNL     1      -4.045   3.218  24.475  0.00  0.00    +0.119 C 
BRANCH  13  14
ATOM     14  C   UNL     1      -3.426   3.546  24.911  0.00  0.00    +0.075 A 
ATOM     15  N   UNL     1      -2.655   3.519  24.619  0.00  0.00    -0.247 NA
ATOM     16  C   UNL     1      -2.037   3.847  25.056  0.00  0.00    +0.098 A 
ATOM     17  C   UNL     1      -2.190   4.202  25.784  0.00  0.00    +0.021 A 
ATOM     18  C   UNL     1      -2.961   4.230  26.077  0.00  0.00    +0.003 A 
ATOM     19  C   UNL     1      -3.580   3.901  25.640  0.00  0.00    +0.016 A 
ENDBRANCH  13  14
ENDBRANCH  12  13
TORSDOF 3
ENDMDL
MODEL 2
REMARK VINA RESULT:     -11.6      0.902      5.015
REMARK  Name = 
REMARK  3 active torsions:
REMARK  status: ('A' for Active; 'I' for Inactive)
REMARK    1  A    between atoms: C_7  and  C_9
REMARK    2  A    between atoms: N_12  and  C_13
REMARK    3  A    between atoms: C_13  and  C_14
REMARK                            x       y       z     vdW  Elec       q    Type
REMARK                         _______ _______ _______ _____ _____    ______ ____
ROOT
ATOM      9  C   UNL     1      -3.256   1.499  24.366  0.00  0.00    +0.076 C 
ATOM     10  C   UNL     1      -3.225   1.166  23.612  0.00  0.00    +0.026 C 
ATOM     11  C   UNL     1      -3.646   0.456  23.628  0.00  0.00    +0.073 C 
ATOM     12  N   UNL     1      -3.937   0.351  24.393  0.00  0.00    -0.267 NA
ATOM     20  C   UNL     1      -3.696   0.995  24.849  0.00  0.00    +0.080 C 
ENDROOT
BRANCH   9   7
ATOM      1  C   UNL     1      -0.809   4.980  25.089  0.00  0.00    +0.031 C 
ATOM      2  C   UNL     1      -1.440   4.451  25.120  0.00  0.00    -0.020 A 
ATOM      3  C   UNL     1      -1.411   3.749  24.690  0.00  0.00    +0.016 A 
ATOM      4  C   UNL     1      -2.043   3.219  24.720  0.00  0.00    +0.100 A 
ATOM      5  C   UNL     1      -2.704   3.392  25.181  0.00  0.00    +0.100 A 
ATOM      6  N   UNL     1      -3.239   2.770  25.105  0.00  0.00    -0.229 NA
ATOM      7  C   UNL     1      -2.909   2.211  24.596  0.00  0.00    +0.140 A 
ATOM      8  N   UNL     1      -2.169   2.489  24.359  0.00  0.00    -0.229 NA
ATOM     21  C   UNL     1      -2.734   4.096  25.612  0.00  0.00    +0.020 A 
ATOM     22  C   UNL     1      -2.102   4.625  25.581  0.00  0.00    -0.003 A 
ENDBRANCH   9   7
BRANCH  12  13
ATOM     13  C   UNL     1      -4.390  -0.287  24.656  0.00  0.00    +0.119 C 
BRANCH  13  14
ATOM     14  C   UNL     1      -4.051  -1.037  24.714  0.00  0.00    +0.075 A 
ATOM     15  N   UNL     1      -3.621  -1.246  25.387  0.00  0.00    -0.247 NA
ATOM     16  C   UNL     1      -3.283  -1.996  25.443  0.00  0.00    +0.098 A 
ATOM     17  C   UNL     1      -3.376  -2.538  24.829  0.00  0.00    +0.021 A 
ATOM     18  C   UNL     1      -3.806  -2.330  24.156  0.00  0.00    +0.003 A 
ATOM     19  C   UNL     1      -4.144  -1.579  24.098  0.00  0.00    +0.016 A 
ENDBRANCH  13  14
ENDBRANCH  12  13
TORSDOF 3
ENDMDL
MODEL 3
REMARK VINA RESULT:     -11.5      1.641      2.359
REMARK  Name = 
REMARK  3 active torsions:
REMARK  status: ('A' for Active; 'I' for Inactive)
REMARK    1  A    between atoms: C_7  and  C_9
REMARK    2  A    between atoms: N_12  and  C_13
REMARK    3  A    between atoms: C_13  and  C_14
REMARK                            x       y       z     vdW  Elec       q    Type
REMARK                         _______ _______ _______ _____ _____    ______ ____
ROOT
ATOM      9  C   UNL     1      -1.620   0.860  24.748  0.00  0.00    +0.076 C 
ATOM     10  C   UNL     1      -0.962   1.032  24.282  0.00  0.00    +0.026 C 
ATOM     11  C   UNL     1      -0.588   1.694  24.603  0.00  0.00    +0.073 C 
ATOM     12  N   UNL     1      -1.015   1.930  25.268  0.00  0.00    -0.267 NA
ATOM     20  C   UNL     1      -1.653   1.414  25.357  0.00  0.00    +0.080 C 
ENDROOT
BRANCH   9   7
ATOM      1  C   UNL     1      -3.796  -2.853  24.414  0.00  0.00    +0.031 C 
ATOM      2  C   UNL     1      -3.613  -2.051  24.373  0.00  0.00    -0.020 A 
ATOM      3  C   UNL     1      -2.876  -1.782  24.625  0.00  0.00    +0.016 A 
ATOM      4  C   UNL     1      -2.692  -0.979  24.584  0.00  0.00    +0.100 A 
ATOM      5  C   UNL     1      -3.247  -0.444  24.291  0.00  0.00    +0.100 A 
ATOM      6  N   UNL     1      -2.914   0.310  24.316  0.00  0.00    -0.229 NA
ATOM      7  C   UNL     1      -2.152   0.241  24.625  0.00  0.00    +0.140 A 
ATOM      8  N   UNL     1      -2.016  -0.556  24.791  0.00  0.00    -0.229 NA
ATOM     21  C   UNL     1      -3.986  -0.712  24.038  0.00  0.00    +0.020 A 
ATOM     22  C   UNL     1      -4.169  -1.516  24.080  0.00  0.00    -0.003 A 
ENDBRANCH   9   7
BRANCH  12  13
ATOM     13  C   UNL     1      -0.837   2.569  25.757  0.00  0.00    +0.119 C 
BRANCH  13  14
ATOM     14  C   UNL     1      -1.151   3.315  25.594  0.00  0.00    +0.075 A 
ATOM     15  N   UNL     1      -1.907   3.512  25.862  0.00  0.00    -0.247 NA
ATOM     16  C   UNL     1      -2.220   4.257  25.699  0.00  0.00    +0.098 A 
ATOM     17  C   UNL     1      -1.779   4.806  25.269  0.00  0.00    +0.021 A 
ATOM     18  C   UNL     1      -1.023   4.609  25.002  0.00  0.00    +0.003 A 
ATOM     19  C   UNL     1      -0.709   3.863  25.164  0.00  0.00    +0.016 A 
ENDBRANCH  13  14
ENDBRANCH  12  13
TORSDOF 3
ENDMDL
