MODEL 1
REMARK VINA RESULT:     -12.2      0.000      0.000
REMARK  Name = 
REMARK  5 active torsions:
REMARK  status: ('A' for Active; 'I' for Inactive)
REMARK    1  A    between atoms: C_2  and  N_3
REMARK    2  A    between atoms: C_2  and  C_25
REMARK    3  A    between atoms: C_4  and  C_6
REMARK    4  A    between atoms: C_8  and  N_9
REMARK    5  A    between atoms: N_12  and  C_13
REMARK                            x       y       z     vdW  Elec       q    Type
REMARK                         _______ _______ _______ _____ _____    ______ ____
ROOT
ATOM      6  C   UNL     1      -3.872   3.093  25.087  0.00  0.00    +0.033 C 
ATOM      7  C   UNL     1      -3.956   2.334  24.771  0.00  0.00    -0.002 C 
ATOM      8  C   UNL     1      -4.672   1.932  24.850  0.00  0.00    +0.152 C 
ATOM     20  C   UNL     1      -5.304   2.287  25.245  0.00  0.00    +0.206 C 
ATOM     21  O   UNL     1      -6.020   1.885  25.324  0.00  0.00    -0.218 OA
ATOM     22  C   UNL     1      -5.220   3.045  25.561  0.00  0.00    +0.189 C 
ATOM     23  O   UNL     1      -5.851   3.400  25.955  0.00  0.00    -0.220 OA
ATOM     24  C   UNL     1      -4.504   3.447  25.482  0.00  0.00    +0.066 C 
ENDROOT
BRANCH   8   9
ATOM      9  N   UNL     1      -4.757   1.175  24.535  0.00  0.00    -0.181 NA
ATOM     10  C   UNL     1      -4.336   0.543  24.859  0.00  0.00    +0.344 C 
ATOM     11  O   UNL     1      -3.830   0.670  25.498  0.00  0.00    -0.249 OA
ATOM     12  N   UNL     1      -4.420  -0.214  24.544  0.00  0.00    -0.160 NA
BRANCH  12  13
ATOM     13  C   UNL     1      -3.999  -0.845  24.867  0.00  0.00    +0.081 A 
ATOM     14  C   UNL     1      -3.654  -0.773  25.613  0.00  0.00    +0.017 A 
ATOM     15  C   UNL     1      -3.234  -1.404  25.935  0.00  0.00    +0.001 A 
ATOM     16  C   UNL     1      -3.158  -2.109  25.513  0.00  0.00    +0.001 A 
ATOM     17  C   UNL     1      -3.504  -2.182  24.768  0.00  0.00    +0.008 A 
ATOM     18  C   UNL     1      -3.925  -1.549  24.444  0.00  0.00    +0.050 A 
ATOM     19 BR   UNL     1      -4.270  -1.622  23.699  0.00  0.00    -0.048 Br
ENDBRANCH  12  13
ENDBRANCH   8   9
BRANCH   6   4
ATOM      3  N   UNL     1      -2.539   3.346  25.534  0.00  0.00    -0.194 NA
ATOM      4  C   UNL     1      -3.156   3.495  25.008  0.00  0.00    +0.261 C 
ATOM      5  O   UNL     1      -3.058   4.046  24.402  0.00  0.00    -0.269 OA
BRANCH   3   2
ATOM      1  C   UNL     1      -1.818   4.540  25.223  0.00  0.00    +0.033 C 
ATOM      2  C   UNL     1      -1.823   3.748  25.455  0.00  0.00    +0.175 C 
BRANCH   2  25
ATOM     25  C   UNL     1      -1.112   3.359  25.608  0.00  0.00    +0.281 C 
ATOM     26  N   UNL     1      -0.504   3.375  25.050  0.00  0.00    -0.086 NA
ATOM     27  O   UNL     1      -1.008   2.954  26.320  0.00  0.00    -0.270 OA
ENDBRANCH   2  25
ENDBRANCH   3   2
ENDBRANCH   6   4
TORSDOF 5
ENDMDL
MODEL 2
REMARK VINA RESULT:     -11.5      1.793      3.236
REMARK  Name = 
REMARK  5 active torsions:
REMARK  status: ('A' for Active; 'I' for Inactive)
REMARK    1  A    between atoms: C_2  and  N_3
REMARK    2  A    between atoms: C_2  and  C_25
REMARK    3  A    between atoms: C_4  and  C_6
REMARK    4  A    between atoms: C_8  and  N_9
REMARK    5  A    between atoms: N_12  and  C_13
REMARK                            x       y       z     vdW  Elec       q    Type
REMARK                         _______ _______ _______ _____ _____    ______ ____
ROOT
ATOM      6  C   UNL     1      -1.256   2.179  25.159  0.00  0.00    +0.033 C 
ATOM      7  C   UNL     1      -1.505   1.407  25.317  0.00  0.00    -0.002 C 
ATOM      8  C   UNL     1      -1.059   0.767  25.048  0.00  0.00    +0.152 C 
ATOM     20  C   UNL     1      -0.364   0.897  24.622  0.00  0.00    +0.206 C 
ATOM     21  O   UNL     1       0.081   0.257  24.353  0.00  0.00    -0.218 OA
ATOM     22  C   UNL     1      -0.116   1.668  24.464  0.00  0.00    +0.189 C 
ATOM     23  O   UNL     1       0.578   1.798  24.037  0.00  0.00    -0.220 OA
ATOM     24  C   UNL     1      -0.562   2.308  24.733  0.00  0.00    +0.066 C 
ENDROOT
BRANCH   8   9
ATOM      9  N   UNL     1      -1.307  -0.004  25.206  0.00  0.00    -0.181 NA
ATOM     10  C   UNL     1      -1.996  -0.296  24.856  0.00  0.00    +0.344 C 
ATOM     11  O   UNL     1      -2.434   0.184  24.348  0.00  0.00    -0.249 OA
ATOM     12  N   UNL     1      -2.244  -1.065  25.014  0.00  0.00    -0.160 NA
BRANCH  12  13
ATOM     13  C   UNL     1      -2.931  -1.357  24.664  0.00  0.00    +0.081 A 
ATOM     14  C   UNL     1      -3.573  -0.856  24.532  0.00  0.00    +0.017 A 
ATOM     15  C   UNL     1      -4.260  -1.149  24.182  0.00  0.00    +0.001 A 
ATOM     16  C   UNL     1      -4.306  -1.943  23.964  0.00  0.00    +0.001 A 
ATOM     17  C   UNL     1      -3.665  -2.445  24.096  0.00  0.00    +0.008 A 
ATOM     18  C   UNL     1      -2.977  -2.152  24.446  0.00  0.00    +0.050 A 
ATOM     19 BR   UNL     1      -2.336  -2.653  24.578  0.00  0.00    -0.048 Br
ENDBRANCH  12  13
ENDBRANCH   8   9
BRANCH   6   4
ATOM      3  N   UNL     1      -2.362   3.068  25.003  0.00  0.00    -0.194 NA
ATOM      4  C   UNL     1      -1.701   2.818  25.428  0.00  0.00    +0.261 C 
ATOM      5  O   UNL     1      -1.485   3.208  26.122  0.00  0.00    -0.269 OA
BRANCH   3   2
ATOM      1  C   UNL     1      -2.471   4.259  25.786  0.00  0.00    +0.033 C 
ATOM      2  C   UNL     1      -2.808   3.709  25.271  0.00  0.00    +0.175 C 
BRANCH   2  25
ATOM     25  C   UNL     1      -3.590   3.799  25.026  0.00  0.00    +0.281 C 
ATOM     26  N   UNL     1      -4.200   3.799  25.582  0.00  0.00    -0.086 NA
ATOM     27  O   UNL     1      -3.763   3.889  24.224  0.00  0.00    -0.270 OA
ENDBRANCH   2  25
ENDBRANCH   3   2
ENDBRANCH   6   4
TORSDOF 5
ENDMDL
MODEL 3
REMARK VINA RESULT:     -11.1      1.512      3.016
REMARK  Name = 
REMARK  5 active torsions:
REMARK  status: ('A' for Active; 'I' for Inactive)
REMARK    1  A    between atoms: C_2  and  N_3
REMARK    2  A    between atoms: C_2  and  C_25
REMARK    3  A    between atoms: C_4  and  C_6
REMARK    4  A    between atoms: C_8  and  N_9
REMARK    5  A    between atoms: N_12  and  C_13
REMARK                            x       y       z     vdW  Elec       q    Type
REMARK                         _______ _______ _______ _____ _____    ______ ____
ROOT
ATOM      6  C   UNL     1      -2.543   2.568  25.073  0.00  0.00    +0.033 C 
ATOM      7  C   UNL     1      -2.419   1.826  24.731  0.00  0.00    -0.002 C 
ATOM      8  C   UNL     1      -1.714   1.421  24.870  0.00  0.00    +0.152 C 
ATOM     20  C   UNL     1      -1.132   1.756  25.349  0.00  0.00    +0.206 C 
ATOM     21  O   UNL     1      -0.427   1.351  25.487  0.00  0.00    -0.218 OA
ATOM     22  C   UNL     1      -1.255   2.498  25.691  0.00  0.00    +0.189 C 
ATOM     23  O   UNL     1      -0.674   2.833  26.170  0.00  0.00    -0.220 OA
ATOM     24  C   UNL     1      -1.961   2.903  25.552  0.00  0.00    +0.066 C 
ENDROOT
BRANCH   8   9
ATOM      9  N   UNL     1      -1.590   0.680  24.529  0.00  0.00    -0.181 NA
ATOM     10  C   UNL     1      -2.133   0.071  24.656  0.00  0.00    +0.344 C 
ATOM     11  O   UNL     1      -2.798   0.204  25.125  0.00  0.00    -0.249 OA
ATOM     12  N   UNL     1      -2.010  -0.669  24.315  0.00  0.00    -0.160 NA
BRANCH  12  13
ATOM     13  C   UNL     1      -2.551  -1.277  24.443  0.00  0.00    +0.081 A 
ATOM     14  C   UNL     1      -3.361  -1.123  24.414  0.00  0.00    +0.017 A 
ATOM     15  C   UNL     1      -3.902  -1.732  24.541  0.00  0.00    +0.001 A 
ATOM     16  C   UNL     1      -3.634  -2.496  24.698  0.00  0.00    +0.001 A 
ATOM     17  C   UNL     1      -2.824  -2.651  24.727  0.00  0.00    +0.008 A 
ATOM     18  C   UNL     1      -2.282  -2.041  24.599  0.00  0.00    +0.050 A 
ATOM     19 BR   UNL     1      -1.474  -2.196  24.628  0.00  0.00    -0.048 Br
ENDBRANCH  12  13
ENDBRANCH   8   9
BRANCH   6   4
ATOM      3  N   UNL     1      -3.913   2.812  25.394  0.00  0.00    -0.194 NA
ATOM      4  C   UNL     1      -3.248   2.973  24.935  0.00  0.00    +0.261 C 
ATOM      5  O   UNL     1      -3.287   3.540  24.337  0.00  0.00    -0.269 OA
BRANCH   3   2
ATOM      1  C   UNL     1      -4.608   3.935  24.851  0.00  0.00    +0.033 C 
ATOM      2  C   UNL     1      -4.618   3.217  25.256  0.00  0.00    +0.175 C 
BRANCH   2  25
ATOM     25  C   UNL     1      -5.333   2.904  25.523  0.00  0.00    +0.281 C 
ATOM     26  N   UNL     1      -5.609   3.091  26.278  0.00  0.00    -0.086 NA
ATOM     27  O   UNL     1      -5.773   2.404  25.035  0.00  0.00    -0.270 OA
ENDBRANCH   2  25
ENDBRANCH   3   2
ENDBRANCH   6   4
TORSDOF 5
ENDMDL
MODEL 4
REMARK VINA RESULT:     -11.1      2.363      4.330
REMARK  Name = 
REMARK  5 active torsions:
REMARK  status: ('A' for Active; 'I' for Inactive)
REMARK    1  A    between atoms: C_2  and  N_3
REMARK    2  A    between atoms: C_2  and  C_25
REMARK    3  A    between atoms: C_4  and  C_6
REMARK    4  A    between atoms: C_8  and  N_9
REMARK    5  A    between atoms: N_12  and  C_13
REMARK                            x       y       z     vdW  Elec       q    Type
REMARK                         _______ _______ _______ _____ _____    ______ ____
ROOT
ATOM      6  C   UNL     1      -0.682   1.422  24.837  0.00  0.00    +0.033 C 
ATOM      7  C   UNL     1      -1.385   1.808  24.642  0.00  0.00    -0.002 C 
ATOM      8  C   UNL     1      -1.572   2.528  24.999  0.00  0.00    +0.152 C 
ATOM     20  C   UNL     1      -1.057   2.863  25.550  0.00  0.00    +0.206 C 
ATOM     21  O   UNL     1      -1.244   3.582  25.907  0.00  0.00    -0.218 OA
ATOM     22  C   UNL     1      -0.354   2.476  25.745  0.00  0.00    +0.189 C 
ATOM     23  O   UNL     1       0.161   2.810  26.295  0.00  0.00    -0.220 OA
ATOM     24  C   UNL     1      -0.167   1.756  25.388  0.00  0.00    +0.066 C 
ENDROOT
BRANCH   8   9
ATOM      9  N   UNL     1      -2.275   2.914  24.805  0.00  0.00    -0.181 NA
ATOM     10  C   UNL     1      -3.001   2.549  24.952  0.00  0.00    +0.344 C 
ATOM     11  O   UNL     1      -3.023   1.799  25.293  0.00  0.00    -0.249 OA
ATOM     12  N   UNL     1      -3.703   2.935  24.758  0.00  0.00    -0.160 NA
BRANCH  12  13
ATOM     13  C   UNL     1      -4.428   2.571  24.905  0.00  0.00    +0.081 A 
ATOM     14  C   UNL     1      -4.545   1.782  24.693  0.00  0.00    +0.017 A 
ATOM     15  C   UNL     1      -5.270   1.419  24.840  0.00  0.00    +0.001 A 
ATOM     16  C   UNL     1      -5.880   1.844  25.199  0.00  0.00    +0.001 A 
ATOM     17  C   UNL     1      -5.763   2.632  25.411  0.00  0.00    +0.008 A 
ATOM     18  C   UNL     1      -5.037   2.996  25.264  0.00  0.00    +0.050 A 
ATOM     19 BR   UNL     1      -4.920   3.784  25.475  0.00  0.00    -0.048 Br
ENDBRANCH  12  13
ENDBRANCH   8   9
BRANCH   6   4
ATOM      3  N   UNL     1      -0.669  -0.006  24.864  0.00  0.00    -0.194 NA
ATOM      4  C   UNL     1      -0.495   0.702  24.480  0.00  0.00    +0.261 C 
ATOM      5  O   UNL     1      -0.133   0.691  23.739  0.00  0.00    -0.269 OA
BRANCH   3   2
ATOM      1  C   UNL     1      -0.031  -0.739  23.817  0.00  0.00    +0.033 C 
ATOM      2  C   UNL     1      -0.482  -0.726  24.508  0.00  0.00    +0.175 C 
BRANCH   2  25
ATOM     25  C   UNL     1      -0.745  -1.433  24.842  0.00  0.00    +0.281 C 
ATOM     26  N   UNL     1      -1.388  -1.831  24.513  0.00  0.00    -0.086 NA
ATOM     27  O   UNL     1      -0.363  -1.743  25.506  0.00  0.00    -0.270 OA
ENDBRANCH   2  25
ENDBRANCH   3   2
ENDBRANCH   6   4
TORSDOF 5
ENDMDL
MODEL 5
REMARK VINA RESULT:     -10.9      1.874      4.433
REMARK  Name = 
REMARK  5 active torsions:
REMARK  status: ('A' for Active; 'I' for Inactive)
REMARK    1  A    between atoms: C_2  and  N_3
REMARK    2  A    between atoms: C_2  and  C_25
REMARK    3  A    between atoms: C_4  and  C_6
REMARK    4  A    between atoms: C_8  and  N_9
REMARK    5  A    between atoms: N_12  and  C_13
REMARK                            x       y       z     vdW  Elec       q    Type
REMARK                         _______ _______ _______ _____ _____    ______ ____
ROOT
ATOM      6  C   UNL     1      -4.291   0.388  24.500  0.00  0.00    +0.033 C 
ATOM      7  C   UNL     1      -3.714   0.965  24.374  0.00  0.00    -0.002 C 
ATOM      8  C   UNL     1      -3.851   1.744  24.611  0.00  0.00    +0.152 C 
ATOM     20  C   UNL     1      -4.564   1.946  24.973  0.00  0.00    +0.206 C 
ATOM     21  O   UNL     1      -4.700   2.724  25.209  0.00  0.00    -0.218 OA
ATOM     22  C   UNL     1      -5.141   1.369  25.099  0.00  0.00    +0.189 C 
ATOM     23  O   UNL     1      -5.854   1.572  25.461  0.00  0.00    -0.220 OA
ATOM     24  C   UNL     1      -5.004   0.591  24.862  0.00  0.00    +0.066 C 
ENDROOT
BRANCH   8   9
ATOM      9  N   UNL     1      -3.274   2.320  24.485  0.00  0.00    -0.181 NA
ATOM     10  C   UNL     1      -2.547   2.268  24.873  0.00  0.00    +0.344 C 
ATOM     11  O   UNL     1      -2.398   1.640  25.386  0.00  0.00    -0.249 OA
ATOM     12  N   UNL     1      -1.971   2.844  24.747  0.00  0.00    -0.160 NA
BRANCH  12  13
ATOM     13  C   UNL     1      -1.245   2.793  25.135  0.00  0.00    +0.081 A 
ATOM     14  C   UNL     1      -0.941   2.056  25.348  0.00  0.00    +0.017 A 
ATOM     15  C   UNL     1      -0.215   2.005  25.735  0.00  0.00    +0.001 A 
ATOM     16  C   UNL     1       0.209   2.692  25.910  0.00  0.00    +0.001 A 
ATOM     17  C   UNL     1      -0.095   3.429  25.697  0.00  0.00    +0.008 A 
ATOM     18  C   UNL     1      -0.822   3.479  25.310  0.00  0.00    +0.050 A 
ATOM     19 BR   UNL     1      -1.126   4.216  25.097  0.00  0.00    -0.048 Br
ENDBRANCH  12  13
ENDBRANCH   8   9
BRANCH   6   4
ATOM      3  N   UNL     1      -3.905  -0.951  24.814  0.00  0.00    -0.194 NA
ATOM      4  C   UNL     1      -4.155  -0.390  24.263  0.00  0.00    +0.261 C 
ATOM      5  O   UNL     1      -4.268  -0.607  23.475  0.00  0.00    -0.269 OA
BRANCH   3   2
ATOM      1  C   UNL     1      -4.139  -2.026  23.903  0.00  0.00    +0.033 C 
ATOM      2  C   UNL     1      -3.769  -1.729  24.578  0.00  0.00    +0.175 C 
BRANCH   2  25
ATOM     25  C   UNL     1      -3.263  -2.211  25.015  0.00  0.00    +0.281 C 
ATOM     26  N   UNL     1      -2.534  -2.439  24.701  0.00  0.00    -0.086 NA
ATOM     27  O   UNL     1      -3.484  -2.466  25.769  0.00  0.00    -0.270 OA
ENDBRANCH   2  25
ENDBRANCH   3   2
ENDBRANCH   6   4
TORSDOF 5
ENDMDL
MODEL 6
REMARK VINA RESULT:     -10.8      2.553      5.555
REMARK  Name = 
REMARK  5 active torsions:
REMARK  status: ('A' for Active; 'I' for Inactive)
REMARK    1  A    between atoms: C_2  and  N_3
REMARK    2  A    between atoms: C_2  and  C_25
REMARK    3  A    between atoms: C_4  and  C_6
REMARK    4  A    between atoms: C_8  and  N_9
REMARK    5  A    between atoms: N_12  and  C_13
REMARK                            x       y       z     vdW  Elec       q    Type
REMARK                         _______ _______ _______ _____ _____    ______ ____
ROOT
ATOM      6  C   UNL     1      -1.399  -0.359  24.985  0.00  0.00    +0.033 C 
ATOM      7  C   UNL     1      -1.238   0.391  25.291  0.00  0.00    -0.002 C 
ATOM      8  C   UNL     1      -0.608   0.832  24.991  0.00  0.00    +0.152 C 
ATOM     20  C   UNL     1      -0.139   0.525  24.386  0.00  0.00    +0.206 C 
ATOM     21  O   UNL     1       0.490   0.965  24.086  0.00  0.00    -0.218 OA
ATOM     22  C   UNL     1      -0.300  -0.226  24.080  0.00  0.00    +0.189 C 
ATOM     23  O   UNL     1       0.168  -0.533  23.475  0.00  0.00    -0.220 OA
ATOM     24  C   UNL     1      -0.930  -0.666  24.380  0.00  0.00    +0.066 C 
ENDROOT
BRANCH   8   9
ATOM      9  N   UNL     1      -0.447   1.581  25.296  0.00  0.00    -0.181 NA
ATOM     10  C   UNL     1      -1.026   2.170  25.271  0.00  0.00    +0.344 C 
ATOM     11  O   UNL     1      -1.764   2.009  24.941  0.00  0.00    -0.249 OA
ATOM     12  N   UNL     1      -0.865   2.919  25.577  0.00  0.00    -0.160 NA
BRANCH  12  13
ATOM     13  C   UNL     1      -1.442   3.507  25.552  0.00  0.00    +0.081 A 
ATOM     14  C   UNL     1      -2.197   3.359  25.851  0.00  0.00    +0.017 A 
ATOM     15  C   UNL     1      -2.773   3.947  25.826  0.00  0.00    +0.001 A 
ATOM     16  C   UNL     1      -2.596   4.686  25.502  0.00  0.00    +0.001 A 
ATOM     17  C   UNL     1      -1.842   4.835  25.204  0.00  0.00    +0.008 A 
ATOM     18  C   UNL     1      -1.264   4.245  25.229  0.00  0.00    +0.050 A 
ATOM     19 BR   UNL     1      -0.510   4.394  24.930  0.00  0.00    -0.048 Br
ENDBRANCH  12  13
ENDBRANCH   8   9
BRANCH   6   4
ATOM      3  N   UNL     1      -2.640  -1.037  24.785  0.00  0.00    -0.194 NA
ATOM      4  C   UNL     1      -2.028  -0.799  25.284  0.00  0.00    +0.261 C 
ATOM      5  O   UNL     1      -2.046  -1.003  26.084  0.00  0.00    -0.269 OA
BRANCH   3   2
ATOM      1  C   UNL     1      -3.438  -1.461  25.892  0.00  0.00    +0.033 C 
ATOM      2  C   UNL     1      -3.270  -1.478  25.084  0.00  0.00    +0.175 C 
BRANCH   2  25
ATOM     25  C   UNL     1      -3.731  -1.936  24.577  0.00  0.00    +0.281 C 
ATOM     26  N   UNL     1      -4.315  -1.579  24.115  0.00  0.00    -0.086 NA
ATOM     27  O   UNL     1      -3.610  -2.751  24.531  0.00  0.00    -0.270 OA
ENDBRANCH   2  25
ENDBRANCH   3   2
ENDBRANCH   6   4
TORSDOF 5
ENDMDL
