MODEL 1
REMARK VINA RESULT:      -7.8      0.000      0.000
REMARK  Name = 
REMARK  8 active torsions:
REMARK  status: ('A' for Active; 'I' for Inactive)
REMARK    1  A    between atoms: O_2  and  C_3
REMARK    2  A    between atoms: C_6  and  N_7
REMARK    3  A    between atoms: C_8  and  O_10
REMARK    4  A    between atoms: O_10  and  C_11
REMARK    5  A    between atoms: C_15  and  N_19
REMARK    6  A    between atoms: N_19  and  C_20
REMARK    7  A    between atoms: C_20  and  C_21
REMARK    8  A    between atoms: C_24  and  N_27
REMARK                            x       y       z     vdW  Elec       q    Type
REMARK                         _______ _______ _______ _____ _____    ______ ____
ROOT
ATOM     11  C   UNL     1      -0.866   0.521  24.132  0.00  0.00    +0.229 C 
ATOM     12  C   UNL     1      -0.518   1.137  24.555  0.00  0.00    +0.188 C 
ATOM     13  O   UNL     1       0.269   1.197  24.315  0.00  0.00    -0.348 OA
ATOM     14  C   UNL     1       0.407   0.618  23.745  0.00  0.00    +0.164 C 
ATOM     15  C   UNL     1       0.979   0.296  23.245  0.00  0.00    +0.132 C 
ATOM     16  C   UNL     1       0.630  -0.320  22.822  0.00  0.00    +0.162 C 
ATOM     17  O   UNL     1      -0.157  -0.380  23.061  0.00  0.00    -0.348 OA
ATOM     18  C   UNL     1      -0.295   0.200  23.632  0.00  0.00    +0.186 C 
ENDROOT
BRANCH  11  10
ATOM     10  O   UNL     1      -1.650   0.269  24.199  0.00  0.00    -0.432 OA
BRANCH  10   8
ATOM      7  N   UNL     1      -2.934   0.861  23.995  0.00  0.00    -0.142 NA
ATOM      8  C   UNL     1      -2.236   0.801  24.430  0.00  0.00    +0.425 C 
ATOM      9  O   UNL     1      -2.124   1.274  25.097  0.00  0.00    -0.224 OA
BRANCH   7   6
ATOM      3  C   UNL     1      -4.693   2.458  24.687  0.00  0.00    +0.139 A 
ATOM      4  C   UNL     1      -4.125   2.685  24.134  0.00  0.00    +0.038 A 
ATOM      5  C   UNL     1      -3.538   2.152  23.903  0.00  0.00    +0.020 A 
ATOM      6  C   UNL     1      -3.521   1.393  24.226  0.00  0.00    +0.077 A 
ATOM     30  C   UNL     1      -4.089   1.167  24.779  0.00  0.00    +0.020 A 
ATOM     31  C   UNL     1      -4.675   1.699  25.010  0.00  0.00    +0.038 A 
BRANCH   3   2
ATOM      1  C   UNL     1      -5.480   3.063  25.715  0.00  0.00    +0.252 C 
ATOM      2  O   UNL     1      -5.279   2.991  24.918  0.00  0.00    -0.471 OA
ENDBRANCH   3   2
ENDBRANCH   7   6
ENDBRANCH  10   8
ENDBRANCH  11  10
BRANCH  15  19
ATOM     19  N   UNL     1       1.762   0.548  23.178  0.00  0.00    -0.210 NA
BRANCH  19  20
ATOM     20  C   UNL     1       2.297   0.116  22.723  0.00  0.00    +0.115 C 
BRANCH  20  21
ATOM     21  C   UNL     1       3.101   0.128  22.908  0.00  0.00    -0.005 A 
ATOM     22  C   UNL     1       3.456  -0.534  23.248  0.00  0.00    -0.002 A 
ATOM     23  C   UNL     1       4.260  -0.523  23.434  0.00  0.00    +0.014 A 
ATOM     24  C   UNL     1       4.708   0.153  23.279  0.00  0.00    +0.048 A 
ATOM     25  C   UNL     1       4.353   0.815  22.940  0.00  0.00    +0.014 A 
ATOM     26  C   UNL     1       3.549   0.804  22.754  0.00  0.00    -0.002 A 
BRANCH  24  27
ATOM     27  N   UNL     1       5.513   0.166  23.465  0.00  0.00    -0.304 N 
ATOM     28  C   UNL     1       6.057  -0.187  22.957  0.00  0.00    +0.112 C 
ATOM     29  C   UNL     1       5.770   0.532  24.158  0.00  0.00    +0.112 C 
ENDBRANCH  24  27
ENDBRANCH  20  21
ENDBRANCH  19  20
ENDBRANCH  15  19
TORSDOF 8
ENDMDL
MODEL 2
REMARK VINA RESULT:      -7.5      1.432      7.400
REMARK  Name = 
REMARK  8 active torsions:
REMARK  status: ('A' for Active; 'I' for Inactive)
REMARK    1  A    between atoms: O_2  and  C_3
REMARK    2  A    between atoms: C_6  and  N_7
REMARK    3  A    between atoms: C_8  and  O_10
REMARK    4  A    between atoms: O_10  and  C_11
REMARK    5  A    between atoms: C_15  and  N_19
REMARK    6  A    between atoms: N_19  and  C_20
REMARK    7  A    between atoms: C_20  and  C_21
REMARK    8  A    between atoms: C_24  and  N_27
REMARK                            x       y       z     vdW  Elec       q    Type
REMARK                         _______ _______ _______ _____ _____    ______ ____
ROOT
ATOM     11  C   UNL     1      -0.008   0.386  23.463  0.00  0.00    +0.229 C 
ATOM     12  C   UNL     1      -0.055   0.275  24.279  0.00  0.00    +0.188 C 
ATOM     13  O   UNL     1      -0.718   0.682  24.553  0.00  0.00    -0.348 OA
ATOM     14  C   UNL     1      -1.081   1.043  23.907  0.00  0.00    +0.164 C 
ATOM     15  C   UNL     1      -1.715   1.518  23.675  0.00  0.00    +0.132 C 
ATOM     16  C   UNL     1      -1.667   1.629  22.860  0.00  0.00    +0.162 C 
ATOM     17  O   UNL     1      -1.004   1.222  22.586  0.00  0.00    -0.348 OA
ATOM     18  C   UNL     1      -0.641   0.860  23.233  0.00  0.00    +0.186 C 
ENDROOT
BRANCH  11  10
ATOM     10  O   UNL     1       0.572   0.075  22.965  0.00  0.00    -0.432 OA
BRANCH  10   8
ATOM      7  N   UNL     1       1.947  -0.057  22.599  0.00  0.00    -0.142 NA
ATOM      8  C   UNL     1       1.369   0.229  23.113  0.00  0.00    +0.425 C 
ATOM      9  O   UNL     1       1.588   0.669  23.777  0.00  0.00    -0.224 OA
BRANCH   7   6
ATOM      3  C   UNL     1       4.338   0.401  23.045  0.00  0.00    +0.139 A 
ATOM      4  C   UNL     1       4.012  -0.327  23.256  0.00  0.00    +0.038 A 
ATOM      5  C   UNL     1       3.215  -0.479  23.107  0.00  0.00    +0.020 A 
ATOM      6  C   UNL     1       2.744   0.096  22.748  0.00  0.00    +0.077 A 
ATOM     30  C   UNL     1       3.071   0.823  22.538  0.00  0.00    +0.020 A 
ATOM     31  C   UNL     1       3.868   0.976  22.686  0.00  0.00    +0.038 A 
BRANCH   3   2
ATOM      1  C   UNL     1       5.533   0.131  23.781  0.00  0.00    +0.252 C 
ATOM      2  O   UNL     1       5.135   0.553  23.194  0.00  0.00    -0.471 OA
ENDBRANCH   3   2
ENDBRANCH   7   6
ENDBRANCH  10   8
ENDBRANCH  11  10
BRANCH  15  19
ATOM     19  N   UNL     1      -2.295   1.829  24.174  0.00  0.00    -0.210 NA
BRANCH  19  20
ATOM     20  C   UNL     1      -2.885   2.316  23.867  0.00  0.00    +0.115 C 
BRANCH  20  21
ATOM     21  C   UNL     1      -3.540   2.512  24.329  0.00  0.00    -0.005 A 
ATOM     22  C   UNL     1      -3.493   3.132  24.870  0.00  0.00    -0.002 A 
ATOM     23  C   UNL     1      -4.148   3.329  25.332  0.00  0.00    +0.014 A 
ATOM     24  C   UNL     1      -4.851   2.903  25.252  0.00  0.00    +0.048 A 
ATOM     25  C   UNL     1      -4.897   2.283  24.710  0.00  0.00    +0.014 A 
ATOM     26  C   UNL     1      -4.243   2.087  24.248  0.00  0.00    -0.002 A 
BRANCH  24  27
ATOM     27  N   UNL     1      -5.506   3.099  25.713  0.00  0.00    -0.304 N 
ATOM     28  C   UNL     1      -5.892   2.515  26.149  0.00  0.00    +0.112 C 
ATOM     29  C   UNL     1      -5.774   3.879  25.739  0.00  0.00    +0.112 C 
ENDBRANCH  24  27
ENDBRANCH  20  21
ENDBRANCH  19  20
ENDBRANCH  15  19
TORSDOF 8
ENDMDL
MODEL 3
REMARK VINA RESULT:      -6.3     17.564     18.476
REMARK  Name = 
REMARK  8 active torsions:
REMARK  status: ('A' for Active; 'I' for Inactive)
REMARK    1  A    between atoms: O_2  and  C_3
REMARK    2  A    between atoms: C_6  and  N_7
REMARK    3  A    between atoms: C_8  and  O_10
REMARK    4  A    between atoms: O_10  and  C_11
REMARK    5  A    between atoms: C_15  and  N_19
REMARK    6  A    between atoms: N_19  and  C_20
REMARK    7  A    between atoms: C_20  and  C_21
REMARK    8  A    between atoms: C_24  and  N_27
REMARK                            x       y       z     vdW  Elec       q    Type
REMARK                         _______ _______ _______ _____ _____    ______ ____
ROOT
ATOM     11  C   UNL     1      -7.882  -8.789   9.080  0.00  0.00    +0.229 C 
ATOM     12  C   UNL     1      -7.763  -8.634   9.882  0.00  0.00    +0.188 C 
ATOM     13  O   UNL     1      -7.045  -8.974  10.102  0.00  0.00    -0.348 OA
ATOM     14  C   UNL     1      -6.719  -9.338   9.438  0.00  0.00    +0.164 C 
ATOM     15  C   UNL     1      -6.074  -9.772   9.163  0.00  0.00    +0.132 C 
ATOM     16  C   UNL     1      -6.193  -9.927   8.361  0.00  0.00    +0.162 C 
ATOM     17  O   UNL     1      -6.911  -9.587   8.141  0.00  0.00    -0.348 OA
ATOM     18  C   UNL     1      -7.237  -9.223   8.806  0.00  0.00    +0.186 C 
ENDROOT
BRANCH  11  10
ATOM     10  O   UNL     1      -8.532  -8.550   8.631  0.00  0.00    -0.432 OA
BRANCH  10   8
ATOM      7  N   UNL     1      -9.090  -7.291   8.252  0.00  0.00    -0.142 NA
ATOM      8  C   UNL     1      -8.939  -7.860   8.829  0.00  0.00    +0.425 C 
ATOM      9  O   UNL     1      -9.194  -7.740   9.605  0.00  0.00    -0.224 OA
BRANCH   7   6
ATOM      3  C   UNL     1     -10.312  -5.221   8.844  0.00  0.00    +0.139 A 
ATOM      4  C   UNL     1     -10.714  -5.941   8.804  0.00  0.00    +0.038 A 
ATOM      5  C   UNL     1     -10.307  -6.630   8.607  0.00  0.00    +0.020 A 
ATOM      6  C   UNL     1      -9.497  -6.600   8.449  0.00  0.00    +0.077 A 
ATOM     30  C   UNL     1      -9.096  -5.882   8.489  0.00  0.00    +0.020 A 
ATOM     31  C   UNL     1      -9.503  -5.191   8.687  0.00  0.00    +0.038 A 
BRANCH   3   2
ATOM      1  C   UNL     1     -10.404  -3.795   8.843  0.00  0.00    +0.252 C 
ATOM      2  O   UNL     1     -10.720  -4.531   9.042  0.00  0.00    -0.471 OA
ENDBRANCH   3   2
ENDBRANCH   7   6
ENDBRANCH  10   8
ENDBRANCH  11  10
BRANCH  15  19
ATOM     19  N   UNL     1      -5.424 -10.011   9.612  0.00  0.00    -0.210 NA
BRANCH  19  20
ATOM     20  C   UNL     1      -4.659  -9.889   9.327  0.00  0.00    +0.115 C 
BRANCH  20  21
ATOM     21  C   UNL     1      -4.016  -9.930   9.842  0.00  0.00    -0.005 A 
ATOM     22  C   UNL     1      -3.537  -9.268   9.957  0.00  0.00    -0.002 A 
ATOM     23  C   UNL     1      -2.894  -9.308  10.472  0.00  0.00    +0.014 A 
ATOM     24  C   UNL     1      -2.730 -10.011  10.873  0.00  0.00    +0.048 A 
ATOM     25  C   UNL     1      -3.209 -10.672  10.757  0.00  0.00    +0.014 A 
ATOM     26  C   UNL     1      -3.852 -10.632  10.242  0.00  0.00    -0.002 A 
BRANCH  24  27
ATOM     27  N   UNL     1      -2.086 -10.052  11.388  0.00  0.00    -0.304 N 
ATOM     28  C   UNL     1      -2.098 -10.579  12.021  0.00  0.00    +0.112 C 
ATOM     29  C   UNL     1      -1.432  -9.563  11.269  0.00  0.00    +0.112 C 
ENDBRANCH  24  27
ENDBRANCH  20  21
ENDBRANCH  19  20
ENDBRANCH  15  19
TORSDOF 8
ENDMDL
MODEL 4
REMARK VINA RESULT:      -5.9      1.799      7.144
REMARK  Name = 
REMARK  8 active torsions:
REMARK  status: ('A' for Active; 'I' for Inactive)
REMARK    1  A    between atoms: O_2  and  C_3
REMARK    2  A    between atoms: C_6  and  N_7
REMARK    3  A    between atoms: C_8  and  O_10
REMARK    4  A    between atoms: O_10  and  C_11
REMARK    5  A    between atoms: C_15  and  N_19
REMARK    6  A    between atoms: N_19  and  C_20
REMARK    7  A    between atoms: C_20  and  C_21
REMARK    8  A    between atoms: C_24  and  N_27
REMARK                            x       y       z     vdW  Elec       q    Type
REMARK                         _______ _______ _______ _____ _____    ______ ____
ROOT
ATOM     11  C   UNL     1      -1.467  -0.756  24.646  0.00  0.00    +0.229 C 
ATOM     12  C   UNL     1      -1.347  -0.250  25.287  0.00  0.00    +0.188 C 
ATOM     13  O   UNL     1      -2.077   0.075  25.493  0.00  0.00    -0.348 OA
ATOM     14  C   UNL     1      -2.646  -0.229  24.981  0.00  0.00    +0.164 C 
ATOM     15  C   UNL     1      -3.449  -0.217  24.791  0.00  0.00    +0.132 C 
ATOM     16  C   UNL     1      -3.568  -0.723  24.150  0.00  0.00    +0.162 C 
ATOM     17  O   UNL     1      -2.839  -1.048  23.944  0.00  0.00    -0.348 OA
ATOM     18  C   UNL     1      -2.269  -0.743  24.457  0.00  0.00    +0.186 C 
ENDROOT
BRANCH  11  10
ATOM     10  O   UNL     1      -0.885  -1.197  24.262  0.00  0.00    -0.432 OA
BRANCH  10   8
ATOM      7  N   UNL     1      -0.027  -0.480  23.373  0.00  0.00    -0.142 NA
ATOM      8  C   UNL     1      -0.152  -0.858  24.095  0.00  0.00    +0.425 C 
ATOM      9  O   UNL     1       0.457  -0.896  24.652  0.00  0.00    -0.224 OA
BRANCH   7   6
ATOM      3  C   UNL     1       2.172   0.541  22.872  0.00  0.00    +0.139 A 
ATOM      4  C   UNL     1       1.641   0.929  23.370  0.00  0.00    +0.038 A 
ATOM      5  C   UNL     1       0.908   0.588  23.537  0.00  0.00    +0.020 A 
ATOM      6  C   UNL     1       0.706  -0.140  23.206  0.00  0.00    +0.077 A 
ATOM     30  C   UNL     1       1.237  -0.527  22.708  0.00  0.00    +0.020 A 
ATOM     31  C   UNL     1       1.970  -0.187  22.541  0.00  0.00    +0.038 A 
BRANCH   3   2
ATOM      1  C   UNL     1       3.598   0.454  22.840  0.00  0.00    +0.252 C 
ATOM      2  O   UNL     1       2.904   0.881  22.705  0.00  0.00    -0.471 OA
ENDBRANCH   3   2
ENDBRANCH   7   6
ENDBRANCH  10   8
ENDBRANCH  11  10
BRANCH  15  19
ATOM     19  N   UNL     1      -4.031   0.224  25.175  0.00  0.00    -0.210 NA
BRANCH  19  20
ATOM     20  C   UNL     1      -4.603   0.624  24.735  0.00  0.00    +0.115 C 
BRANCH  20  21
ATOM     21  C   UNL     1      -4.816   1.395  24.938  0.00  0.00    -0.005 A 
ATOM     22  C   UNL     1      -4.545   2.030  24.487  0.00  0.00    -0.002 A 
ATOM     23  C   UNL     1      -4.757   2.802  24.689  0.00  0.00    +0.014 A 
ATOM     24  C   UNL     1      -5.241   2.937  25.345  0.00  0.00    +0.048 A 
ATOM     25  C   UNL     1      -5.511   2.302  25.796  0.00  0.00    +0.014 A 
ATOM     26  C   UNL     1      -5.299   1.531  25.593  0.00  0.00    -0.002 A 
BRANCH  24  27
ATOM     27  N   UNL     1      -5.453   3.708  25.548  0.00  0.00    -0.304 N 
ATOM     28  C   UNL     1      -6.249   3.919  25.589  0.00  0.00    +0.112 C 
ATOM     29  C   UNL     1      -4.868   4.268  25.711  0.00  0.00    +0.112 C 
ENDBRANCH  24  27
ENDBRANCH  20  21
ENDBRANCH  19  20
ENDBRANCH  15  19
TORSDOF 8
ENDMDL
MODEL 5
REMARK VINA RESULT:      -5.2     15.387     16.636
REMARK  Name = 
REMARK  8 active torsions:
REMARK  status: ('A' for Active; 'I' for Inactive)
REMARK    1  A    between atoms: O_2  and  C_3
REMARK    2  A    between atoms: C_6  and  N_7
REMARK    3  A    between atoms: C_8  and  O_10
REMARK    4  A    between atoms: O_10  and  C_11
REMARK    5  A    between atoms: C_15  and  N_19
REMARK    6  A    between atoms: N_19  and  C_20
REMARK    7  A    between atoms: C_20  and  C_21
REMARK    8  A    between atoms: C_24  and  N_27
REMARK                            x       y       z     vdW  Elec       q    Type
REMARK                         _______ _______ _______ _____ _____    ______ ____
ROOT
ATOM     11  C   UNL     1      -7.521  -9.790  14.697  0.00  0.00    +0.229 C 
ATOM     12  C   UNL     1      -6.726 -10.009  14.716  0.00  0.00    +0.188 C 
ATOM     13  O   UNL     1      -6.449 -10.030  13.939  0.00  0.00    -0.348 OA
ATOM     14  C   UNL     1      -7.072  -9.823  13.440  0.00  0.00    +0.164 C 
ATOM     15  C   UNL     1      -7.286  -9.707  12.652  0.00  0.00    +0.132 C 
ATOM     16  C   UNL     1      -8.081  -9.488  12.633  0.00  0.00    +0.162 C 
ATOM     17  O   UNL     1      -8.358  -9.467  13.410  0.00  0.00    -0.348 OA
ATOM     18  C   UNL     1      -7.734  -9.674  13.909  0.00  0.00    +0.186 C 
ENDROOT
BRANCH  11  10
ATOM     10  O   UNL     1      -8.015  -9.701  15.352  0.00  0.00    -0.432 OA
BRANCH  10   8
ATOM      7  N   UNL     1      -7.874  -9.553  16.766  0.00  0.00    -0.142 NA
ATOM      8  C   UNL     1      -7.790 -10.008  16.084  0.00  0.00    +0.425 C 
ATOM      9  O   UNL     1      -7.481 -10.772  16.132  0.00  0.00    -0.224 OA
BRANCH   7   6
ATOM      3  C   UNL     1      -7.198 -10.474  18.961  0.00  0.00    +0.139 A 
ATOM      4  C   UNL     1      -6.650 -10.065  18.499  0.00  0.00    +0.038 A 
ATOM      5  C   UNL     1      -6.876  -9.758  17.768  0.00  0.00    +0.020 A 
ATOM      6  C   UNL     1      -7.649  -9.860  17.498  0.00  0.00    +0.077 A 
ATOM     30  C   UNL     1      -8.196 -10.269  17.959  0.00  0.00    +0.020 A 
ATOM     31  C   UNL     1      -7.971 -10.577  18.691  0.00  0.00    +0.038 A 
BRANCH   3   2
ATOM      1  C   UNL     1      -6.178 -10.769  19.918  0.00  0.00    +0.252 C 
ATOM      2  O   UNL     1      -6.972 -10.781  19.693  0.00  0.00    -0.471 OA
ENDBRANCH   3   2
ENDBRANCH   7   6
ENDBRANCH  10   8
ENDBRANCH  11  10
BRANCH  15  19
ATOM     19  N   UNL     1      -6.792  -9.796  11.997  0.00  0.00    -0.210 NA
BRANCH  19  20
ATOM     20  C   UNL     1      -6.869  -9.290  11.351  0.00  0.00    +0.115 C 
BRANCH  20  21
ATOM     21  C   UNL     1      -6.329  -9.332  10.727  0.00  0.00    -0.005 A 
ATOM     22  C   UNL     1      -6.425  -9.900  10.137  0.00  0.00    -0.002 A 
ATOM     23  C   UNL     1      -5.886  -9.943   9.514  0.00  0.00    +0.014 A 
ATOM     24  C   UNL     1      -5.251  -9.415   9.481  0.00  0.00    +0.048 A 
ATOM     25  C   UNL     1      -5.157  -8.848  10.071  0.00  0.00    +0.014 A 
ATOM     26  C   UNL     1      -5.695  -8.805  10.695  0.00  0.00    -0.002 A 
BRANCH  24  27
ATOM     27  N   UNL     1      -4.712  -9.457   8.858  0.00  0.00    -0.304 N 
ATOM     28  C   UNL     1      -4.926  -9.827   8.153  0.00  0.00    +0.112 C 
ATOM     29  C   UNL     1      -3.959  -9.129   8.941  0.00  0.00    +0.112 C 
ENDBRANCH  24  27
ENDBRANCH  20  21
ENDBRANCH  19  20
ENDBRANCH  15  19
TORSDOF 8
ENDMDL
MODEL 6
REMARK VINA RESULT:      -5.1     15.444     17.789
REMARK  Name = 
REMARK  8 active torsions:
REMARK  status: ('A' for Active; 'I' for Inactive)
REMARK    1  A    between atoms: O_2  and  C_3
REMARK    2  A    between atoms: C_6  and  N_7
REMARK    3  A    between atoms: C_8  and  O_10
REMARK    4  A    between atoms: O_10  and  C_11
REMARK    5  A    between atoms: C_15  and  N_19
REMARK    6  A    between atoms: N_19  and  C_20
REMARK    7  A    between atoms: C_20  and  C_21
REMARK    8  A    between atoms: C_24  and  N_27
REMARK                            x       y       z     vdW  Elec       q    Type
REMARK                         _______ _______ _______ _____ _____    ______ ____
ROOT
ATOM     11  C   UNL     1      -6.619  -9.789  12.310  0.00  0.00    +0.229 C 
ATOM     12  C   UNL     1      -6.214  -9.758  13.028  0.00  0.00    +0.188 C 
ATOM     13  O   UNL     1      -6.773  -9.715  13.633  0.00  0.00    -0.348 OA
ATOM     14  C   UNL     1      -7.522  -9.719  13.289  0.00  0.00    +0.164 C 
ATOM     15  C   UNL     1      -8.331  -9.695  13.450  0.00  0.00    +0.132 C 
ATOM     16  C   UNL     1      -8.736  -9.726  12.731  0.00  0.00    +0.162 C 
ATOM     17  O   UNL     1      -8.177  -9.769  12.127  0.00  0.00    -0.348 OA
ATOM     18  C   UNL     1      -7.427  -9.765  12.471  0.00  0.00    +0.186 C 
ENDROOT
BRANCH  11  10
ATOM     10  O   UNL     1      -6.275  -9.835  11.561  0.00  0.00    -0.432 OA
BRANCH  10   8
ATOM      7  N   UNL     1      -5.031 -10.007  10.879  0.00  0.00    -0.142 NA
ATOM      8  C   UNL     1      -5.482  -9.631  11.457  0.00  0.00    +0.425 C 
ATOM      9  O   UNL     1      -5.141  -9.049  11.934  0.00  0.00    -0.224 OA
BRANCH   7   6
ATOM      3  C   UNL     1      -2.653  -9.392  10.567  0.00  0.00    +0.139 A 
ATOM      4  C   UNL     1      -3.238  -9.020  10.119  0.00  0.00    +0.038 A 
ATOM      5  C   UNL     1      -4.030  -9.225  10.224  0.00  0.00    +0.020 A 
ATOM      6  C   UNL     1      -4.238  -9.802  10.775  0.00  0.00    +0.077 A 
ATOM     30  C   UNL     1      -3.654 -10.174  11.222  0.00  0.00    +0.020 A 
ATOM     31  C   UNL     1      -2.861  -9.970  11.119  0.00  0.00    +0.038 A 
BRANCH   3   2
ATOM      1  C   UNL     1      -1.345  -9.196  11.107  0.00  0.00    +0.252 C 
ATOM      2  O   UNL     1      -1.861  -9.187  10.463  0.00  0.00    -0.471 OA
ENDBRANCH   3   2
ENDBRANCH   7   6
ENDBRANCH  10   8
ENDBRANCH  11  10
BRANCH  15  19
ATOM     19  N   UNL     1      -8.676  -9.649  14.198  0.00  0.00    -0.210 NA
BRANCH  19  20
ATOM     20  C   UNL     1      -9.422  -9.310  14.289  0.00  0.00    +0.115 C 
BRANCH  20  21
ATOM     21  C   UNL     1      -9.707  -9.135  15.043  0.00  0.00    -0.005 A 
ATOM     22  C   UNL     1      -9.878  -8.354  15.248  0.00  0.00    -0.002 A 
ATOM     23  C   UNL     1     -10.163  -8.178  16.002  0.00  0.00    +0.014 A 
ATOM     24  C   UNL     1     -10.277  -8.784  16.551  0.00  0.00    +0.048 A 
ATOM     25  C   UNL     1     -10.106  -9.564  16.346  0.00  0.00    +0.014 A 
ATOM     26  C   UNL     1      -9.821  -9.740  15.592  0.00  0.00    -0.002 A 
BRANCH  24  27
ATOM     27  N   UNL     1     -10.562  -8.608  17.306  0.00  0.00    -0.304 N 
ATOM     28  C   UNL     1     -10.720  -7.827  17.515  0.00  0.00    +0.112 C 
ATOM     29  C   UNL     1     -10.688  -9.216  17.850  0.00  0.00    +0.112 C 
ENDBRANCH  24  27
ENDBRANCH  20  21
ENDBRANCH  19  20
ENDBRANCH  15  19
TORSDOF 8
ENDMDL
MODEL 7
REMARK VINA RESULT:      -5.0     16.883     17.782
REMARK  Name = 
REMARK  8 active torsions:
REMARK  status: ('A' for Active; 'I' for Inactive)
REMARK    1  A    between atoms: O_2  and  C_3
REMARK    2  A    between atoms: C_6  and  N_7
REMARK    3  A    between atoms: C_8  and  O_10
REMARK    4  A    between atoms: O_10  and  C_11
REMARK    5  A    between atoms: C_15  and  N_19
REMARK    6  A    between atoms: N_19  and  C_20
REMARK    7  A    between atoms: C_20  and  C_21
REMARK    8  A    between atoms: C_24  and  N_27
REMARK                            x       y       z     vdW  Elec       q    Type
REMARK                         _______ _______ _______ _____ _____    ______ ____
ROOT
ATOM     11  C   UNL     1      -6.920  -9.555  10.517  0.00  0.00    +0.229 C 
ATOM     12  C   UNL     1      -6.739  -9.063  11.154  0.00  0.00    +0.188 C 
ATOM     13  O   UNL     1      -5.948  -9.185  11.352  0.00  0.00    -0.348 OA
ATOM     14  C   UNL     1      -5.640  -9.752  10.839  0.00  0.00    +0.164 C 
ATOM     15  C   UNL     1      -4.961 -10.178  10.643  0.00  0.00    +0.132 C 
ATOM     16  C   UNL     1      -5.143 -10.670  10.007  0.00  0.00    +0.162 C 
ATOM     17  O   UNL     1      -5.934 -10.548   9.808  0.00  0.00    -0.348 OA
ATOM     18  C   UNL     1      -6.241  -9.980  10.323  0.00  0.00    +0.186 C 
ENDROOT
BRANCH  11  10
ATOM     10  O   UNL     1      -7.653  -9.610  10.141  0.00  0.00    -0.432 OA
BRANCH  10   8
ATOM      7  N   UNL     1      -8.301  -8.762   9.191  0.00  0.00    -0.142 NA
ATOM      8  C   UNL     1      -8.081  -8.927   9.969  0.00  0.00    +0.425 C 
ATOM      9  O   UNL     1      -8.290  -8.408  10.576  0.00  0.00    -0.224 OA
BRANCH   7   6
ATOM      3  C   UNL     1      -9.589  -6.713   8.675  0.00  0.00    +0.139 A 
ATOM      4  C   UNL     1      -9.966  -7.361   9.019  0.00  0.00    +0.038 A 
ATOM      5  C   UNL     1      -9.536  -8.044   9.191  0.00  0.00    +0.020 A 
ATOM      6  C   UNL     1      -8.730  -8.079   9.019  0.00  0.00    +0.077 A 
ATOM     30  C   UNL     1      -8.354  -7.431   8.676  0.00  0.00    +0.020 A 
ATOM     31  C   UNL     1      -8.783  -6.747   8.503  0.00  0.00    +0.038 A 
BRANCH   3   2
ATOM      1  C   UNL     1     -10.719  -5.870   8.909  0.00  0.00    +0.252 C 
ATOM      2  O   UNL     1     -10.018  -6.030   8.503  0.00  0.00    -0.471 OA
ENDBRANCH   3   2
ENDBRANCH   7   6
ENDBRANCH  10   8
ENDBRANCH  11  10
BRANCH  15  19
ATOM     19  N   UNL     1      -4.229 -10.122  11.020  0.00  0.00    -0.210 NA
BRANCH  19  20
ATOM     20  C   UNL     1      -3.539 -10.310  10.609  0.00  0.00    +0.115 C 
BRANCH  20  21
ATOM     21  C   UNL     1      -2.818  -9.982  10.841  0.00  0.00    -0.005 A 
ATOM     22  C   UNL     1      -2.400 -10.308  11.472  0.00  0.00    -0.002 A 
ATOM     23  C   UNL     1      -1.679  -9.980  11.705  0.00  0.00    +0.014 A 
ATOM     24  C   UNL     1      -1.377  -9.324  11.303  0.00  0.00    +0.048 A 
ATOM     25  C   UNL     1      -1.796  -8.999  10.672  0.00  0.00    +0.014 A 
ATOM     26  C   UNL     1      -2.516  -9.327  10.440  0.00  0.00    -0.002 A 
BRANCH  24  27
ATOM     27  N   UNL     1      -0.657  -8.995  11.535  0.00  0.00    -0.304 N 
ATOM     28  C   UNL     1      -0.034  -8.947  10.997  0.00  0.00    +0.112 C 
ATOM     29  C   UNL     1      -0.560  -8.716  12.306  0.00  0.00    +0.112 C 
ENDBRANCH  24  27
ENDBRANCH  20  21
ENDBRANCH  19  20
ENDBRANCH  15  19
TORSDOF 8
ENDMDL
MODEL 8
REMARK VINA RESULT:      -4.9     15.902     16.817
REMARK  Name = 
REMARK  8 active torsions:
REMARK  status: ('A' for Active; 'I' for Inactive)
REMARK    1  A    between atoms: O_2  and  C_3
REMARK    2  A    between atoms: C_6  and  N_7
REMARK    3  A    between atoms: C_8  and  O_10
REMARK    4  A    between atoms: O_10  and  C_11
REMARK    5  A    between atoms: C_15  and  N_19
REMARK    6  A    between atoms: N_19  and  C_20
REMARK    7  A    between atoms: C_20  and  C_21
REMARK    8  A    between atoms: C_24  and  N_27
REMARK                            x       y       z     vdW  Elec       q    Type
REMARK                         _______ _______ _______ _____ _____    ______ ____
ROOT
ATOM     11  C   UNL     1      -8.780 -10.058  14.298  0.00  0.00    +0.229 C 
ATOM     12  C   UNL     1      -8.050 -10.055  14.682  0.00  0.00    +0.188 C 
ATOM     13  O   UNL     1      -7.468  -9.892  14.120  0.00  0.00    -0.348 OA
ATOM     14  C   UNL     1      -7.838  -9.793  13.391  0.00  0.00    +0.164 C 
ATOM     15  C   UNL     1      -7.708  -9.630  12.592  0.00  0.00    +0.132 C 
ATOM     16  C   UNL     1      -8.438  -9.632  12.208  0.00  0.00    +0.162 C 
ATOM     17  O   UNL     1      -9.020  -9.796  12.770  0.00  0.00    -0.348 OA
ATOM     18  C   UNL     1      -8.649  -9.895  13.500  0.00  0.00    +0.186 C 
ENDROOT
BRANCH  11  10
ATOM     10  O   UNL     1      -9.513 -10.198  14.651  0.00  0.00    -0.432 OA
BRANCH  10   8
ATOM      7  N   UNL     1     -10.239  -9.836  15.827  0.00  0.00    -0.142 NA
ATOM      8  C   UNL     1      -9.583 -10.189  15.473  0.00  0.00    +0.425 C 
ATOM      9  O   UNL     1      -8.997 -10.533  15.941  0.00  0.00    -0.224 OA
BRANCH   7   6
ATOM      3  C   UNL     1     -10.453  -9.810  18.293  0.00  0.00    +0.139 A 
ATOM      4  C   UNL     1     -10.694 -10.473  17.865  0.00  0.00    +0.038 A 
ATOM      5  C   UNL     1     -10.623 -10.481  17.043  0.00  0.00    +0.020 A 
ATOM      6  C   UNL     1     -10.310  -9.827  16.649  0.00  0.00    +0.077 A 
ATOM     30  C   UNL     1     -10.069  -9.165  17.077  0.00  0.00    +0.020 A 
ATOM     31  C   UNL     1     -10.140  -9.156  17.899  0.00  0.00    +0.038 A 
BRANCH   3   2
ATOM      1  C   UNL     1     -10.101 -10.345  19.570  0.00  0.00    +0.252 C 
ATOM      2  O   UNL     1     -10.524  -9.802  19.115  0.00  0.00    -0.471 OA
ENDBRANCH   3   2
ENDBRANCH   7   6
ENDBRANCH  10   8
ENDBRANCH  11  10
BRANCH  15  19
ATOM     19  N   UNL     1      -6.975  -9.490  12.239  0.00  0.00    -0.210 NA
BRANCH  19  20
ATOM     20  C   UNL     1      -6.931  -9.327  11.432  0.00  0.00    +0.115 C 
BRANCH  20  21
ATOM     21  C   UNL     1      -6.195  -9.273  11.062  0.00  0.00    -0.005 A 
ATOM     22  C   UNL     1      -5.748  -8.583  11.132  0.00  0.00    -0.002 A 
ATOM     23  C   UNL     1      -5.012  -8.528  10.762  0.00  0.00    +0.014 A 
ATOM     24  C   UNL     1      -4.724  -9.165  10.322  0.00  0.00    +0.048 A 
ATOM     25  C   UNL     1      -5.172  -9.854  10.252  0.00  0.00    +0.014 A 
ATOM     26  C   UNL     1      -5.907  -9.909  10.622  0.00  0.00    -0.002 A 
BRANCH  24  27
ATOM     27  N   UNL     1      -3.989  -9.111   9.951  0.00  0.00    -0.304 N 
ATOM     28  C   UNL     1      -3.302  -9.279  10.374  0.00  0.00    +0.112 C 
ATOM     29  C   UNL     1      -3.942  -8.888   9.158  0.00  0.00    +0.112 C 
ENDBRANCH  24  27
ENDBRANCH  20  21
ENDBRANCH  19  20
ENDBRANCH  15  19
TORSDOF 8
ENDMDL
MODEL 9
REMARK VINA RESULT:      -4.8     15.540     17.428
REMARK  Name = 
REMARK  8 active torsions:
REMARK  status: ('A' for Active; 'I' for Inactive)
REMARK    1  A    between atoms: O_2  and  C_3
REMARK    2  A    between atoms: C_6  and  N_7
REMARK    3  A    between atoms: C_8  and  O_10
REMARK    4  A    between atoms: O_10  and  C_11
REMARK    5  A    between atoms: C_15  and  N_19
REMARK    6  A    between atoms: N_19  and  C_20
REMARK    7  A    between atoms: C_20  and  C_21
REMARK    8  A    between atoms: C_24  and  N_27
REMARK                            x       y       z     vdW  Elec       q    Type
REMARK                         _______ _______ _______ _____ _____    ______ ____
ROOT
ATOM     11  C   UNL     1      -7.820  -9.755  12.705  0.00  0.00    +0.229 C 
ATOM     12  C   UNL     1      -7.184 -10.194  12.993  0.00  0.00    +0.188 C 
ATOM     13  O   UNL     1      -7.314 -10.335  13.795  0.00  0.00    -0.348 OA
ATOM     14  C   UNL     1      -8.030  -9.984  14.002  0.00  0.00    +0.164 C 
ATOM     15  C   UNL     1      -8.554  -9.853  14.626  0.00  0.00    +0.132 C 
ATOM     16  C   UNL     1      -9.190  -9.413  14.338  0.00  0.00    +0.162 C 
ATOM     17  O   UNL     1      -9.060  -9.273  13.536  0.00  0.00    -0.348 OA
ATOM     18  C   UNL     1      -8.343  -9.625  13.328  0.00  0.00    +0.186 C 
ENDROOT
BRANCH  11  10
ATOM     10  O   UNL     1      -7.915  -9.492  11.928  0.00  0.00    -0.432 OA
BRANCH  10   8
ATOM      7  N   UNL     1      -6.946  -8.760  11.176  0.00  0.00    -0.142 NA
ATOM      8  C   UNL     1      -7.270  -9.480  11.414  0.00  0.00    +0.425 C 
ATOM      9  O   UNL     1      -6.950 -10.189  11.138  0.00  0.00    -0.224 OA
BRANCH   7   6
ATOM      3  C   UNL     1      -5.011  -8.723   9.632  0.00  0.00    +0.139 A 
ATOM      4  C   UNL     1      -5.776  -8.807   9.334  0.00  0.00    +0.038 A 
ATOM      5  C   UNL     1      -6.420  -8.819   9.848  0.00  0.00    +0.020 A 
ATOM      6  C   UNL     1      -6.301  -8.748  10.661  0.00  0.00    +0.077 A 
ATOM     30  C   UNL     1      -5.537  -8.664  10.960  0.00  0.00    +0.020 A 
ATOM     31  C   UNL     1      -4.892  -8.651  10.445  0.00  0.00    +0.038 A 
BRANCH   3   2
ATOM      1  C   UNL     1      -4.040  -9.419   8.849  0.00  0.00    +0.252 C 
ATOM      2  O   UNL     1      -4.367  -8.711   9.118  0.00  0.00    -0.471 OA
ENDBRANCH   3   2
ENDBRANCH   7   6
ENDBRANCH  10   8
ENDBRANCH  11  10
BRANCH  15  19
ATOM     19  N   UNL     1      -8.459 -10.115  15.403  0.00  0.00    -0.210 NA
BRANCH  19  20
ATOM     20  C   UNL     1      -8.522  -9.583  16.029  0.00  0.00    +0.115 C 
BRANCH  20  21
ATOM     21  C   UNL     1      -8.424  -9.845  16.806  0.00  0.00    -0.005 A 
ATOM     22  C   UNL     1      -8.999 -10.324  17.154  0.00  0.00    -0.002 A 
ATOM     23  C   UNL     1      -8.902 -10.586  17.930  0.00  0.00    +0.014 A 
ATOM     24  C   UNL     1      -8.229 -10.370  18.357  0.00  0.00    +0.048 A 
ATOM     25  C   UNL     1      -7.656  -9.892  18.008  0.00  0.00    +0.014 A 
ATOM     26  C   UNL     1      -7.752  -9.629  17.232  0.00  0.00    -0.002 A 
BRANCH  24  27
ATOM     27  N   UNL     1      -8.132 -10.632  19.134  0.00  0.00    -0.304 N 
ATOM     28  C   UNL     1      -7.375 -10.746  19.438  0.00  0.00    +0.112 C 
ATOM     29  C   UNL     1      -8.794 -10.781  19.605  0.00  0.00    +0.112 C 
ENDBRANCH  24  27
ENDBRANCH  20  21
ENDBRANCH  19  20
ENDBRANCH  15  19
TORSDOF 8
ENDMDL
MODEL 10
REMARK VINA RESULT:      -4.6     15.509     16.381
REMARK  Name = 
REMARK  8 active torsions:
REMARK  status: ('A' for Active; 'I' for Inactive)
REMARK    1  A    between atoms: O_2  and  C_3
REMARK    2  A    between atoms: C_6  and  N_7
REMARK    3  A    between atoms: C_8  and  O_10
REMARK    4  A    between atoms: O_10  and  C_11
REMARK    5  A    between atoms: C_15  and  N_19
REMARK    6  A    between atoms: N_19  and  C_20
REMARK    7  A    between atoms: C_20  and  C_21
REMARK    8  A    between atoms: C_24  and  N_27
REMARK                            x       y       z     vdW  Elec       q    Type
REMARK                         _______ _______ _______ _____ _____    ______ ____
ROOT
ATOM     11  C   UNL     1      -6.444 -10.404  12.843  0.00  0.00    +0.229 C 
ATOM     12  C   UNL     1      -6.057 -10.061  13.486  0.00  0.00    +0.188 C 
ATOM     13  O   UNL     1      -5.266  -9.952  13.278  0.00  0.00    -0.348 OA
ATOM     14  C   UNL     1      -5.164 -10.227  12.508  0.00  0.00    +0.164 C 
ATOM     15  C   UNL     1      -4.613 -10.330  11.903  0.00  0.00    +0.132 C 
ATOM     16  C   UNL     1      -5.000 -10.672  11.260  0.00  0.00    +0.162 C 
ATOM     17  O   UNL     1      -5.791 -10.781  11.467  0.00  0.00    -0.348 OA
ATOM     18  C   UNL     1      -5.892 -10.506  12.239  0.00  0.00    +0.186 C 
ENDROOT
BRANCH  11  10
ATOM     10  O   UNL     1      -7.243 -10.608  12.810  0.00  0.00    -0.432 OA
BRANCH  10   8
ATOM      7  N   UNL     1      -8.354 -10.433  13.691  0.00  0.00    -0.142 NA
ATOM      8  C   UNL     1      -7.809 -10.118  13.159  0.00  0.00    +0.425 C 
ATOM      9  O   UNL     1      -7.828  -9.314  12.974  0.00  0.00    -0.224 OA
BRANCH   7   6
ATOM      3  C   UNL     1     -10.052  -8.965  14.737  0.00  0.00    +0.139 A 
ATOM      4  C   UNL     1     -10.202  -9.313  14.003  0.00  0.00    +0.038 A 
ATOM      5  C   UNL     1      -9.636  -9.801  13.655  0.00  0.00    +0.020 A 
ATOM      6  C   UNL     1      -8.920  -9.943  14.040  0.00  0.00    +0.077 A 
ATOM     30  C   UNL     1      -8.770  -9.597  14.773  0.00  0.00    +0.020 A 
ATOM     31  C   UNL     1      -9.336  -9.108  15.122  0.00  0.00    +0.038 A 
BRANCH   3   2
ATOM      1  C   UNL     1     -10.386  -7.777  15.457  0.00  0.00    +0.252 C 
ATOM      2  O   UNL     1     -10.618  -8.477  15.085  0.00  0.00    -0.471 OA
ENDBRANCH   3   2
ENDBRANCH   7   6
ENDBRANCH  10   8
ENDBRANCH  11  10
BRANCH  15  19
ATOM     19  N   UNL     1      -3.814 -10.126  11.935  0.00  0.00    -0.210 NA
BRANCH  19  20
ATOM     20  C   UNL     1      -3.361 -10.122  11.246  0.00  0.00    +0.115 C 
BRANCH  20  21
ATOM     21  C   UNL     1      -2.597  -9.811  11.256  0.00  0.00    -0.005 A 
ATOM     22  C   UNL     1      -2.367  -9.261  10.686  0.00  0.00    -0.002 A 
ATOM     23  C   UNL     1      -1.604  -8.949  10.696  0.00  0.00    +0.014 A 
ATOM     24  C   UNL     1      -1.069  -9.189  11.278  0.00  0.00    +0.048 A 
ATOM     25  C   UNL     1      -1.298  -9.739  11.847  0.00  0.00    +0.014 A 
ATOM     26  C   UNL     1      -2.062 -10.051  11.837  0.00  0.00    -0.002 A 
BRANCH  24  27
ATOM     27  N   UNL     1      -0.304  -8.878  11.288  0.00  0.00    -0.304 N 
ATOM     28  C   UNL     1      -0.095  -8.319  11.856  0.00  0.00    +0.112 C 
ATOM     29  C   UNL     1       0.250  -9.127  10.729  0.00  0.00    +0.112 C 
ENDBRANCH  24  27
ENDBRANCH  20  21
ENDBRANCH  19  20
ENDBRANCH  15  19
TORSDOF 8
ENDMDL
