MODEL 1
REMARK VINA RESULT:     -12.0      0.000      0.000
REMARK  Name = 
REMARK  6 active torsions:
REMARK  status: ('A' for Active; 'I' for Inactive)
REMARK    1  A    between atoms: C_2  and  C_4
REMARK    2  A    between atoms: N_7  and  C_10
REMARK    3  A    between atoms: C_12  and  C_16
REMARK    4  A    between atoms: C_19  and  C_21
REMARK    5  A    between atoms: N_25  and  C_26
REMARK    6  A    between atoms: C_26  and  C_27
REMARK                            x       y       z     vdW  Elec       q    Type
REMARK                         _______ _______ _______ _____ _____    ______ ____
ROOT
ATOM     16  C   UNL     1      -0.440   2.660  24.934  0.00  0.00    +0.203 A 
ATOM     17  N   UNL     1       0.223   2.489  25.394  0.00  0.00    -0.056 NA
ATOM     18  O   UNL     1       0.537   1.772  25.132  0.00  0.00    -0.336 OA
ATOM     19  C   UNL     1       0.068   1.501  24.510  0.00  0.00    +0.251 A 
ATOM     20  N   UNL     1      -0.536   2.050  24.387  0.00  0.00    -0.190 NA
ENDROOT
BRANCH  16  12
ATOM     10  C   UNL     1      -2.219   3.900  25.174  0.00  0.00    +0.132 A 
ATOM     11  C   UNL     1      -1.737   3.235  25.101  0.00  0.00    +0.037 A 
ATOM     12  C   UNL     1      -0.923   3.325  25.007  0.00  0.00    +0.043 A 
ATOM     13  C   UNL     1      -0.590   4.080  24.987  0.00  0.00    +0.024 A 
ATOM     14  C   UNL     1      -1.072   4.745  25.061  0.00  0.00    +0.100 A 
ATOM     15  N   UNL     1      -1.888   4.655  25.154  0.00  0.00    -0.229 NA
BRANCH  10   7
ATOM      4  C   UNL     1      -4.664   3.632  25.455  0.00  0.00    +0.083 C 
ATOM      5  C   UNL     1      -4.189   3.796  26.109  0.00  0.00    +0.031 C 
ATOM      6  C   UNL     1      -3.374   3.886  26.016  0.00  0.00    +0.093 C 
ATOM      7  N   UNL     1      -3.035   3.811  25.268  0.00  0.00    -0.293 N 
ATOM      8  C   UNL     1      -3.510   3.647  24.614  0.00  0.00    +0.093 C 
ATOM      9  C   UNL     1      -4.324   3.557  24.708  0.00  0.00    +0.031 C 
BRANCH   4   2
ATOM      1  N   UNL     1      -5.821   2.794  25.486  0.00  0.00    -0.088 NA
ATOM      2  C   UNL     1      -5.478   3.542  25.550  0.00  0.00    +0.260 C 
ATOM      3  O   UNL     1      -5.951   4.199  25.707  0.00  0.00    -0.272 OA
ENDBRANCH   4   2
ENDBRANCH  10   7
ENDBRANCH  16  12
BRANCH  19  21
ATOM     21  C   UNL     1       0.183   0.803  24.085  0.00  0.00    +0.138 C 
ATOM     22  C   UNL     1       0.655   0.717  23.413  0.00  0.00    +0.027 C 
ATOM     23  C   UNL     1       0.610  -0.070  23.169  0.00  0.00    +0.019 C 
ATOM     24  C   UNL     1       0.109  -0.470  23.689  0.00  0.00    +0.073 C 
ATOM     25  N   UNL     1      -0.155   0.070  24.255  0.00  0.00    -0.263 NA
BRANCH  25  26
ATOM     26  C   UNL     1      -0.666  -0.095  24.881  0.00  0.00    +0.099 C 
BRANCH  26  27
ATOM     27  C   UNL     1      -1.154  -0.759  24.851  0.00  0.00    -0.006 A 
ATOM     28  C   UNL     1      -0.856  -1.499  25.061  0.00  0.00    -0.003 A 
ATOM     29  C   UNL     1      -1.344  -2.164  25.032  0.00  0.00    -0.000 A 
ATOM     30  C   UNL     1      -2.130  -2.088  24.792  0.00  0.00    -0.000 A 
ATOM     31  C   UNL     1      -2.427  -1.348  24.583  0.00  0.00    -0.000 A 
ATOM     32  C   UNL     1      -1.940  -0.684  24.612  0.00  0.00    -0.003 A 
ENDBRANCH  26  27
ENDBRANCH  25  26
ENDBRANCH  19  21
TORSDOF 6
ENDMDL
MODEL 2
REMARK VINA RESULT:     -12.0      1.544      4.885
REMARK  Name = 
REMARK  6 active torsions:
REMARK  status: ('A' for Active; 'I' for Inactive)
REMARK    1  A    between atoms: C_2  and  C_4
REMARK    2  A    between atoms: N_7  and  C_10
REMARK    3  A    between atoms: C_12  and  C_16
REMARK    4  A    between atoms: C_19  and  C_21
REMARK    5  A    between atoms: N_25  and  C_26
REMARK    6  A    between atoms: C_26  and  C_27
REMARK                            x       y       z     vdW  Elec       q    Type
REMARK                         _______ _______ _______ _____ _____    ______ ____
ROOT
ATOM     16  C   UNL     1      -0.483   1.687  25.025  0.00  0.00    +0.203 A 
ATOM     17  N   UNL     1      -0.105   1.907  25.725  0.00  0.00    -0.056 NA
ATOM     18  O   UNL     1      -0.316   2.688  25.894  0.00  0.00    -0.336 OA
ATOM     19  C   UNL     1      -0.823   2.949  25.298  0.00  0.00    +0.251 A 
ATOM     20  N   UNL     1      -0.926   2.331  24.761  0.00  0.00    -0.190 NA
ENDROOT
BRANCH  16  12
ATOM     10  C   UNL     1      -0.970  -0.340  24.381  0.00  0.00    +0.132 A 
ATOM     11  C   UNL     1      -1.026   0.395  24.752  0.00  0.00    +0.037 A 
ATOM     12  C   UNL     1      -0.427   0.952  24.654  0.00  0.00    +0.043 A 
ATOM     13  C   UNL     1       0.230   0.776  24.187  0.00  0.00    +0.024 A 
ATOM     14  C   UNL     1       0.286   0.041  23.816  0.00  0.00    +0.100 A 
ATOM     15  N   UNL     1      -0.314  -0.518  23.913  0.00  0.00    -0.229 NA
BRANCH  10   7
ATOM      4  C   UNL     1      -2.770  -2.014  24.672  0.00  0.00    +0.083 C 
ATOM      5  C   UNL     1      -1.980  -2.246  24.715  0.00  0.00    +0.031 C 
ATOM      6  C   UNL     1      -1.379  -1.688  24.619  0.00  0.00    +0.093 C 
ATOM      7  N   UNL     1      -1.571  -0.898  24.478  0.00  0.00    -0.293 N 
ATOM      8  C   UNL     1      -2.361  -0.666  24.435  0.00  0.00    +0.093 C 
ATOM      9  C   UNL     1      -2.960  -1.224  24.532  0.00  0.00    +0.031 C 
BRANCH   4   2
ATOM      1  N   UNL     1      -3.878  -2.744  24.143  0.00  0.00    -0.088 NA
ATOM      2  C   UNL     1      -3.370  -2.572  24.769  0.00  0.00    +0.260 C 
ATOM      3  O   UNL     1      -3.461  -2.959  25.491  0.00  0.00    -0.272 OA
ENDBRANCH   4   2
ENDBRANCH  10   7
ENDBRANCH  16  12
BRANCH  19  21
ATOM     21  C   UNL     1      -1.166   3.697  25.247  0.00  0.00    +0.138 C 
ATOM     22  C   UNL     1      -0.784   4.391  25.015  0.00  0.00    +0.027 C 
ATOM     23  C   UNL     1      -1.333   5.006  25.044  0.00  0.00    +0.019 C 
ATOM     24  C   UNL     1      -2.055   4.693  25.294  0.00  0.00    +0.073 C 
ATOM     25  N   UNL     1      -1.951   3.883  25.419  0.00  0.00    -0.263 NA
BRANCH  25  26
ATOM     26  C   UNL     1      -2.531   3.354  25.672  0.00  0.00    +0.099 C 
BRANCH  26  27
ATOM     27  C   UNL     1      -3.324   3.497  25.499  0.00  0.00    -0.006 A 
ATOM     28  C   UNL     1      -3.810   3.858  26.059  0.00  0.00    -0.003 A 
ATOM     29  C   UNL     1      -4.605   4.001  25.886  0.00  0.00    -0.000 A 
ATOM     30  C   UNL     1      -4.912   3.783  25.152  0.00  0.00    -0.000 A 
ATOM     31  C   UNL     1      -4.426   3.423  24.592  0.00  0.00    -0.000 A 
ATOM     32  C   UNL     1      -3.632   3.279  24.765  0.00  0.00    -0.003 A 
ENDBRANCH  26  27
ENDBRANCH  25  26
ENDBRANCH  19  21
TORSDOF 6
ENDMDL
MODEL 3
REMARK VINA RESULT:     -11.8      1.831      3.574
REMARK  Name = 
REMARK  6 active torsions:
REMARK  status: ('A' for Active; 'I' for Inactive)
REMARK    1  A    between atoms: C_2  and  C_4
REMARK    2  A    between atoms: N_7  and  C_10
REMARK    3  A    between atoms: C_12  and  C_16
REMARK    4  A    between atoms: C_19  and  C_21
REMARK    5  A    between atoms: N_25  and  C_26
REMARK    6  A    between atoms: C_26  and  C_27
REMARK                            x       y       z     vdW  Elec       q    Type
REMARK                         _______ _______ _______ _____ _____    ______ ____
ROOT
ATOM     16  C   UNL     1      -4.591   0.953  25.214  0.00  0.00    +0.203 A 
ATOM     17  N   UNL     1      -4.904   0.472  25.807  0.00  0.00    -0.056 NA
ATOM     18  O   UNL     1      -4.696  -0.309  25.639  0.00  0.00    -0.336 OA
ATOM     19  C   UNL     1      -4.254  -0.310  24.943  0.00  0.00    +0.251 A 
ATOM     20  N   UNL     1      -4.190   0.469  24.680  0.00  0.00    -0.190 NA
ENDROOT
BRANCH  16  12
ATOM     10  C   UNL     1      -4.070   3.070  25.114  0.00  0.00    +0.132 A 
ATOM     11  C   UNL     1      -3.995   2.250  25.164  0.00  0.00    +0.037 A 
ATOM     12  C   UNL     1      -4.667   1.773  25.164  0.00  0.00    +0.043 A 
ATOM     13  C   UNL     1      -5.416   2.115  25.113  0.00  0.00    +0.024 A 
ATOM     14  C   UNL     1      -5.492   2.935  25.064  0.00  0.00    +0.100 A 
ATOM     15  N   UNL     1      -4.819   3.413  25.064  0.00  0.00    -0.229 NA
BRANCH  10   7
ATOM      4  C   UNL     1      -2.052   4.502  25.115  0.00  0.00    +0.083 C 
ATOM      5  C   UNL     1      -2.406   4.286  25.829  0.00  0.00    +0.031 C 
ATOM      6  C   UNL     1      -3.078   3.809  25.829  0.00  0.00    +0.093 C 
ATOM      7  N   UNL     1      -3.397   3.547  25.115  0.00  0.00    -0.293 N 
ATOM      8  C   UNL     1      -3.043   3.763  24.401  0.00  0.00    +0.093 C 
ATOM      9  C   UNL     1      -2.371   4.240  24.402  0.00  0.00    +0.031 C 
BRANCH   4   2
ATOM      1  N   UNL     1      -0.630   4.636  25.068  0.00  0.00    -0.088 NA
ATOM      2  C   UNL     1      -1.379   4.979  25.117  0.00  0.00    +0.260 C 
ATOM      3  O   UNL     1      -1.454   5.798  25.167  0.00  0.00    -0.272 OA
ENDBRANCH   4   2
ENDBRANCH  10   7
ENDBRANCH  16  12
BRANCH  19  21
ATOM     21  C   UNL     1      -3.933  -0.974  24.573  0.00  0.00    +0.138 C 
ATOM     22  C   UNL     1      -4.319  -1.460  24.028  0.00  0.00    +0.027 C 
ATOM     23  C   UNL     1      -3.795  -2.055  23.802  0.00  0.00    +0.019 C 
ATOM     24  C   UNL     1      -3.085  -1.938  24.207  0.00  0.00    +0.073 C 
ATOM     25  N   UNL     1      -3.171  -1.270  24.683  0.00  0.00    -0.263 NA
BRANCH  25  26
ATOM     26  C   UNL     1      -2.596  -0.953  25.182  0.00  0.00    +0.099 C 
BRANCH  26  27
ATOM     27  C   UNL     1      -1.797  -1.087  25.027  0.00  0.00    -0.006 A 
ATOM     28  C   UNL     1      -1.422  -1.752  25.338  0.00  0.00    -0.003 A 
ATOM     29  C   UNL     1      -0.622  -1.886  25.183  0.00  0.00    -0.000 A 
ATOM     30  C   UNL     1      -0.198  -1.353  24.717  0.00  0.00    -0.000 A 
ATOM     31  C   UNL     1      -0.573  -0.687  24.407  0.00  0.00    -0.000 A 
ATOM     32  C   UNL     1      -1.372  -0.554  24.562  0.00  0.00    -0.003 A 
ENDBRANCH  26  27
ENDBRANCH  25  26
ENDBRANCH  19  21
TORSDOF 6
ENDMDL
MODEL 4
REMARK VINA RESULT:     -11.7      1.987      4.822
REMARK  Name = 
REMARK  6 active torsions:
REMARK  status: ('A' for Active; 'I' for Inactive)
REMARK    1  A    between atoms: C_2  and  C_4
REMARK    2  A    between atoms: N_7  and  C_10
REMARK    3  A    between atoms: C_12  and  C_16
REMARK    4  A    between atoms: C_19  and  C_21
REMARK    5  A    between atoms: N_25  and  C_26
REMARK    6  A    between atoms: C_26  and  C_27
REMARK                            x       y       z     vdW  Elec       q    Type
REMARK                         _______ _______ _______ _____ _____    ______ ____
ROOT
ATOM     16  C   UNL     1      -4.171   2.762  24.684  0.00  0.00    +0.203 A 
ATOM     17  N   UNL     1      -4.365   3.357  24.145  0.00  0.00    -0.056 NA
ATOM     18  O   UNL     1      -3.770   3.928  24.170  0.00  0.00    -0.336 OA
ATOM     19  C   UNL     1      -3.208   3.686  24.724  0.00  0.00    +0.251 A 
ATOM     20  N   UNL     1      -3.456   2.966  25.042  0.00  0.00    -0.190 NA
ENDROOT
BRANCH  16  12
ATOM     10  C   UNL     1      -4.705   0.662  24.940  0.00  0.00    +0.132 A 
ATOM     11  C   UNL     1      -4.262   1.341  24.786  0.00  0.00    +0.037 A 
ATOM     12  C   UNL     1      -4.615   2.084  24.839  0.00  0.00    +0.043 A 
ATOM     13  C   UNL     1      -5.411   2.150  25.045  0.00  0.00    +0.024 A 
ATOM     14  C   UNL     1      -5.854   1.472  25.199  0.00  0.00    +0.100 A 
ATOM     15  N   UNL     1      -5.501   0.727  25.147  0.00  0.00    -0.229 NA
BRANCH  10   7
ATOM      4  C   UNL     1      -3.648  -1.570  24.783  0.00  0.00    +0.083 C 
ATOM      5  C   UNL     1      -4.054  -1.259  24.136  0.00  0.00    +0.031 C 
ATOM      6  C   UNL     1      -4.406  -0.515  24.188  0.00  0.00    +0.093 C 
ATOM      7  N   UNL     1      -4.353  -0.082  24.888  0.00  0.00    -0.293 N 
ATOM      8  C   UNL     1      -3.947  -0.393  25.536  0.00  0.00    +0.093 C 
ATOM      9  C   UNL     1      -3.595  -1.137  25.483  0.00  0.00    +0.031 C 
BRANCH   4   2
ATOM      1  N   UNL     1      -2.582  -2.404  24.327  0.00  0.00    -0.088 NA
ATOM      2  C   UNL     1      -3.296  -2.314  24.730  0.00  0.00    +0.260 C 
ATOM      3  O   UNL     1      -3.657  -2.968  25.080  0.00  0.00    -0.272 OA
ENDBRANCH   4   2
ENDBRANCH  10   7
ENDBRANCH  16  12
BRANCH  19  21
ATOM     21  C   UNL     1      -2.519   4.093  24.925  0.00  0.00    +0.138 C 
ATOM     22  C   UNL     1      -2.481   4.845  25.263  0.00  0.00    +0.027 C 
ATOM     23  C   UNL     1      -1.687   5.036  25.371  0.00  0.00    +0.019 C 
ATOM     24  C   UNL     1      -1.232   4.403  25.099  0.00  0.00    +0.073 C 
ATOM     25  N   UNL     1      -1.748   3.820  24.823  0.00  0.00    -0.263 NA
BRANCH  25  26
ATOM     26  C   UNL     1      -1.529   3.092  24.503  0.00  0.00    +0.099 C 
BRANCH  26  27
ATOM     27  C   UNL     1      -0.820   2.738  24.730  0.00  0.00    -0.006 A 
ATOM     28  C   UNL     1      -0.194   2.686  24.195  0.00  0.00    -0.003 A 
ATOM     29  C   UNL     1       0.515   2.331  24.423  0.00  0.00    -0.000 A 
ATOM     30  C   UNL     1       0.598   2.027  25.186  0.00  0.00    -0.000 A 
ATOM     31  C   UNL     1      -0.028   2.079  25.720  0.00  0.00    -0.000 A 
ATOM     32  C   UNL     1      -0.736   2.434  25.493  0.00  0.00    -0.003 A 
ENDBRANCH  26  27
ENDBRANCH  25  26
ENDBRANCH  19  21
TORSDOF 6
ENDMDL
MODEL 5
REMARK VINA RESULT:     -10.4      1.525      4.495
REMARK  Name = 
REMARK  6 active torsions:
REMARK  status: ('A' for Active; 'I' for Inactive)
REMARK    1  A    between atoms: C_2  and  C_4
REMARK    2  A    between atoms: N_7  and  C_10
REMARK    3  A    between atoms: C_12  and  C_16
REMARK    4  A    between atoms: C_19  and  C_21
REMARK    5  A    between atoms: N_25  and  C_26
REMARK    6  A    between atoms: C_26  and  C_27
REMARK                            x       y       z     vdW  Elec       q    Type
REMARK                         _______ _______ _______ _____ _____    ______ ____
ROOT
ATOM     16  C   UNL     1      -3.344   3.515  25.530  0.00  0.00    +0.203 A 
ATOM     17  N   UNL     1      -3.875   3.869  26.053  0.00  0.00    -0.056 NA
ATOM     18  O   UNL     1      -4.582   3.445  26.024  0.00  0.00    -0.336 OA
ATOM     19  C   UNL     1      -4.489   2.830  25.483  0.00  0.00    +0.251 A 
ATOM     20  N   UNL     1      -3.723   2.873  25.177  0.00  0.00    -0.190 NA
ENDROOT
BRANCH  16  12
ATOM     10  C   UNL     1      -1.236   3.466  24.968  0.00  0.00    +0.132 A 
ATOM     11  C   UNL     1      -2.010   3.220  25.113  0.00  0.00    +0.037 A 
ATOM     12  C   UNL     1      -2.570   3.761  25.385  0.00  0.00    +0.043 A 
ATOM     13  C   UNL     1      -2.356   4.548  25.512  0.00  0.00    +0.024 A 
ATOM     14  C   UNL     1      -1.582   4.793  25.367  0.00  0.00    +0.100 A 
ATOM     15  N   UNL     1      -1.021   4.252  25.094  0.00  0.00    -0.229 NA
BRANCH  10   7
ATOM      4  C   UNL     1       0.445   1.843  24.151  0.00  0.00    +0.083 C 
ATOM      5  C   UNL     1      -0.035   2.245  23.614  0.00  0.00    +0.031 C 
ATOM      6  C   UNL     1      -0.596   2.786  23.886  0.00  0.00    +0.093 C 
ATOM      7  N   UNL     1      -0.675   2.924  24.695  0.00  0.00    -0.293 N 
ATOM      8  C   UNL     1      -0.195   2.522  25.232  0.00  0.00    +0.093 C 
ATOM      9  C   UNL     1       0.365   1.982  24.960  0.00  0.00    +0.031 C 
BRANCH   4   2
ATOM      1  N   UNL     1       0.777   0.531  23.693  0.00  0.00    -0.088 NA
ATOM      2  C   UNL     1       1.005   1.302  23.878  0.00  0.00    +0.260 C 
ATOM      3  O   UNL     1       1.792   1.531  23.791  0.00  0.00    -0.272 OA
ENDBRANCH   4   2
ENDBRANCH  10   7
ENDBRANCH  16  12
BRANCH  19  21
ATOM     21  C   UNL     1      -5.059   2.269  25.282  0.00  0.00    +0.138 C 
ATOM     22  C   UNL     1      -5.871   2.404  25.222  0.00  0.00    +0.027 C 
ATOM     23  C   UNL     1      -6.233   1.694  25.009  0.00  0.00    +0.019 C 
ATOM     24  C   UNL     1      -5.644   1.120  24.937  0.00  0.00    +0.073 C 
ATOM     25  N   UNL     1      -4.919   1.476  25.106  0.00  0.00    -0.263 NA
BRANCH  25  26
ATOM     26  C   UNL     1      -4.183   1.103  25.100  0.00  0.00    +0.099 C 
BRANCH  26  27
ATOM     27  C   UNL     1      -4.124   0.310  24.880  0.00  0.00    -0.006 A 
ATOM     28  C   UNL     1      -4.109   0.103  24.082  0.00  0.00    -0.003 A 
ATOM     29  C   UNL     1      -4.049  -0.690  23.862  0.00  0.00    -0.000 A 
ATOM     30  C   UNL     1      -4.006  -1.276  24.442  0.00  0.00    -0.000 A 
ATOM     31  C   UNL     1      -4.022  -1.069  25.240  0.00  0.00    -0.000 A 
ATOM     32  C   UNL     1      -4.081  -0.276  25.459  0.00  0.00    -0.003 A 
ENDBRANCH  26  27
ENDBRANCH  25  26
ENDBRANCH  19  21
TORSDOF 6
ENDMDL
