MODEL 1
REMARK VINA RESULT:      -9.6      0.000      0.000
REMARK  Name = 
REMARK  7 active torsions:
REMARK  status: ('A' for Active; 'I' for Inactive)
REMARK    1  A    between atoms: C_2  and  O_17
REMARK    2  A    between atoms: N_3  and  C_4
REMARK    3  A    between atoms: C_7  and  O_8
REMARK    4  A    between atoms: O_8  and  C_9
REMARK    5  A    between atoms: O_17  and  C_18
REMARK    6  A    between atoms: C_22  and  N_26
REMARK    7  A    between atoms: C_27  and  C_29
REMARK                            x       y       z     vdW  Elec       q    Type
REMARK                         _______ _______ _______ _____ _____    ______ ____
ROOT
ATOM     17  O   UNL     1      -0.546  -0.467  23.923  0.00  0.00    -0.432 OA
ENDROOT
BRANCH  17  18
ATOM     18  C   UNL     1      -1.006   0.095  24.315  0.00  0.00    +0.229 C 
ATOM     19  C   UNL     1      -0.740   0.621  24.892  0.00  0.00    +0.188 C 
ATOM     20  O   UNL     1      -1.382   1.080  25.133  0.00  0.00    -0.348 OA
ATOM     21  C   UNL     1      -2.044   0.838  24.706  0.00  0.00    +0.168 C 
ATOM     22  C   UNL     1      -2.849   0.971  24.589  0.00  0.00    +0.154 C 
ATOM     23  C   UNL     1      -3.115   0.445  24.012  0.00  0.00    +0.166 C 
ATOM     24  O   UNL     1      -2.473  -0.014  23.772  0.00  0.00    -0.348 OA
ATOM     25  C   UNL     1      -1.811   0.229  24.200  0.00  0.00    +0.186 C 
BRANCH  22  26
ATOM     26  N   UNL     1      -3.309   1.533  24.982  0.00  0.00    -0.202 NA
ATOM     27  C   UNL     1      -3.910   1.929  24.579  0.00  0.00    +0.241 C 
ATOM     28  O   UNL     1      -4.051   1.764  23.783  0.00  0.00    -0.273 OA
BRANCH  27  29
ATOM     29  C   UNL     1      -4.370   2.491  24.971  0.00  0.00    +0.078 C 
ATOM     30  C   UNL     1      -5.063   2.261  25.354  0.00  0.00    +0.009 C 
ATOM     31  C   UNL     1      -5.523   2.822  25.747  0.00  0.00    +0.000 C 
ATOM     32  C   UNL     1      -5.288   3.614  25.756  0.00  0.00    +0.000 C 
ATOM     33  C   UNL     1      -4.595   3.843  25.373  0.00  0.00    +0.000 C 
ATOM     34  C   UNL     1      -4.135   3.282  24.980  0.00  0.00    +0.009 C 
ENDBRANCH  27  29
ENDBRANCH  22  26
ENDBRANCH  17  18
BRANCH  17   2
ATOM      1  O   UNL     1       0.815  -0.477  24.358  0.00  0.00    -0.224 OA
ATOM      2  C   UNL     1       0.252  -0.318  23.775  0.00  0.00    +0.425 C 
ATOM      3  N   UNL     1       0.487  -0.009  23.048  0.00  0.00    -0.142 NA
BRANCH   3   4
ATOM      4  C   UNL     1       1.285   0.140  22.901  0.00  0.00    +0.077 A 
ATOM      5  C   UNL     1       1.662   0.773  23.271  0.00  0.00    +0.020 A 
ATOM      6  C   UNL     1       2.460   0.923  23.124  0.00  0.00    +0.039 A 
ATOM      7  C   UNL     1       2.881   0.438  22.606  0.00  0.00    +0.145 A 
ATOM     15  C   UNL     1       2.504  -0.196  22.235  0.00  0.00    +0.039 A 
ATOM     16  C   UNL     1       1.706  -0.344  22.383  0.00  0.00    +0.020 A 
BRANCH   7   8
ATOM      8  O   UNL     1       3.679   0.587  22.458  0.00  0.00    -0.453 OA
BRANCH   8   9
ATOM      9  C   UNL     1       4.254   0.306  22.978  0.00  0.00    +0.145 A 
ATOM     10  C   UNL     1       4.765   0.835  23.353  0.00  0.00    +0.037 A 
ATOM     11  C   UNL     1       5.341   0.554  23.873  0.00  0.00    +0.003 A 
ATOM     12  C   UNL     1       5.405  -0.256  24.018  0.00  0.00    +0.000 A 
ATOM     13  C   UNL     1       4.895  -0.785  23.644  0.00  0.00    +0.003 A 
ATOM     14  C   UNL     1       4.319  -0.503  23.123  0.00  0.00    +0.037 A 
ENDBRANCH   8   9
ENDBRANCH   7   8
ENDBRANCH   3   4
ENDBRANCH  17   2
TORSDOF 7
ENDMDL
MODEL 2
REMARK VINA RESULT:      -9.3      1.132      7.581
REMARK  Name = 
REMARK  7 active torsions:
REMARK  status: ('A' for Active; 'I' for Inactive)
REMARK    1  A    between atoms: C_2  and  O_17
REMARK    2  A    between atoms: N_3  and  C_4
REMARK    3  A    between atoms: C_7  and  O_8
REMARK    4  A    between atoms: O_8  and  C_9
REMARK    5  A    between atoms: O_17  and  C_18
REMARK    6  A    between atoms: C_22  and  N_26
REMARK    7  A    between atoms: C_27  and  C_29
REMARK                            x       y       z     vdW  Elec       q    Type
REMARK                         _______ _______ _______ _____ _____    ______ ____
ROOT
ATOM     17  O   UNL     1      -0.641   0.451  23.230  0.00  0.00    -0.432 OA
ENDROOT
BRANCH  17  18
ATOM     18  C   UNL     1       0.154   0.602  23.396  0.00  0.00    +0.229 C 
ATOM     19  C   UNL     1       0.439   1.108  23.981  0.00  0.00    +0.188 C 
ATOM     20  O   UNL     1       1.263   1.093  23.951  0.00  0.00    -0.348 OA
ATOM     21  C   UNL     1       1.487   0.578  23.348  0.00  0.00    +0.168 C 
ATOM     22  C   UNL     1       2.134   0.249  22.956  0.00  0.00    +0.154 C 
ATOM     23  C   UNL     1       1.849  -0.256  22.370  0.00  0.00    +0.166 C 
ATOM     24  O   UNL     1       1.025  -0.241  22.400  0.00  0.00    -0.348 OA
ATOM     25  C   UNL     1       0.801   0.275  23.004  0.00  0.00    +0.186 C 
BRANCH  22  26
ATOM     26  N   UNL     1       2.929   0.401  23.121  0.00  0.00    -0.202 NA
ATOM     27  C   UNL     1       3.462  -0.225  23.190  0.00  0.00    +0.241 C 
ATOM     28  O   UNL     1       3.202  -1.002  23.094  0.00  0.00    -0.273 OA
BRANCH  27  29
ATOM     29  C   UNL     1       4.257  -0.073  23.355  0.00  0.00    +0.078 C 
ATOM     30  C   UNL     1       4.596   0.644  23.128  0.00  0.00    +0.009 C 
ATOM     31  C   UNL     1       5.390   0.796  23.292  0.00  0.00    +0.000 C 
ATOM     32  C   UNL     1       5.844   0.229  23.685  0.00  0.00    +0.000 C 
ATOM     33  C   UNL     1       5.505  -0.487  23.912  0.00  0.00    +0.000 C 
ATOM     34  C   UNL     1       4.711  -0.639  23.747  0.00  0.00    +0.009 C 
ENDBRANCH  27  29
ENDBRANCH  22  26
ENDBRANCH  17  18
BRANCH  17   2
ATOM      1  O   UNL     1      -1.072   1.808  23.347  0.00  0.00    -0.224 OA
ATOM      2  C   UNL     1      -1.218   1.001  23.441  0.00  0.00    +0.425 C 
ATOM      3  N   UNL     1      -1.941   0.745  23.745  0.00  0.00    -0.142 NA
BRANCH   3   4
ATOM      4  C   UNL     1      -2.519   1.295  23.956  0.00  0.00    +0.077 A 
ATOM      5  C   UNL     1      -2.561   1.573  24.731  0.00  0.00    +0.020 A 
ATOM      6  C   UNL     1      -3.139   2.123  24.942  0.00  0.00    +0.039 A 
ATOM      7  C   UNL     1      -3.674   2.396  24.376  0.00  0.00    +0.145 A 
ATOM     15  C   UNL     1      -3.631   2.118  23.600  0.00  0.00    +0.039 A 
ATOM     16  C   UNL     1      -3.054   1.568  23.390  0.00  0.00    +0.020 A 
BRANCH   7   8
ATOM      8  O   UNL     1      -4.252   2.946  24.586  0.00  0.00    -0.453 OA
BRANCH   8   9
ATOM      9  C   UNL     1      -4.919   2.704  25.006  0.00  0.00    +0.145 A 
ATOM     10  C   UNL     1      -5.467   2.197  24.654  0.00  0.00    +0.037 A 
ATOM     11  C   UNL     1      -6.134   1.955  25.074  0.00  0.00    +0.003 A 
ATOM     12  C   UNL     1      -6.254   2.220  25.846  0.00  0.00    +0.000 A 
ATOM     13  C   UNL     1      -5.706   2.726  26.199  0.00  0.00    +0.003 A 
ATOM     14  C   UNL     1      -5.039   2.968  25.778  0.00  0.00    +0.037 A 
ENDBRANCH   8   9
ENDBRANCH   7   8
ENDBRANCH   3   4
ENDBRANCH  17   2
TORSDOF 7
ENDMDL
MODEL 3
REMARK VINA RESULT:      -7.2     16.945     19.226
REMARK  Name = 
REMARK  7 active torsions:
REMARK  status: ('A' for Active; 'I' for Inactive)
REMARK    1  A    between atoms: C_2  and  O_17
REMARK    2  A    between atoms: N_3  and  C_4
REMARK    3  A    between atoms: C_7  and  O_8
REMARK    4  A    between atoms: O_8  and  C_9
REMARK    5  A    between atoms: O_17  and  C_18
REMARK    6  A    between atoms: C_22  and  N_26
REMARK    7  A    between atoms: C_27  and  C_29
REMARK                            x       y       z     vdW  Elec       q    Type
REMARK                         _______ _______ _______ _____ _____    ______ ____
ROOT
ATOM     17  O   UNL     1      -6.915  -9.592  10.322  0.00  0.00    -0.432 OA
ENDROOT
BRANCH  17  18
ATOM     18  C   UNL     1      -6.157  -9.339  10.531  0.00  0.00    +0.229 C 
ATOM     19  C   UNL     1      -5.976  -8.664  10.969  0.00  0.00    +0.188 C 
ATOM     20  O   UNL     1      -5.156  -8.624  11.047  0.00  0.00    -0.348 OA
ATOM     21  C   UNL     1      -4.831  -9.273  10.658  0.00  0.00    +0.168 C 
ATOM     22  C   UNL     1      -4.123  -9.651  10.465  0.00  0.00    +0.154 C 
ATOM     23  C   UNL     1      -4.304 -10.326  10.027  0.00  0.00    +0.166 C 
ATOM     24  O   UNL     1      -5.124 -10.366   9.949  0.00  0.00    -0.348 OA
ATOM     25  C   UNL     1      -5.450  -9.715  10.339  0.00  0.00    +0.186 C 
BRANCH  22  26
ATOM     26  N   UNL     1      -3.366  -9.398  10.674  0.00  0.00    -0.202 NA
ATOM     27  C   UNL     1      -2.805  -9.944  10.935  0.00  0.00    +0.241 C 
ATOM     28  O   UNL     1      -3.001 -10.743  10.987  0.00  0.00    -0.273 OA
BRANCH  27  29
ATOM     29  C   UNL     1      -2.048  -9.690  11.144  0.00  0.00    +0.078 C 
ATOM     30  C   UNL     1      -1.626 -10.090  11.730  0.00  0.00    +0.009 C 
ATOM     31  C   UNL     1      -0.870  -9.837  11.939  0.00  0.00    +0.000 C 
ATOM     32  C   UNL     1      -0.535  -9.183  11.561  0.00  0.00    +0.000 C 
ATOM     33  C   UNL     1      -0.957  -8.784  10.976  0.00  0.00    +0.000 C 
ATOM     34  C   UNL     1      -1.714  -9.037  10.767  0.00  0.00    +0.009 C 
ENDBRANCH  27  29
ENDBRANCH  22  26
ENDBRANCH  17  18
BRANCH  17   2
ATOM      1  O   UNL     1      -7.605  -8.346  10.439  0.00  0.00    -0.224 OA
ATOM      2  C   UNL     1      -7.466  -9.051  10.032  0.00  0.00    +0.425 C 
ATOM      3  N   UNL     1      -7.878  -9.214   9.337  0.00  0.00    -0.142 NA
BRANCH   3   4
ATOM      4  C   UNL     1      -8.429  -8.673   9.047  0.00  0.00    +0.077 A 
ATOM      5  C   UNL     1      -9.181  -8.630   9.382  0.00  0.00    +0.020 A 
ATOM      6  C   UNL     1      -9.733  -8.088   9.093  0.00  0.00    +0.039 A 
ATOM      7  C   UNL     1      -9.531  -7.590   8.467  0.00  0.00    +0.145 A 
ATOM     15  C   UNL     1      -8.779  -7.633   8.131  0.00  0.00    +0.039 A 
ATOM     16  C   UNL     1      -8.228  -8.174   8.421  0.00  0.00    +0.020 A 
BRANCH   7   8
ATOM      8  O   UNL     1     -10.082  -7.049   8.176  0.00  0.00    -0.453 OA
BRANCH   8   9
ATOM      9  C   UNL     1     -10.113  -6.285   8.486  0.00  0.00    +0.145 A 
ATOM     10  C   UNL     1     -10.686  -6.090   9.047  0.00  0.00    +0.037 A 
ATOM     11  C   UNL     1     -10.717  -5.327   9.357  0.00  0.00    +0.003 A 
ATOM     12  C   UNL     1     -10.175  -4.757   9.106  0.00  0.00    +0.000 A 
ATOM     13  C   UNL     1      -9.602  -4.952   8.545  0.00  0.00    +0.003 A 
ATOM     14  C   UNL     1      -9.571  -5.716   8.236  0.00  0.00    +0.037 A 
ENDBRANCH   8   9
ENDBRANCH   7   8
ENDBRANCH   3   4
ENDBRANCH  17   2
TORSDOF 7
ENDMDL
MODEL 4
REMARK VINA RESULT:      -6.8     15.596     16.500
REMARK  Name = 
REMARK  7 active torsions:
REMARK  status: ('A' for Active; 'I' for Inactive)
REMARK    1  A    between atoms: C_2  and  O_17
REMARK    2  A    between atoms: N_3  and  C_4
REMARK    3  A    between atoms: C_7  and  O_8
REMARK    4  A    between atoms: O_8  and  C_9
REMARK    5  A    between atoms: O_17  and  C_18
REMARK    6  A    between atoms: C_22  and  N_26
REMARK    7  A    between atoms: C_27  and  C_29
REMARK                            x       y       z     vdW  Elec       q    Type
REMARK                         _______ _______ _______ _____ _____    ______ ____
ROOT
ATOM     17  O   UNL     1      -8.570  -9.402  13.331  0.00  0.00    -0.432 OA
ENDROOT
BRANCH  17  18
ATOM     18  C   UNL     1      -8.802  -9.754  14.040  0.00  0.00    +0.229 C 
ATOM     19  C   UNL     1      -8.814 -10.563  14.199  0.00  0.00    +0.188 C 
ATOM     20  O   UNL     1      -9.082 -10.667  14.972  0.00  0.00    -0.348 OA
ATOM     21  C   UNL     1      -9.237  -9.923  15.291  0.00  0.00    +0.168 C 
ATOM     22  C   UNL     1      -9.498  -9.526  15.965  0.00  0.00    +0.154 C 
ATOM     23  C   UNL     1      -9.486  -8.716  15.807  0.00  0.00    +0.166 C 
ATOM     24  O   UNL     1      -9.218  -8.613  15.034  0.00  0.00    -0.348 OA
ATOM     25  C   UNL     1      -9.063  -9.358  14.715  0.00  0.00    +0.186 C 
BRANCH  22  26
ATOM     26  N   UNL     1      -9.730  -9.877  16.675  0.00  0.00    -0.202 NA
ATOM     27  C   UNL     1      -9.524  -9.530  17.394  0.00  0.00    +0.241 C 
ATOM     28  O   UNL     1      -9.086  -8.831  17.405  0.00  0.00    -0.273 OA
BRANCH  27  29
ATOM     29  C   UNL     1      -9.757  -9.882  18.104  0.00  0.00    +0.078 C 
ATOM     30  C   UNL     1     -10.485  -9.690  18.441  0.00  0.00    +0.009 C 
ATOM     31  C   UNL     1     -10.718 -10.041  19.150  0.00  0.00    +0.000 C 
ATOM     32  C   UNL     1     -10.221 -10.586  19.522  0.00  0.00    +0.000 C 
ATOM     33  C   UNL     1      -9.494 -10.777  19.185  0.00  0.00    +0.000 C 
ATOM     34  C   UNL     1      -9.261 -10.426  18.476  0.00  0.00    +0.009 C 
ENDBRANCH  27  29
ENDBRANCH  22  26
ENDBRANCH  17  18
BRANCH  17   2
ATOM      1  O   UNL     1      -7.989 -10.512  12.643  0.00  0.00    -0.224 OA
ATOM      2  C   UNL     1      -7.950  -9.726  12.893  0.00  0.00    +0.425 C 
ATOM      3  N   UNL     1      -7.293  -9.265  12.705  0.00  0.00    -0.142 NA
BRANCH   3   4
ATOM      4  C   UNL     1      -6.673  -9.589  12.267  0.00  0.00    +0.077 A 
ATOM      5  C   UNL     1      -5.995  -9.861  12.649  0.00  0.00    +0.020 A 
ATOM      6  C   UNL     1      -5.376 -10.185  12.211  0.00  0.00    +0.039 A 
ATOM      7  C   UNL     1      -5.434 -10.237  11.390  0.00  0.00    +0.145 A 
ATOM     15  C   UNL     1      -6.113  -9.964  11.007  0.00  0.00    +0.039 A 
ATOM     16  C   UNL     1      -6.732  -9.640  11.445  0.00  0.00    +0.020 A 
BRANCH   7   8
ATOM      8  O   UNL     1      -4.815 -10.560  10.951  0.00  0.00    -0.453 OA
BRANCH   8   9
ATOM      9  C   UNL     1      -4.173 -10.090  10.734  0.00  0.00    +0.145 A 
ATOM     10  C   UNL     1      -4.222  -9.609  10.065  0.00  0.00    +0.037 A 
ATOM     11  C   UNL     1      -3.580  -9.139   9.848  0.00  0.00    +0.003 A 
ATOM     12  C   UNL     1      -2.889  -9.150  10.299  0.00  0.00    +0.000 A 
ATOM     13  C   UNL     1      -2.840  -9.631  10.967  0.00  0.00    +0.003 A 
ATOM     14  C   UNL     1      -3.483 -10.101  11.184  0.00  0.00    +0.037 A 
ENDBRANCH   8   9
ENDBRANCH   7   8
ENDBRANCH   3   4
ENDBRANCH  17   2
TORSDOF 7
ENDMDL
MODEL 5
REMARK VINA RESULT:      -6.1     17.129     19.284
REMARK  Name = 
REMARK  7 active torsions:
REMARK  status: ('A' for Active; 'I' for Inactive)
REMARK    1  A    between atoms: C_2  and  O_17
REMARK    2  A    between atoms: N_3  and  C_4
REMARK    3  A    between atoms: C_7  and  O_8
REMARK    4  A    between atoms: O_8  and  C_9
REMARK    5  A    between atoms: O_17  and  C_18
REMARK    6  A    between atoms: C_22  and  N_26
REMARK    7  A    between atoms: C_27  and  C_29
REMARK                            x       y       z     vdW  Elec       q    Type
REMARK                         _______ _______ _______ _____ _____    ______ ____
ROOT
ATOM     17  O   UNL     1      -8.284  -9.972  10.614  0.00  0.00    -0.432 OA
ENDROOT
BRANCH  17  18
ATOM     18  C   UNL     1      -7.474 -10.127  10.625  0.00  0.00    +0.229 C 
ATOM     19  C   UNL     1      -6.989 -10.218   9.964  0.00  0.00    +0.188 C 
ATOM     20  O   UNL     1      -6.222 -10.365  10.230  0.00  0.00    -0.348 OA
ATOM     21  C   UNL     1      -6.233 -10.366  11.054  0.00  0.00    +0.168 C 
ATOM     22  C   UNL     1      -5.767 -10.457  11.729  0.00  0.00    +0.154 C 
ATOM     23  C   UNL     1      -6.252 -10.366  12.389  0.00  0.00    +0.166 C 
ATOM     24  O   UNL     1      -7.019 -10.219  12.123  0.00  0.00    -0.348 OA
ATOM     25  C   UNL     1      -7.007 -10.218  11.298  0.00  0.00    +0.186 C 
BRANCH  22  26
ATOM     26  N   UNL     1      -4.956 -10.612  11.740  0.00  0.00    -0.202 NA
ATOM     27  C   UNL     1      -4.454 -10.149  12.202  0.00  0.00    +0.241 C 
ATOM     28  O   UNL     1      -4.761  -9.531  12.654  0.00  0.00    -0.273 OA
BRANCH  27  29
ATOM     29  C   UNL     1      -3.643 -10.305  12.214  0.00  0.00    +0.078 C 
ATOM     30  C   UNL     1      -3.182 -10.138  11.550  0.00  0.00    +0.009 C 
ATOM     31  C   UNL     1      -2.372 -10.293  11.560  0.00  0.00    +0.000 C 
ATOM     32  C   UNL     1      -2.023 -10.615  12.236  0.00  0.00    +0.000 C 
ATOM     33  C   UNL     1      -2.484 -10.781  12.899  0.00  0.00    +0.000 C 
ATOM     34  C   UNL     1      -3.295 -10.626  12.889  0.00  0.00    +0.009 C 
ENDBRANCH  27  29
ENDBRANCH  22  26
ENDBRANCH  17  18
BRANCH  17   2
ATOM      1  O   UNL     1      -8.132  -8.613  10.198  0.00  0.00    -0.224 OA
ATOM      2  C   UNL     1      -8.573  -9.311  10.212  0.00  0.00    +0.425 C 
ATOM      3  N   UNL     1      -9.300  -9.347   9.826  0.00  0.00    -0.142 NA
BRANCH   3   4
ATOM      4  C   UNL     1      -9.589  -8.687   9.425  0.00  0.00    +0.077 A 
ATOM      5  C   UNL     1      -9.300  -8.501   8.675  0.00  0.00    +0.020 A 
ATOM      6  C   UNL     1      -9.589  -7.840   8.274  0.00  0.00    +0.039 A 
ATOM      7  C   UNL     1     -10.166  -7.365   8.623  0.00  0.00    +0.145 A 
ATOM     15  C   UNL     1     -10.455  -7.551   9.374  0.00  0.00    +0.039 A 
ATOM     16  C   UNL     1     -10.166  -8.212   9.774  0.00  0.00    +0.020 A 
BRANCH   7   8
ATOM      8  O   UNL     1     -10.455  -6.704   8.223  0.00  0.00    -0.453 OA
BRANCH   8   9
ATOM      9  C   UNL     1     -10.181  -5.951   8.417  0.00  0.00    +0.145 A 
ATOM     10  C   UNL     1     -10.670  -5.428   8.828  0.00  0.00    +0.037 A 
ATOM     11  C   UNL     1     -10.396  -4.675   9.023  0.00  0.00    +0.003 A 
ATOM     12  C   UNL     1      -9.633  -4.444   8.807  0.00  0.00    +0.000 A 
ATOM     13  C   UNL     1      -9.144  -4.967   8.396  0.00  0.00    +0.003 A 
ATOM     14  C   UNL     1      -9.419  -5.721   8.202  0.00  0.00    +0.037 A 
ENDBRANCH   8   9
ENDBRANCH   7   8
ENDBRANCH   3   4
ENDBRANCH  17   2
TORSDOF 7
ENDMDL
MODEL 6
REMARK VINA RESULT:      -5.9     15.725     17.779
REMARK  Name = 
REMARK  7 active torsions:
REMARK  status: ('A' for Active; 'I' for Inactive)
REMARK    1  A    between atoms: C_2  and  O_17
REMARK    2  A    between atoms: N_3  and  C_4
REMARK    3  A    between atoms: C_7  and  O_8
REMARK    4  A    between atoms: O_8  and  C_9
REMARK    5  A    between atoms: O_17  and  C_18
REMARK    6  A    between atoms: C_22  and  N_26
REMARK    7  A    between atoms: C_27  and  C_29
REMARK                            x       y       z     vdW  Elec       q    Type
REMARK                         _______ _______ _______ _____ _____    ______ ____
ROOT
ATOM     17  O   UNL     1      -6.232 -10.478  12.912  0.00  0.00    -0.432 OA
ENDROOT
BRANCH  17  18
ATOM     18  C   UNL     1      -5.434 -10.520  13.118  0.00  0.00    +0.229 C 
ATOM     19  C   UNL     1      -4.796 -10.469  12.598  0.00  0.00    +0.188 C 
ATOM     20  O   UNL     1      -4.102 -10.537  13.039  0.00  0.00    -0.348 OA
ATOM     21  C   UNL     1      -4.311 -10.630  13.831  0.00  0.00    +0.168 C 
ATOM     22  C   UNL     1      -4.013 -10.730  14.594  0.00  0.00    +0.154 C 
ATOM     23  C   UNL     1      -4.651 -10.781  15.114  0.00  0.00    +0.166 C 
ATOM     24  O   UNL     1      -5.344 -10.713  14.673  0.00  0.00    -0.348 OA
ATOM     25  C   UNL     1      -5.134 -10.620  13.880  0.00  0.00    +0.186 C 
BRANCH  22  26
ATOM     26  N   UNL     1      -3.214 -10.772  14.800  0.00  0.00    -0.202 NA
ATOM     27  C   UNL     1      -2.915 -10.282  15.392  0.00  0.00    +0.241 C 
ATOM     28  O   UNL     1      -3.414  -9.750  15.779  0.00  0.00    -0.273 OA
BRANCH  27  29
ATOM     29  C   UNL     1      -2.117 -10.324  15.598  0.00  0.00    +0.078 C 
ATOM     30  C   UNL     1      -1.888 -10.726  16.281  0.00  0.00    +0.009 C 
ATOM     31  C   UNL     1      -1.090 -10.768  16.488  0.00  0.00    +0.000 C 
ATOM     32  C   UNL     1      -0.522 -10.407  16.010  0.00  0.00    +0.000 C 
ATOM     33  C   UNL     1      -0.752 -10.005  15.328  0.00  0.00    +0.000 C 
ATOM     34  C   UNL     1      -1.549  -9.963  15.121  0.00  0.00    +0.009 C 
ENDBRANCH  27  29
ENDBRANCH  22  26
ENDBRANCH  17  18
BRANCH  17   2
ATOM      1  O   UNL     1      -6.190 -10.760  11.512  0.00  0.00    -0.224 OA
ATOM      2  C   UNL     1      -6.449 -10.290  12.139  0.00  0.00    +0.425 C 
ATOM      3  N   UNL     1      -6.926  -9.633  11.992  0.00  0.00    -0.142 NA
BRANCH   3   4
ATOM      4  C   UNL     1      -7.143  -9.445  11.218  0.00  0.00    +0.077 A 
ATOM      5  C   UNL     1      -6.794  -8.803  10.836  0.00  0.00    +0.020 A 
ATOM      6  C   UNL     1      -7.012  -8.615  10.063  0.00  0.00    +0.039 A 
ATOM      7  C   UNL     1      -7.578  -9.069   9.672  0.00  0.00    +0.145 A 
ATOM     15  C   UNL     1      -7.928  -9.712  10.054  0.00  0.00    +0.039 A 
ATOM     16  C   UNL     1      -7.710  -9.900  10.827  0.00  0.00    +0.020 A 
BRANCH   7   8
ATOM      8  O   UNL     1      -7.796  -8.882   8.899  0.00  0.00    -0.453 OA
BRANCH   8   9
ATOM      9  C   UNL     1      -8.380  -8.316   8.760  0.00  0.00    +0.145 A 
ATOM     10  C   UNL     1      -9.175  -8.538   8.750  0.00  0.00    +0.037 A 
ATOM     11  C   UNL     1      -9.759  -7.972   8.612  0.00  0.00    +0.003 A 
ATOM     12  C   UNL     1      -9.548  -7.184   8.482  0.00  0.00    +0.000 A 
ATOM     13  C   UNL     1      -8.754  -6.963   8.492  0.00  0.00    +0.003 A 
ATOM     14  C   UNL     1      -8.170  -7.530   8.631  0.00  0.00    +0.037 A 
ENDBRANCH   8   9
ENDBRANCH   7   8
ENDBRANCH   3   4
ENDBRANCH  17   2
TORSDOF 7
ENDMDL
MODEL 7
REMARK VINA RESULT:      -5.7     16.777     19.070
REMARK  Name = 
REMARK  7 active torsions:
REMARK  status: ('A' for Active; 'I' for Inactive)
REMARK    1  A    between atoms: C_2  and  O_17
REMARK    2  A    between atoms: N_3  and  C_4
REMARK    3  A    between atoms: C_7  and  O_8
REMARK    4  A    between atoms: O_8  and  C_9
REMARK    5  A    between atoms: O_17  and  C_18
REMARK    6  A    between atoms: C_22  and  N_26
REMARK    7  A    between atoms: C_27  and  C_29
REMARK                            x       y       z     vdW  Elec       q    Type
REMARK                         _______ _______ _______ _____ _____    ______ ____
ROOT
ATOM     17  O   UNL     1      -4.669 -10.386  10.064  0.00  0.00    -0.432 OA
ENDROOT
BRANCH  17  18
ATOM     18  C   UNL     1      -4.003  -9.900  10.097  0.00  0.00    +0.229 C 
ATOM     19  C   UNL     1      -3.888  -9.207   9.666  0.00  0.00    +0.188 C 
ATOM     20  O   UNL     1      -3.149  -8.901   9.869  0.00  0.00    -0.348 OA
ATOM     21  C   UNL     1      -2.808  -9.405  10.425  0.00  0.00    +0.168 C 
ATOM     22  C   UNL     1      -2.141  -9.528  10.895  0.00  0.00    +0.154 C 
ATOM     23  C   UNL     1      -2.257 -10.222  11.326  0.00  0.00    +0.166 C 
ATOM     24  O   UNL     1      -2.995 -10.527  11.123  0.00  0.00    -0.348 OA
ATOM     25  C   UNL     1      -3.336 -10.022  10.566  0.00  0.00    +0.186 C 
BRANCH  22  26
ATOM     26  N   UNL     1      -1.475  -9.042  10.927  0.00  0.00    -0.202 NA
ATOM     27  C   UNL     1      -0.891  -9.181  11.493  0.00  0.00    +0.241 C 
ATOM     28  O   UNL     1      -0.972  -9.805  12.026  0.00  0.00    -0.273 OA
BRANCH  27  29
ATOM     29  C   UNL     1      -0.224  -8.695  11.526  0.00  0.00    +0.078 C 
ATOM     30  C   UNL     1       0.326  -8.707  10.911  0.00  0.00    +0.009 C 
ATOM     31  C   UNL     1       0.992  -8.222  10.943  0.00  0.00    +0.000 C 
ATOM     32  C   UNL     1       1.107  -7.723  11.591  0.00  0.00    +0.000 C 
ATOM     33  C   UNL     1       0.557  -7.711  12.205  0.00  0.00    +0.000 C 
ATOM     34  C   UNL     1      -0.109  -8.197  12.173  0.00  0.00    +0.009 C 
ENDBRANCH  27  29
ENDBRANCH  22  26
ENDBRANCH  17  18
BRANCH  17   2
ATOM      1  O   UNL     1      -5.565  -9.282   9.915  0.00  0.00    -0.224 OA
ATOM      2  C   UNL     1      -5.390 -10.081   9.803  0.00  0.00    +0.425 C 
ATOM      3  N   UNL     1      -5.936 -10.574   9.430  0.00  0.00    -0.142 NA
BRANCH   3   4
ATOM      4  C   UNL     1      -6.657 -10.269   9.169  0.00  0.00    +0.077 A 
ATOM      5  C   UNL     1      -6.745 -10.031   8.385  0.00  0.00    +0.020 A 
ATOM      6  C   UNL     1      -7.466  -9.726   8.124  0.00  0.00    +0.039 A 
ATOM      7  C   UNL     1      -8.099  -9.660   8.648  0.00  0.00    +0.145 A 
ATOM     15  C   UNL     1      -8.012  -9.899   9.433  0.00  0.00    +0.039 A 
ATOM     16  C   UNL     1      -7.291 -10.204   9.693  0.00  0.00    +0.020 A 
BRANCH   7   8
ATOM      8  O   UNL     1      -8.820  -9.356   8.387  0.00  0.00    -0.453 OA
BRANCH   8   9
ATOM      9  C   UNL     1      -9.016  -8.569   8.542  0.00  0.00    +0.145 A 
ATOM     10  C   UNL     1      -9.584  -8.390   9.113  0.00  0.00    +0.037 A 
ATOM     11  C   UNL     1      -9.780  -7.604   9.267  0.00  0.00    +0.003 A 
ATOM     12  C   UNL     1      -9.408  -6.997   8.850  0.00  0.00    +0.000 A 
ATOM     13  C   UNL     1      -8.840  -7.176   8.279  0.00  0.00    +0.003 A 
ATOM     14  C   UNL     1      -8.645  -7.963   8.125  0.00  0.00    +0.037 A 
ENDBRANCH   8   9
ENDBRANCH   7   8
ENDBRANCH   3   4
ENDBRANCH  17   2
TORSDOF 7
ENDMDL
