MODEL 1
REMARK VINA RESULT:      -7.8      0.000      0.000
REMARK  Name = 
REMARK  10 active torsions:
REMARK  status: ('A' for Active; 'I' for Inactive)
REMARK    1  A    between atoms: O_2  and  C_3
REMARK    2  A    between atoms: C_3  and  C_5
REMARK    3  A    between atoms: C_5  and  N_6
REMARK    4  A    between atoms: C_5  and  C_26
REMARK    5  A    between atoms: C_7  and  C_9
REMARK    6  A    between atoms: C_11  and  N_19
REMARK    7  A    between atoms: C_14  and  C_16
REMARK    8  A    between atoms: C_16  and  S_17
REMARK    9  A    between atoms: N_22  and  C_23
REMARK   10  A    between atoms: C_23  and  C_24
REMARK                            x       y       z     vdW  Elec       q    Type
REMARK                         _______ _______ _______ _____ _____    ______ ____
ROOT
ATOM      9  C   UNL     1      -2.948   2.209  24.827  0.00  0.00    +0.155 C 
ATOM     10  C   UNL     1      -2.805   1.484  24.459  0.00  0.00    +0.053 C 
ATOM     11  C   UNL     1      -3.534   1.161  24.243  0.00  0.00    +0.119 C 
ATOM     12  C   UNL     1      -4.125   1.687  24.477  0.00  0.00    +0.116 C 
ATOM     13  N   UNL     1      -3.763   2.335  24.838  0.00  0.00    -0.270 N 
ATOM     14  C   UNL     1      -4.148   2.992  25.154  0.00  0.00    +0.237 C 
ATOM     15  O   UNL     1      -3.710   3.600  25.499  0.00  0.00    -0.274 OA
ENDROOT
BRANCH  11  19
ATOM     19  N   UNL     1      -3.649   0.440  23.860  0.00  0.00    -0.187 NA
ATOM     20  C   UNL     1      -3.742  -0.251  24.300  0.00  0.00    +0.340 C 
ATOM     21  O   UNL     1      -3.719  -0.221  25.124  0.00  0.00    -0.249 OA
ATOM     22  N   UNL     1      -3.857  -0.972  23.917  0.00  0.00    -0.182 NA
BRANCH  22  23
ATOM     23  C   UNL     1      -3.950  -1.664  24.357  0.00  0.00    +0.143 C 
BRANCH  23  24
ATOM     24  C   UNL     1      -4.058  -2.386  23.974  0.00  0.00    -0.003 C 
ATOM     25  C   UNL     1      -3.707  -3.070  24.274  0.00  0.00    -0.003 C 
ENDBRANCH  23  24
ENDBRANCH  22  23
ENDBRANCH  11  19
BRANCH   9   7
ATOM      6  N   UNL     1      -1.622   2.741  24.794  0.00  0.00    -0.194 NA
ATOM      7  C   UNL     1      -2.374   2.719  25.131  0.00  0.00    +0.260 C 
ATOM      8  O   UNL     1      -2.554   3.207  25.771  0.00  0.00    -0.272 OA
BRANCH   6   5
ATOM      5  C   UNL     1      -1.049   3.252  25.098  0.00  0.00    +0.193 C 
BRANCH   5  26
ATOM     26  C   UNL     1      -0.883   3.963  24.713  0.00  0.00    +0.031 C 
ATOM     27  C   UNL     1      -0.594   3.955  23.940  0.00  0.00    +0.002 C 
ATOM     28  C   UNL     1      -1.008   4.680  25.099  0.00  0.00    +0.002 C 
ENDBRANCH   5  26
BRANCH   5   3
ATOM      3  C   UNL     1      -0.641   3.051  25.786  0.00  0.00    +0.337 C 
ATOM      4  O   UNL     1      -0.845   3.402  26.504  0.00  0.00    -0.248 OA
BRANCH   3   2
ATOM      1  C   UNL     1       0.375   2.294  26.446  0.00  0.00    +0.256 C 
ATOM      2  O   UNL     1      -0.028   2.499  25.757  0.00  0.00    -0.443 OA
ENDBRANCH   3   2
ENDBRANCH   5   3
ENDBRANCH   6   5
ENDBRANCH   9   7
BRANCH  14  16
ATOM     16  C   UNL     1      -4.971   3.041  25.125  0.00  0.00    +0.143 C 
BRANCH  16  17
ATOM     17  S   UNL     1      -5.361   3.655  25.514  0.00  0.00    -0.130 S 
ATOM     18  C   UNL     1      -6.172   3.605  25.655  0.00  0.00    +0.070 C 
ENDBRANCH  16  17
ENDBRANCH  14  16
TORSDOF 10
ENDMDL
MODEL 2
REMARK VINA RESULT:      -7.6      2.472      3.945
REMARK  Name = 
REMARK  10 active torsions:
REMARK  status: ('A' for Active; 'I' for Inactive)
REMARK    1  A    between atoms: O_2  and  C_3
REMARK    2  A    between atoms: C_3  and  C_5
REMARK    3  A    between atoms: C_5  and  N_6
REMARK    4  A    between atoms: C_5  and  C_26
REMARK    5  A    between atoms: C_7  and  C_9
REMARK    6  A    between atoms: C_11  and  N_19
REMARK    7  A    between atoms: C_14  and  C_16
REMARK    8  A    between atoms: C_16  and  S_17
REMARK    9  A    between atoms: N_22  and  C_23
REMARK   10  A    between atoms: C_23  and  C_24
REMARK                            x       y       z     vdW  Elec       q    Type
REMARK                         _______ _______ _______ _____ _____    ______ ____
ROOT
ATOM      9  C   UNL     1      -2.312   0.795  24.645  0.00  0.00    +0.155 C 
ATOM     10  C   UNL     1      -1.494   0.896  24.612  0.00  0.00    +0.053 C 
ATOM     11  C   UNL     1      -1.153   0.160  24.458  0.00  0.00    +0.119 C 
ATOM     12  C   UNL     1      -1.762  -0.394  24.395  0.00  0.00    +0.116 C 
ATOM     13  N   UNL     1      -2.478  -0.001  24.511  0.00  0.00    -0.270 N 
ATOM     14  C   UNL     1      -3.227  -0.345  24.496  0.00  0.00    +0.237 C 
ATOM     15  O   UNL     1      -3.897   0.120  24.622  0.00  0.00    -0.274 OA
ENDROOT
BRANCH  11  19
ATOM     19  N   UNL     1      -0.346   0.006  24.379  0.00  0.00    -0.187 NA
ATOM     20  C   UNL     1       0.030   0.134  23.657  0.00  0.00    +0.340 C 
ATOM     21  O   UNL     1      -0.400   0.415  23.012  0.00  0.00    -0.249 OA
ATOM     22  N   UNL     1       0.836  -0.019  23.579  0.00  0.00    -0.182 NA
BRANCH  22  23
ATOM     23  C   UNL     1       1.213   0.108  22.857  0.00  0.00    +0.143 C 
BRANCH  23  24
ATOM     24  C   UNL     1       1.955  -0.223  22.713  0.00  0.00    -0.003 C 
ATOM     25  C   UNL     1       2.589   0.259  22.499  0.00  0.00    -0.003 C 
ENDBRANCH  23  24
ENDBRANCH  22  23
ENDBRANCH  11  19
BRANCH   9   7
ATOM      6  N   UNL     1      -2.783   2.127  24.431  0.00  0.00    -0.194 NA
ATOM      7  C   UNL     1      -2.868   1.389  24.788  0.00  0.00    +0.260 C 
ATOM      8  O   UNL     1      -3.509   1.243  25.287  0.00  0.00    -0.272 OA
BRANCH   6   5
ATOM      5  C   UNL     1      -3.339   2.721  24.573  0.00  0.00    +0.193 C 
BRANCH   5  26
ATOM     26  C   UNL     1      -3.954   2.848  24.037  0.00  0.00    +0.031 C 
ATOM     27  C   UNL     1      -4.738   2.801  24.291  0.00  0.00    +0.002 C 
ATOM     28  C   UNL     1      -3.785   3.021  23.249  0.00  0.00    +0.002 C 
ENDBRANCH   5  26
BRANCH   5   3
ATOM      3  C   UNL     1      -3.281   3.186  25.251  0.00  0.00    +0.337 C 
ATOM      4  O   UNL     1      -3.870   3.153  25.827  0.00  0.00    -0.248 OA
BRANCH   3   2
ATOM      1  C   UNL     1      -2.607   4.202  25.997  0.00  0.00    +0.256 C 
ATOM      2  O   UNL     1      -2.632   3.687  25.354  0.00  0.00    -0.443 OA
ENDBRANCH   3   2
ENDBRANCH   5   3
ENDBRANCH   6   5
ENDBRANCH   9   7
BRANCH  14  16
ATOM     16  C   UNL     1      -3.308  -1.154  24.354  0.00  0.00    +0.143 C 
BRANCH  16  17
ATOM     17  S   UNL     1      -4.051  -1.472  24.194  0.00  0.00    -0.130 S 
ATOM     18  C   UNL     1      -4.127  -2.273  24.013  0.00  0.00    +0.070 C 
ENDBRANCH  16  17
ENDBRANCH  14  16
TORSDOF 10
ENDMDL
MODEL 3
REMARK VINA RESULT:      -7.4      1.276      4.636
REMARK  Name = 
REMARK  10 active torsions:
REMARK  status: ('A' for Active; 'I' for Inactive)
REMARK    1  A    between atoms: O_2  and  C_3
REMARK    2  A    between atoms: C_3  and  C_5
REMARK    3  A    between atoms: C_5  and  N_6
REMARK    4  A    between atoms: C_5  and  C_26
REMARK    5  A    between atoms: C_7  and  C_9
REMARK    6  A    between atoms: C_11  and  N_19
REMARK    7  A    between atoms: C_14  and  C_16
REMARK    8  A    between atoms: C_16  and  S_17
REMARK    9  A    between atoms: N_22  and  C_23
REMARK   10  A    between atoms: C_23  and  C_24
REMARK                            x       y       z     vdW  Elec       q    Type
REMARK                         _______ _______ _______ _____ _____    ______ ____
ROOT
ATOM      9  C   UNL     1      -3.195   0.709  24.728  0.00  0.00    +0.155 C 
ATOM     10  C   UNL     1      -2.535   1.129  24.466  0.00  0.00    +0.053 C 
ATOM     11  C   UNL     1      -2.748   1.923  24.401  0.00  0.00    +0.119 C 
ATOM     12  C   UNL     1      -3.539   1.994  24.623  0.00  0.00    +0.116 C 
ATOM     13  N   UNL     1      -3.816   1.244  24.825  0.00  0.00    -0.270 N 
ATOM     14  C   UNL     1      -4.578   1.060  25.080  0.00  0.00    +0.237 C 
ATOM     15  O   UNL     1      -4.776   0.281  25.263  0.00  0.00    -0.274 OA
ENDROOT
BRANCH  11  19
ATOM     19  N   UNL     1      -2.255   2.538  24.156  0.00  0.00    -0.187 NA
ATOM     20  C   UNL     1      -1.914   3.041  24.714  0.00  0.00    +0.340 C 
ATOM     21  O   UNL     1      -2.066   2.929  25.517  0.00  0.00    -0.249 OA
ATOM     22  N   UNL     1      -1.421   3.655  24.469  0.00  0.00    -0.182 NA
BRANCH  22  23
ATOM     23  C   UNL     1      -1.080   4.159  25.027  0.00  0.00    +0.143 C 
BRANCH  23  24
ATOM     24  C   UNL     1      -0.661   4.824  24.781  0.00  0.00    -0.003 C 
ATOM     25  C   UNL     1      -0.958   5.579  24.934  0.00  0.00    -0.003 C 
ENDBRANCH  23  24
ENDBRANCH  22  23
ENDBRANCH  11  19
BRANCH   9   7
ATOM      6  N   UNL     1      -2.986  -0.633  24.286  0.00  0.00    -0.194 NA
ATOM      7  C   UNL     1      -3.229  -0.103  24.869  0.00  0.00    +0.260 C 
ATOM      8  O   UNL     1      -3.506  -0.386  25.594  0.00  0.00    -0.272 OA
BRANCH   6   5
ATOM      5  C   UNL     1      -3.019  -1.446  24.427  0.00  0.00    +0.193 C 
BRANCH   5  26
ATOM     26  C   UNL     1      -3.672  -1.883  24.171  0.00  0.00    +0.031 C 
ATOM     27  C   UNL     1      -3.980  -1.758  23.415  0.00  0.00    +0.002 C 
ATOM     28  C   UNL     1      -4.015  -2.442  24.669  0.00  0.00    +0.002 C 
ENDBRANCH   5  26
BRANCH   5   3
ATOM      3  C   UNL     1      -2.402  -1.822  24.824  0.00  0.00    +0.337 C 
ATOM      4  O   UNL     1      -2.509  -2.089  25.596  0.00  0.00    -0.248 OA
BRANCH   3   2
ATOM      1  C   UNL     1      -1.043  -2.262  24.860  0.00  0.00    +0.256 C 
ATOM      2  O   UNL     1      -1.675  -1.931  24.447  0.00  0.00    -0.443 OA
ENDBRANCH   3   2
ENDBRANCH   5   3
ENDBRANCH   6   5
ENDBRANCH   9   7
BRANCH  14  16
ATOM     16  C   UNL     1      -5.144   1.657  25.150  0.00  0.00    +0.143 C 
BRANCH  16  17
ATOM     17  S   UNL     1      -5.910   1.471  25.395  0.00  0.00    -0.130 S 
ATOM     18  C   UNL     1      -6.457   2.073  25.530  0.00  0.00    +0.070 C 
ENDBRANCH  16  17
ENDBRANCH  14  16
TORSDOF 10
ENDMDL
MODEL 4
REMARK VINA RESULT:      -7.4      2.367      5.541
REMARK  Name = 
REMARK  10 active torsions:
REMARK  status: ('A' for Active; 'I' for Inactive)
REMARK    1  A    between atoms: O_2  and  C_3
REMARK    2  A    between atoms: C_3  and  C_5
REMARK    3  A    between atoms: C_5  and  N_6
REMARK    4  A    between atoms: C_5  and  C_26
REMARK    5  A    between atoms: C_7  and  C_9
REMARK    6  A    between atoms: C_11  and  N_19
REMARK    7  A    between atoms: C_14  and  C_16
REMARK    8  A    between atoms: C_16  and  S_17
REMARK    9  A    between atoms: N_22  and  C_23
REMARK   10  A    between atoms: C_23  and  C_24
REMARK                            x       y       z     vdW  Elec       q    Type
REMARK                         _______ _______ _______ _____ _____    ______ ____
ROOT
ATOM      9  C   UNL     1      -1.845   0.456  24.521  0.00  0.00    +0.155 C 
ATOM     10  C   UNL     1      -2.227   1.185  24.584  0.00  0.00    +0.053 C 
ATOM     11  C   UNL     1      -1.746   1.756  24.232  0.00  0.00    +0.119 C 
ATOM     12  C   UNL     1      -1.067   1.380  23.952  0.00  0.00    +0.116 C 
ATOM     13  N   UNL     1      -1.128   0.576  24.130  0.00  0.00    -0.270 N 
ATOM     14  C   UNL     1      -0.571  -0.004  23.950  0.00  0.00    +0.237 C 
ATOM     15  O   UNL     1      -0.708  -0.788  24.164  0.00  0.00    -0.274 OA
ENDROOT
BRANCH  11  19
ATOM     19  N   UNL     1      -1.916   2.561  24.171  0.00  0.00    -0.187 NA
ATOM     20  C   UNL     1      -1.655   3.083  24.754  0.00  0.00    +0.340 C 
ATOM     21  O   UNL     1      -1.223   2.800  25.398  0.00  0.00    -0.249 OA
ATOM     22  N   UNL     1      -1.824   3.887  24.693  0.00  0.00    -0.182 NA
BRANCH  22  23
ATOM     23  C   UNL     1      -1.563   4.410  25.276  0.00  0.00    +0.143 C 
BRANCH  23  24
ATOM     24  C   UNL     1      -1.758   5.210  25.230  0.00  0.00    -0.003 C 
ATOM     25  C   UNL     1      -1.207   5.754  24.944  0.00  0.00    -0.003 C 
ENDBRANCH  23  24
ENDBRANCH  22  23
ENDBRANCH  11  19
BRANCH   9   7
ATOM      6  N   UNL     1      -2.920  -0.470  24.685  0.00  0.00    -0.194 NA
ATOM      7  C   UNL     1      -2.129  -0.267  24.799  0.00  0.00    +0.260 C 
ATOM      8  O   UNL     1      -1.622  -0.786  25.193  0.00  0.00    -0.272 OA
BRANCH   6   5
ATOM      5  C   UNL     1      -3.205  -1.193  24.964  0.00  0.00    +0.193 C 
BRANCH   5  26
ATOM     26  C   UNL     1      -3.361  -1.293  25.768  0.00  0.00    +0.031 C 
ATOM     27  C   UNL     1      -2.998  -1.905  26.186  0.00  0.00    +0.002 C 
ATOM     28  C   UNL     1      -3.880  -0.782  26.153  0.00  0.00    +0.002 C 
ENDBRANCH   5  26
BRANCH   5   3
ATOM      3  C   UNL     1      -3.332  -1.816  24.439  0.00  0.00    +0.337 C 
ATOM      4  O   UNL     1      -2.892  -2.511  24.507  0.00  0.00    -0.248 OA
BRANCH   3   2
ATOM      1  C   UNL     1      -4.177  -2.418  23.456  0.00  0.00    +0.256 C 
ATOM      2  O   UNL     1      -3.900  -1.746  23.844  0.00  0.00    -0.443 OA
ENDBRANCH   3   2
ENDBRANCH   5   3
ENDBRANCH   6   5
ENDBRANCH   9   7
BRANCH  14  16
ATOM     16  C   UNL     1       0.125   0.200  23.555  0.00  0.00    +0.143 C 
BRANCH  16  17
ATOM     17  S   UNL     1       0.625  -0.390  23.270  0.00  0.00    -0.130 S 
ATOM     18  C   UNL     1       1.293  -0.188  22.830  0.00  0.00    +0.070 C 
ENDBRANCH  16  17
ENDBRANCH  14  16
TORSDOF 10
ENDMDL
MODEL 5
REMARK VINA RESULT:      -7.2      2.690      4.191
REMARK  Name = 
REMARK  10 active torsions:
REMARK  status: ('A' for Active; 'I' for Inactive)
REMARK    1  A    between atoms: O_2  and  C_3
REMARK    2  A    between atoms: C_3  and  C_5
REMARK    3  A    between atoms: C_5  and  N_6
REMARK    4  A    between atoms: C_5  and  C_26
REMARK    5  A    between atoms: C_7  and  C_9
REMARK    6  A    between atoms: C_11  and  N_19
REMARK    7  A    between atoms: C_14  and  C_16
REMARK    8  A    between atoms: C_16  and  S_17
REMARK    9  A    between atoms: N_22  and  C_23
REMARK   10  A    between atoms: C_23  and  C_24
REMARK                            x       y       z     vdW  Elec       q    Type
REMARK                         _______ _______ _______ _____ _____    ______ ____
ROOT
ATOM      9  C   UNL     1      -1.238   1.197  24.449  0.00  0.00    +0.155 C 
ATOM     10  C   UNL     1      -0.589   1.231  23.940  0.00  0.00    +0.053 C 
ATOM     11  C   UNL     1      -0.416   0.462  23.696  0.00  0.00    +0.119 C 
ATOM     12  C   UNL     1      -0.959  -0.046  24.054  0.00  0.00    +0.116 C 
ATOM     13  N   UNL     1      -1.467   0.408  24.519  0.00  0.00    -0.270 N 
ATOM     14  C   UNL     1      -2.093   0.123  24.974  0.00  0.00    +0.237 C 
ATOM     15  O   UNL     1      -2.555   0.646  25.413  0.00  0.00    -0.274 OA
ENDROOT
BRANCH  11  19
ATOM     19  N   UNL     1       0.192   0.241  23.184  0.00  0.00    -0.187 NA
ATOM     20  C   UNL     1       0.970   0.455  23.351  0.00  0.00    +0.340 C 
ATOM     21  O   UNL     1       1.141   0.891  24.030  0.00  0.00    -0.249 OA
ATOM     22  N   UNL     1       1.578   0.235  22.839  0.00  0.00    -0.182 NA
BRANCH  22  23
ATOM     23  C   UNL     1       2.357   0.449  23.006  0.00  0.00    +0.143 C 
BRANCH  23  24
ATOM     24  C   UNL     1       2.958   0.271  22.470  0.00  0.00    -0.003 C 
ATOM     25  C   UNL     1       3.698   0.627  22.546  0.00  0.00    -0.003 C 
ENDBRANCH  23  24
ENDBRANCH  22  23
ENDBRANCH  11  19
BRANCH   9   7
ATOM      6  N   UNL     1      -1.800   2.510  24.385  0.00  0.00    -0.194 NA
ATOM      7  C   UNL     1      -1.596   1.841  24.822  0.00  0.00    +0.260 C 
ATOM      8  O   UNL     1      -1.749   1.814  25.633  0.00  0.00    -0.272 OA
BRANCH   6   5
ATOM      5  C   UNL     1      -2.157   3.153  24.759  0.00  0.00    +0.193 C 
BRANCH   5  26
ATOM     26  C   UNL     1      -1.699   3.687  25.191  0.00  0.00    +0.031 C 
ATOM     27  C   UNL     1      -1.099   4.112  24.817  0.00  0.00    +0.002 C 
ATOM     28  C   UNL     1      -1.841   3.794  25.996  0.00  0.00    +0.002 C 
ENDBRANCH   5  26
BRANCH   5   3
ATOM      3  C   UNL     1      -2.972   3.263  24.700  0.00  0.00    +0.337 C 
ATOM      4  O   UNL     1      -3.428   3.350  25.382  0.00  0.00    -0.248 OA
BRANCH   3   2
ATOM      1  C   UNL     1      -4.148   3.396  23.899  0.00  0.00    +0.256 C 
ATOM      2  O   UNL     1      -3.333   3.286  23.958  0.00  0.00    -0.443 OA
ENDBRANCH   3   2
ENDBRANCH   5   3
ENDBRANCH   6   5
ENDBRANCH   9   7
BRANCH  14  16
ATOM     16  C   UNL     1      -2.257  -0.686  24.990  0.00  0.00    +0.143 C 
BRANCH  16  17
ATOM     17  S   UNL     1      -2.948  -0.958  25.347  0.00  0.00    -0.130 S 
ATOM     18  C   UNL     1      -3.146  -1.758  25.306  0.00  0.00    +0.070 C 
ENDBRANCH  16  17
ENDBRANCH  14  16
TORSDOF 10
ENDMDL
MODEL 6
REMARK VINA RESULT:      -7.1      1.843      3.197
REMARK  Name = 
REMARK  10 active torsions:
REMARK  status: ('A' for Active; 'I' for Inactive)
REMARK    1  A    between atoms: O_2  and  C_3
REMARK    2  A    between atoms: C_3  and  C_5
REMARK    3  A    between atoms: C_5  and  N_6
REMARK    4  A    between atoms: C_5  and  C_26
REMARK    5  A    between atoms: C_7  and  C_9
REMARK    6  A    between atoms: C_11  and  N_19
REMARK    7  A    between atoms: C_14  and  C_16
REMARK    8  A    between atoms: C_16  and  S_17
REMARK    9  A    between atoms: N_22  and  C_23
REMARK   10  A    between atoms: C_23  and  C_24
REMARK                            x       y       z     vdW  Elec       q    Type
REMARK                         _______ _______ _______ _____ _____    ______ ____
ROOT
ATOM      9  C   UNL     1      -2.234   1.589  24.831  0.00  0.00    +0.155 C 
ATOM     10  C   UNL     1      -2.711   0.959  25.069  0.00  0.00    +0.053 C 
ATOM     11  C   UNL     1      -2.265   0.267  25.015  0.00  0.00    +0.119 C 
ATOM     12  C   UNL     1      -1.512   0.470  24.744  0.00  0.00    +0.116 C 
ATOM     13  N   UNL     1      -1.493   1.287  24.630  0.00  0.00    -0.270 N 
ATOM     14  C   UNL     1      -0.848   1.725  24.363  0.00  0.00    +0.237 C 
ATOM     15  O   UNL     1      -0.911   2.542  24.276  0.00  0.00    -0.274 OA
ENDROOT
BRANCH  11  19
ATOM     19  N   UNL     1      -2.526  -0.493  25.199  0.00  0.00    -0.187 NA
ATOM     20  C   UNL     1      -2.983  -0.916  24.658  0.00  0.00    +0.340 C 
ATOM     21  O   UNL     1      -3.179  -0.578  23.932  0.00  0.00    -0.249 OA
ATOM     22  N   UNL     1      -3.244  -1.676  24.843  0.00  0.00    -0.182 NA
BRANCH  22  23
ATOM     23  C   UNL     1      -3.701  -2.099  24.302  0.00  0.00    +0.143 C 
BRANCH  23  24
ATOM     24  C   UNL     1      -3.775  -2.917  24.374  0.00  0.00    -0.003 C 
ATOM     25  C   UNL     1      -4.269  -3.334  23.862  0.00  0.00    -0.003 C 
ENDBRANCH  23  24
ENDBRANCH  22  23
ENDBRANCH  11  19
BRANCH   9   7
ATOM      6  N   UNL     1      -2.822   2.735  25.451  0.00  0.00    -0.194 NA
ATOM      7  C   UNL     1      -2.459   2.383  24.800  0.00  0.00    +0.260 C 
ATOM      8  O   UNL     1      -2.320   2.824  24.117  0.00  0.00    -0.272 OA
BRANCH   6   5
ATOM      5  C   UNL     1      -3.046   3.528  25.420  0.00  0.00    +0.193 C 
BRANCH   5  26
ATOM     26  C   UNL     1      -2.546   4.111  25.723  0.00  0.00    +0.031 C 
ATOM     27  C   UNL     1      -2.252   4.701  25.225  0.00  0.00    +0.002 C 
ATOM     28  C   UNL     1      -2.340   4.104  26.521  0.00  0.00    +0.002 C 
ENDBRANCH   5  26
BRANCH   5   3
ATOM      3  C   UNL     1      -3.770   3.739  25.086  0.00  0.00    +0.337 C 
ATOM      4  O   UNL     1      -3.794   4.102  24.346  0.00  0.00    -0.248 OA
BRANCH   3   2
ATOM      1  C   UNL     1      -5.194   3.830  25.177  0.00  0.00    +0.256 C 
ATOM      2  O   UNL     1      -4.472   3.587  25.494  0.00  0.00    -0.443 OA
ENDBRANCH   3   2
ENDBRANCH   5   3
ENDBRANCH   6   5
ENDBRANCH   9   7
BRANCH  14  16
ATOM     16  C   UNL     1      -0.138   1.344  24.182  0.00  0.00    +0.143 C 
BRANCH  16  17
ATOM     17  S   UNL     1       0.543   1.788  24.040  0.00  0.00    -0.130 S 
ATOM     18  C   UNL     1       1.229   1.417  23.772  0.00  0.00    +0.070 C 
ENDBRANCH  16  17
ENDBRANCH  14  16
TORSDOF 10
ENDMDL
