MODEL 1
REMARK VINA RESULT:     -14.2      0.000      0.000
REMARK  Name = 
REMARK  5 active torsions:
REMARK  status: ('A' for Active; 'I' for Inactive)
REMARK    1  A    between atoms: O_2  and  C_3
REMARK    2  A    between atoms: C_6  and  S_9
REMARK    3  A    between atoms: S_9  and  N_12
REMARK    4  A    between atoms: N_12  and  C_13
REMARK    5  A    between atoms: N_25  and  C_26
REMARK                            x       y       z     vdW  Elec       q    Type
REMARK                         _______ _______ _______ _____ _____    ______ ____
ROOT
ATOM     13  C   UNL     1      -3.489   1.457  24.871  0.00  0.00    +0.147 A 
ATOM     14  C   UNL     1      -4.291   1.266  24.828  0.00  0.00    +0.024 A 
ATOM     15  C   UNL     1      -4.861   1.839  24.990  0.00  0.00    +0.014 A 
ATOM     16  C   UNL     1      -4.630   2.604  25.194  0.00  0.00    +0.041 A 
ATOM     17  C   UNL     1      -4.986   3.421  25.418  0.00  0.00    +0.058 C 
ATOM     18  C   UNL     1      -5.600   3.747  25.513  0.00  0.00    +0.011 C 
ATOM     19  C   UNL     1      -4.808   3.932  25.554  0.00  0.00    +0.043 C 
ATOM     20  C   UNL     1      -3.916   4.345  25.656  0.00  0.00    +0.097 C 
ATOM     21  N   UNL     1      -3.436   3.686  25.473  0.00  0.00    -0.262 N 
ATOM     22  C   UNL     1      -4.131   3.834  25.521  0.00  0.00    +0.101 C 
ATOM     23  C   UNL     1      -2.749   3.245  25.346  0.00  0.00    +0.323 C 
ATOM     24  O   UNL     1      -2.803   2.450  25.132  0.00  0.00    -0.251 OA
ATOM     25  N   UNL     1      -2.010   3.600  25.434  0.00  0.00    -0.190 NA
ATOM     32  C   UNL     1      -4.427   3.082  25.321  0.00  0.00    +0.110 C 
ATOM     33  N   UNL     1      -3.828   2.796  25.237  0.00  0.00    -0.298 N 
ATOM     34  C   UNL     1      -3.258   2.222  25.075  0.00  0.00    +0.277 A 
ATOM     35  O   UNL     1      -2.436   2.165  25.051  0.00  0.00    -0.266 OA
ENDROOT
BRANCH  25  26
ATOM     26  C   UNL     1      -1.324   3.159  25.307  0.00  0.00    +0.097 C 
ATOM     27  C   UNL     1      -1.000   3.108  24.550  0.00  0.00    +0.022 C 
ATOM     28  C   UNL     1      -0.314   2.668  24.424  0.00  0.00    +0.002 C 
ATOM     29  C   UNL     1       0.049   2.278  25.055  0.00  0.00    +0.000 C 
ATOM     30  C   UNL     1      -0.276   2.329  25.811  0.00  0.00    +0.002 C 
ATOM     31  C   UNL     1      -0.961   2.769  25.938  0.00  0.00    +0.022 C 
ENDBRANCH  25  26
BRANCH  13  12
ATOM     12  N   UNL     1      -2.920   0.883  24.710  0.00  0.00    -0.092 NA
BRANCH  12   9
ATOM      9  S   UNL     1      -3.141   0.092  24.630  0.00  0.00    +0.093 S 
ATOM     10  O   UNL     1      -3.049  -0.016  25.442  0.00  0.00    -0.148 OA
ATOM     11  O   UNL     1      -3.234   0.201  23.817  0.00  0.00    -0.148 OA
BRANCH   9   6
ATOM      3  C   UNL     1      -3.805  -2.280  24.392  0.00  0.00    +0.139 A 
ATOM      4  C   UNL     1      -3.354  -2.041  25.040  0.00  0.00    +0.038 A 
ATOM      5  C   UNL     1      -3.132  -1.250  25.119  0.00  0.00    +0.023 A 
ATOM      6  C   UNL     1      -3.363  -0.699  24.550  0.00  0.00    +0.127 A 
ATOM      7  C   UNL     1      -3.815  -0.938  23.903  0.00  0.00    +0.023 A 
ATOM      8  C   UNL     1      -4.036  -1.728  23.824  0.00  0.00    +0.038 A 
BRANCH   3   2
ATOM      1  C   UNL     1      -3.454  -3.647  24.170  0.00  0.00    +0.252 C 
ATOM      2  O   UNL     1      -4.026  -3.071  24.313  0.00  0.00    -0.471 OA
ENDBRANCH   3   2
ENDBRANCH   9   6
ENDBRANCH  12   9
ENDBRANCH  13  12
TORSDOF 5
ENDMDL
MODEL 2
REMARK VINA RESULT:     -13.5      0.741      2.808
REMARK  Name = 
REMARK  5 active torsions:
REMARK  status: ('A' for Active; 'I' for Inactive)
REMARK    1  A    between atoms: O_2  and  C_3
REMARK    2  A    between atoms: C_6  and  S_9
REMARK    3  A    between atoms: S_9  and  N_12
REMARK    4  A    between atoms: N_12  and  C_13
REMARK    5  A    between atoms: N_25  and  C_26
REMARK                            x       y       z     vdW  Elec       q    Type
REMARK                         _______ _______ _______ _____ _____    ______ ____
ROOT
ATOM     13  C   UNL     1      -2.494   1.231  24.981  0.00  0.00    +0.147 A 
ATOM     14  C   UNL     1      -1.870   0.692  24.959  0.00  0.00    +0.024 A 
ATOM     15  C   UNL     1      -1.099   0.947  25.104  0.00  0.00    +0.014 A 
ATOM     16  C   UNL     1      -0.953   1.741  25.273  0.00  0.00    +0.041 A 
ATOM     17  C   UNL     1      -0.261   2.313  25.468  0.00  0.00    +0.058 C 
ATOM     18  C   UNL     1       0.435   2.324  25.559  0.00  0.00    +0.011 C 
ATOM     19  C   UNL     1      -0.183   2.854  25.580  0.00  0.00    +0.043 C 
ATOM     20  C   UNL     1      -0.787   3.633  25.651  0.00  0.00    +0.097 C 
ATOM     21  N   UNL     1      -1.516   3.260  25.488  0.00  0.00    -0.262 N 
ATOM     22  C   UNL     1      -0.831   3.076  25.540  0.00  0.00    +0.101 C 
ATOM     23  C   UNL     1      -2.329   3.178  25.369  0.00  0.00    +0.323 C 
ATOM     24  O   UNL     1      -2.647   2.438  25.189  0.00  0.00    -0.251 OA
ATOM     25  N   UNL     1      -2.823   3.835  25.431  0.00  0.00    -0.190 NA
ATOM     32  C   UNL     1      -0.913   2.264  25.376  0.00  0.00    +0.110 C 
ATOM     33  N   UNL     1      -1.577   2.280  25.295  0.00  0.00    -0.298 N 
ATOM     34  C   UNL     1      -2.348   2.025  25.149  0.00  0.00    +0.277 A 
ATOM     35  O   UNL     1      -3.105   2.350  25.115  0.00  0.00    -0.266 OA
ENDROOT
BRANCH  25  26
ATOM     26  C   UNL     1      -3.636   3.753  25.312  0.00  0.00    +0.097 C 
ATOM     27  C   UNL     1      -3.950   3.815  24.552  0.00  0.00    +0.022 C 
ATOM     28  C   UNL     1      -4.763   3.733  24.434  0.00  0.00    +0.002 C 
ATOM     29  C   UNL     1      -5.261   3.588  25.076  0.00  0.00    +0.000 C 
ATOM     30  C   UNL     1      -4.946   3.527  25.836  0.00  0.00    +0.002 C 
ATOM     31  C   UNL     1      -4.134   3.609  25.955  0.00  0.00    +0.022 C 
ENDBRANCH  25  26
BRANCH  13  12
ATOM     12  N   UNL     1      -3.265   0.975  24.835  0.00  0.00    -0.092 NA
BRANCH  12   9
ATOM      9  S   UNL     1      -3.418   0.173  24.719  0.00  0.00    +0.093 S 
ATOM     10  O   UNL     1      -3.527   0.076  25.530  0.00  0.00    -0.148 OA
ATOM     11  O   UNL     1      -3.310   0.270  23.907  0.00  0.00    -0.148 OA
BRANCH   9   6
ATOM      3  C   UNL     1      -3.880  -2.233  24.369  0.00  0.00    +0.139 A 
ATOM      4  C   UNL     1      -4.052  -1.690  23.773  0.00  0.00    +0.038 A 
ATOM      5  C   UNL     1      -3.899  -0.888  23.890  0.00  0.00    +0.023 A 
ATOM      6  C   UNL     1      -3.572  -0.630  24.602  0.00  0.00    +0.127 A 
ATOM      7  C   UNL     1      -3.400  -1.173  25.198  0.00  0.00    +0.023 A 
ATOM      8  C   UNL     1      -3.554  -1.975  25.082  0.00  0.00    +0.038 A 
BRANCH   3   2
ATOM      1  C   UNL     1      -3.418  -3.583  24.289  0.00  0.00    +0.252 C 
ATOM      2  O   UNL     1      -4.034  -3.035  24.252  0.00  0.00    -0.471 OA
ENDBRANCH   3   2
ENDBRANCH   9   6
ENDBRANCH  12   9
ENDBRANCH  13  12
TORSDOF 5
ENDMDL
MODEL 3
REMARK VINA RESULT:     -13.4      1.462      4.402
REMARK  Name = 
REMARK  5 active torsions:
REMARK  status: ('A' for Active; 'I' for Inactive)
REMARK    1  A    between atoms: O_2  and  C_3
REMARK    2  A    between atoms: C_6  and  S_9
REMARK    3  A    between atoms: S_9  and  N_12
REMARK    4  A    between atoms: N_12  and  C_13
REMARK    5  A    between atoms: N_25  and  C_26
REMARK                            x       y       z     vdW  Elec       q    Type
REMARK                         _______ _______ _______ _____ _____    ______ ____
ROOT
ATOM     13  C   UNL     1      -3.334   0.286  24.429  0.00  0.00    +0.147 A 
ATOM     14  C   UNL     1      -4.105  -0.007  24.437  0.00  0.00    +0.024 A 
ATOM     15  C   UNL     1      -4.238  -0.820  24.470  0.00  0.00    +0.014 A 
ATOM     16  C   UNL     1      -3.599  -1.341  24.497  0.00  0.00    +0.041 A 
ATOM     17  C   UNL     1      -3.412  -2.240  24.536  0.00  0.00    +0.058 C 
ATOM     18  C   UNL     1      -3.727  -2.867  24.561  0.00  0.00    +0.011 C 
ATOM     19  C   UNL     1      -2.966  -2.575  24.554  0.00  0.00    +0.043 C 
ATOM     20  C   UNL     1      -1.991  -2.419  24.553  0.00  0.00    +0.097 C 
ATOM     21  N   UNL     1      -1.982  -1.584  24.518  0.00  0.00    -0.262 N 
ATOM     22  C   UNL     1      -2.467  -2.106  24.537  0.00  0.00    +0.101 C 
ATOM     23  C   UNL     1      -1.676  -0.818  24.487  0.00  0.00    +0.323 C 
ATOM     24  O   UNL     1      -2.187  -0.171  24.456  0.00  0.00    -0.251 OA
ATOM     25  N   UNL     1      -0.860  -0.700  24.487  0.00  0.00    -0.190 NA
ATOM     32  C   UNL     1      -3.152  -1.633  24.512  0.00  0.00    +0.110 C 
ATOM     33  N   UNL     1      -2.827  -1.048  24.489  0.00  0.00    -0.298 N 
ATOM     34  C   UNL     1      -2.695  -0.235  24.455  0.00  0.00    +0.277 A 
ATOM     35  O   UNL     1      -2.052   0.281  24.437  0.00  0.00    -0.266 OA
ENDROOT
BRANCH  25  26
ATOM     26  C   UNL     1      -0.554   0.066  24.456  0.00  0.00    +0.097 C 
ATOM     27  C   UNL     1      -0.436   0.491  25.154  0.00  0.00    +0.022 C 
ATOM     28  C   UNL     1      -0.130   1.257  25.122  0.00  0.00    +0.002 C 
ATOM     29  C   UNL     1       0.058   1.597  24.394  0.00  0.00    +0.000 C 
ATOM     30  C   UNL     1      -0.061   1.172  23.698  0.00  0.00    +0.002 C 
ATOM     31  C   UNL     1      -0.366   0.406  23.728  0.00  0.00    +0.022 C 
ENDBRANCH  25  26
BRANCH  13  12
ATOM     12  N   UNL     1      -3.202   1.099  24.395  0.00  0.00    -0.092 NA
BRANCH  12   9
ATOM      9  S   UNL     1      -3.782   1.623  24.659  0.00  0.00    +0.093 S 
ATOM     10  O   UNL     1      -3.495   1.553  25.429  0.00  0.00    -0.148 OA
ATOM     11  O   UNL     1      -4.070   1.692  23.889  0.00  0.00    -0.148 OA
BRANCH   9   6
ATOM      3  C   UNL     1      -5.522   3.194  25.454  0.00  0.00    +0.139 A 
ATOM      4  C   UNL     1      -4.724   3.375  25.558  0.00  0.00    +0.038 A 
ATOM      5  C   UNL     1      -4.144   2.851  25.294  0.00  0.00    +0.023 A 
ATOM      6  C   UNL     1      -4.363   2.147  24.924  0.00  0.00    +0.127 A 
ATOM      7  C   UNL     1      -5.161   1.966  24.819  0.00  0.00    +0.023 A 
ATOM      8  C   UNL     1      -5.740   2.490  25.084  0.00  0.00    +0.038 A 
BRANCH   3   2
ATOM      1  C   UNL     1      -5.989   4.531  25.640  0.00  0.00    +0.252 C 
ATOM      2  O   UNL     1      -6.101   3.718  25.718  0.00  0.00    -0.471 OA
ENDBRANCH   3   2
ENDBRANCH   9   6
ENDBRANCH  12   9
ENDBRANCH  13  12
TORSDOF 5
ENDMDL
MODEL 4
REMARK VINA RESULT:     -13.2      1.888      3.960
REMARK  Name = 
REMARK  5 active torsions:
REMARK  status: ('A' for Active; 'I' for Inactive)
REMARK    1  A    between atoms: O_2  and  C_3
REMARK    2  A    between atoms: C_6  and  S_9
REMARK    3  A    between atoms: S_9  and  N_12
REMARK    4  A    between atoms: N_12  and  C_13
REMARK    5  A    between atoms: N_25  and  C_26
REMARK                            x       y       z     vdW  Elec       q    Type
REMARK                         _______ _______ _______ _____ _____    ______ ____
ROOT
ATOM     13  C   UNL     1      -2.051   1.170  24.350  0.00  0.00    +0.147 A 
ATOM     14  C   UNL     1      -1.722   1.916  24.222  0.00  0.00    +0.024 A 
ATOM     15  C   UNL     1      -2.203   2.586  24.223  0.00  0.00    +0.014 A 
ATOM     16  C   UNL     1      -3.014   2.510  24.352  0.00  0.00    +0.041 A 
ATOM     17  C   UNL     1      -3.777   3.018  24.412  0.00  0.00    +0.058 C 
ATOM     18  C   UNL     1      -4.001   3.683  24.375  0.00  0.00    +0.011 C 
ATOM     19  C   UNL     1      -4.323   2.945  24.501  0.00  0.00    +0.043 C 
ATOM     20  C   UNL     1      -4.891   2.155  24.669  0.00  0.00    +0.097 C 
ATOM     21  N   UNL     1      -4.309   1.556  24.645  0.00  0.00    -0.262 N 
ATOM     22  C   UNL     1      -4.340   2.264  24.575  0.00  0.00    +0.101 C 
ATOM     23  C   UNL     1      -3.982   0.799  24.676  0.00  0.00    +0.323 C 
ATOM     24  O   UNL     1      -3.170   0.695  24.566  0.00  0.00    -0.251 OA
ATOM     25  N   UNL     1      -4.466   0.146  24.817  0.00  0.00    -0.190 NA
ATOM     32  C   UNL     1      -3.531   2.406  24.440  0.00  0.00    +0.110 C 
ATOM     33  N   UNL     1      -3.344   1.765  24.480  0.00  0.00    -0.298 N 
ATOM     34  C   UNL     1      -2.863   1.095  24.479  0.00  0.00    +0.277 A 
ATOM     35  O   UNL     1      -2.946   0.280  24.577  0.00  0.00    -0.266 OA
ENDROOT
BRANCH  25  26
ATOM     26  C   UNL     1      -4.138  -0.611  24.848  0.00  0.00    +0.097 C 
ATOM     27  C   UNL     1      -3.829  -0.898  25.557  0.00  0.00    +0.022 C 
ATOM     28  C   UNL     1      -3.502  -1.655  25.588  0.00  0.00    +0.002 C 
ATOM     29  C   UNL     1      -3.484  -2.125  24.909  0.00  0.00    +0.000 C 
ATOM     30  C   UNL     1      -3.794  -1.837  24.201  0.00  0.00    +0.002 C 
ATOM     31  C   UNL     1      -4.121  -1.081  24.170  0.00  0.00    +0.022 C 
ENDBRANCH  25  26
BRANCH  13  12
ATOM     12  N   UNL     1      -1.570   0.501  24.349  0.00  0.00    -0.092 NA
BRANCH  12   9
ATOM      9  S   UNL     1      -0.792   0.553  24.080  0.00  0.00    +0.093 S 
ATOM     10  O   UNL     1      -1.055   0.475  23.302  0.00  0.00    -0.148 OA
ATOM     11  O   UNL     1      -0.528   0.631  24.858  0.00  0.00    -0.148 OA
BRANCH   9   6
ATOM      3  C   UNL     1       1.543   0.708  23.272  0.00  0.00    +0.139 A 
ATOM      4  C   UNL     1       1.055   0.096  23.010  0.00  0.00    +0.038 A 
ATOM      5  C   UNL     1       0.278   0.045  23.279  0.00  0.00    +0.023 A 
ATOM      6  C   UNL     1      -0.013   0.605  23.811  0.00  0.00    +0.127 A 
ATOM      7  C   UNL     1       0.475   1.217  24.073  0.00  0.00    +0.023 A 
ATOM      8  C   UNL     1       1.252   1.268  23.804  0.00  0.00    +0.038 A 
BRANCH   3   2
ATOM      1  C   UNL     1       2.647   0.141  22.565  0.00  0.00    +0.252 C 
ATOM      2  O   UNL     1       2.321   0.759  23.003  0.00  0.00    -0.471 OA
ENDBRANCH   3   2
ENDBRANCH   9   6
ENDBRANCH  12   9
ENDBRANCH  13  12
TORSDOF 5
ENDMDL
MODEL 5
REMARK VINA RESULT:     -13.1      1.685      3.129
REMARK  Name = 
REMARK  5 active torsions:
REMARK  status: ('A' for Active; 'I' for Inactive)
REMARK    1  A    between atoms: O_2  and  C_3
REMARK    2  A    between atoms: C_6  and  S_9
REMARK    3  A    between atoms: S_9  and  N_12
REMARK    4  A    between atoms: N_12  and  C_13
REMARK    5  A    between atoms: N_25  and  C_26
REMARK                            x       y       z     vdW  Elec       q    Type
REMARK                         _______ _______ _______ _____ _____    ______ ____
ROOT
ATOM     13  C   UNL     1      -1.933   2.199  24.942  0.00  0.00    +0.147 A 
ATOM     14  C   UNL     1      -1.109   2.226  24.900  0.00  0.00    +0.024 A 
ATOM     15  C   UNL     1      -0.718   2.952  24.925  0.00  0.00    +0.014 A 
ATOM     16  C   UNL     1      -1.151   3.651  24.992  0.00  0.00    +0.041 A 
ATOM     17  C   UNL     1      -1.034   4.561  25.043  0.00  0.00    +0.058 C 
ATOM     18  C   UNL     1      -0.532   5.052  25.048  0.00  0.00    +0.011 C 
ATOM     19  C   UNL     1      -1.345   5.022  25.089  0.00  0.00    +0.043 C 
ATOM     20  C   UNL     1      -2.317   5.190  25.151  0.00  0.00    +0.097 C 
ATOM     21  N   UNL     1      -2.598   4.404  25.116  0.00  0.00    -0.262 N 
ATOM     22  C   UNL     1      -1.970   4.740  25.104  0.00  0.00    +0.101 C 
ATOM     23  C   UNL     1      -3.137   3.779  25.105  0.00  0.00    +0.323 C 
ATOM     24  O   UNL     1      -2.866   3.002  25.042  0.00  0.00    -0.251 OA
ATOM     25  N   UNL     1      -3.945   3.931  25.158  0.00  0.00    -0.190 NA
ATOM     32  C   UNL     1      -1.478   4.072  25.036  0.00  0.00    +0.110 C 
ATOM     33  N   UNL     1      -1.975   3.624  25.034  0.00  0.00    -0.298 N 
ATOM     34  C   UNL     1      -2.366   2.898  25.009  0.00  0.00    +0.277 A 
ATOM     35  O   UNL     1      -3.141   2.618  25.032  0.00  0.00    -0.266 OA
ENDROOT
BRANCH  25  26
ATOM     26  C   UNL     1      -4.484   3.306  25.147  0.00  0.00    +0.097 C 
ATOM     27  C   UNL     1      -4.735   2.990  24.426  0.00  0.00    +0.022 C 
ATOM     28  C   UNL     1      -5.273   2.365  24.416  0.00  0.00    +0.002 C 
ATOM     29  C   UNL     1      -5.562   2.056  25.126  0.00  0.00    +0.000 C 
ATOM     30  C   UNL     1      -5.311   2.373  25.845  0.00  0.00    +0.002 C 
ATOM     31  C   UNL     1      -4.773   2.997  25.856  0.00  0.00    +0.022 C 
ENDBRANCH  25  26
BRANCH  13  12
ATOM     12  N   UNL     1      -2.323   1.473  24.917  0.00  0.00    -0.092 NA
BRANCH  12   9
ATOM      9  S   UNL     1      -1.893   0.771  24.977  0.00  0.00    +0.093 S 
ATOM     10  O   UNL     1      -1.853   0.726  24.154  0.00  0.00    -0.148 OA
ATOM     11  O   UNL     1      -1.934   0.817  25.799  0.00  0.00    -0.148 OA
BRANCH   9   6
ATOM      3  C   UNL     1      -0.604  -1.334  25.155  0.00  0.00    +0.139 A 
ATOM      4  C   UNL     1      -1.024  -1.051  25.806  0.00  0.00    +0.038 A 
ATOM      5  C   UNL     1      -1.454  -0.350  25.746  0.00  0.00    +0.023 A 
ATOM      6  C   UNL     1      -1.463   0.069  25.036  0.00  0.00    +0.127 A 
ATOM      7  C   UNL     1      -1.044  -0.214  24.384  0.00  0.00    +0.023 A 
ATOM      8  C   UNL     1      -0.614  -0.915  24.444  0.00  0.00    +0.038 A 
BRANCH   3   2
ATOM      1  C   UNL     1      -0.547  -2.759  25.078  0.00  0.00    +0.252 C 
ATOM      2  O   UNL     1      -0.175  -2.036  25.214  0.00  0.00    -0.471 OA
ENDBRANCH   3   2
ENDBRANCH   9   6
ENDBRANCH  12   9
ENDBRANCH  13  12
TORSDOF 5
ENDMDL
MODEL 6
REMARK VINA RESULT:     -13.1      1.516      1.927
REMARK  Name = 
REMARK  5 active torsions:
REMARK  status: ('A' for Active; 'I' for Inactive)
REMARK    1  A    between atoms: O_2  and  C_3
REMARK    2  A    between atoms: C_6  and  S_9
REMARK    3  A    between atoms: S_9  and  N_12
REMARK    4  A    between atoms: N_12  and  C_13
REMARK    5  A    between atoms: N_25  and  C_26
REMARK                            x       y       z     vdW  Elec       q    Type
REMARK                         _______ _______ _______ _____ _____    ______ ____
ROOT
ATOM     13  C   UNL     1      -3.259   1.341  24.847  0.00  0.00    +0.147 A 
ATOM     14  C   UNL     1      -3.740   0.676  24.762  0.00  0.00    +0.024 A 
ATOM     15  C   UNL     1      -4.558   0.744  24.846  0.00  0.00    +0.014 A 
ATOM     16  C   UNL     1      -4.894   1.478  25.016  0.00  0.00    +0.041 A 
ATOM     17  C   UNL     1      -5.712   1.871  25.163  0.00  0.00    +0.058 C 
ATOM     18  C   UNL     1      -6.397   1.722  25.194  0.00  0.00    +0.011 C 
ATOM     19  C   UNL     1      -5.919   2.376  25.277  0.00  0.00    +0.043 C 
ATOM     20  C   UNL     1      -5.517   3.268  25.413  0.00  0.00    +0.097 C 
ATOM     21  N   UNL     1      -4.711   3.077  25.306  0.00  0.00    -0.262 N 
ATOM     22  C   UNL     1      -5.339   2.740  25.296  0.00  0.00    +0.101 C 
ATOM     23  C   UNL     1      -3.894   3.185  25.256  0.00  0.00    +0.323 C 
ATOM     24  O   UNL     1      -3.403   2.543  25.090  0.00  0.00    -0.251 OA
ATOM     25  N   UNL     1      -3.570   3.934  25.371  0.00  0.00    -0.190 NA
ATOM     32  C   UNL     1      -5.061   1.974  25.126  0.00  0.00    +0.110 C 
ATOM     33  N   UNL     1      -4.413   2.143  25.101  0.00  0.00    -0.298 N 
ATOM     34  C   UNL     1      -3.596   2.074  25.017  0.00  0.00    +0.277 A 
ATOM     35  O   UNL     1      -2.933   2.563  25.053  0.00  0.00    -0.266 OA
ENDROOT
BRANCH  25  26
ATOM     26  C   UNL     1      -2.753   4.042  25.320  0.00  0.00    +0.097 C 
ATOM     27  C   UNL     1      -2.283   3.960  25.994  0.00  0.00    +0.022 C 
ATOM     28  C   UNL     1      -1.467   4.068  25.943  0.00  0.00    +0.002 C 
ATOM     29  C   UNL     1      -1.120   4.258  25.218  0.00  0.00    +0.000 C 
ATOM     30  C   UNL     1      -1.590   4.339  24.545  0.00  0.00    +0.002 C 
ATOM     31  C   UNL     1      -2.406   4.231  24.595  0.00  0.00    +0.022 C 
ENDBRANCH  25  26
BRANCH  13  12
ATOM     12  N   UNL     1      -2.442   1.271  24.762  0.00  0.00    -0.092 NA
BRANCH  12   9
ATOM      9  S   UNL     1      -2.080   0.533  24.835  0.00  0.00    +0.093 S 
ATOM     10  O   UNL     1      -2.049   0.629  25.653  0.00  0.00    -0.148 OA
ATOM     11  O   UNL     1      -2.111   0.438  24.016  0.00  0.00    -0.148 OA
BRANCH   9   6
ATOM      3  C   UNL     1      -0.996  -1.680  25.055  0.00  0.00    +0.139 A 
ATOM      4  C   UNL     1      -0.980  -1.149  25.686  0.00  0.00    +0.038 A 
ATOM      5  C   UNL     1      -1.341  -0.411  25.612  0.00  0.00    +0.023 A 
ATOM      6  C   UNL     1      -1.719  -0.205  24.908  0.00  0.00    +0.127 A 
ATOM      7  C   UNL     1      -1.735  -0.737  24.277  0.00  0.00    +0.023 A 
ATOM      8  C   UNL     1      -1.373  -1.474  24.351  0.00  0.00    +0.038 A 
BRANCH   3   2
ATOM      1  C   UNL     1       0.140  -2.471  25.410  0.00  0.00    +0.252 C 
ATOM      2  O   UNL     1      -0.634  -2.418  25.129  0.00  0.00    -0.471 OA
ENDBRANCH   3   2
ENDBRANCH   9   6
ENDBRANCH  12   9
ENDBRANCH  13  12
TORSDOF 5
ENDMDL
