MODEL 1
REMARK VINA RESULT:      -9.0      0.000      0.000
REMARK  Name = 
REMARK  7 active torsions:
REMARK  status: ('A' for Active; 'I' for Inactive)
REMARK    1  A    between atoms: C_4  and  C_27
REMARK    2  A    between atoms: C_6  and  C_7
REMARK    3  A    between atoms: C_14  and  C_15
REMARK    4  A    between atoms: C_15  and  N_16
REMARK    5  A    between atoms: N_16  and  S_17
REMARK    6  A    between atoms: S_17  and  C_20
REMARK    7  A    between atoms: C_20  and  C_21
REMARK                            x       y       z     vdW  Elec       q    Type
REMARK                         _______ _______ _______ _____ _____    ______ ____
ROOT
ATOM      7  C   UNL     1      -1.312   1.300  24.129  0.00  0.00    +0.056 C 
ATOM      8  C   UNL     1      -0.974   1.712  23.562  0.00  0.00    +0.078 C 
ATOM      9  N   UNL     1      -0.714   0.987  23.860  0.00  0.00    -0.272 NA
ATOM     10  C   UNL     1      -1.387   0.703  24.612  0.00  0.00    +0.072 C 
ATOM     11  C   UNL     1      -1.580   0.279  25.070  0.00  0.00    +0.018 C 
ATOM     12  C   UNL     1      -1.051   0.590  24.417  0.00  0.00    +0.010 C 
ATOM     13  C   UNL     1      -0.362   0.088  24.207  0.00  0.00    +0.018 C 
ATOM     14  C   UNL     1      -0.000   0.461  23.647  0.00  0.00    +0.077 C 
ENDROOT
BRANCH   7   6
ATOM      1  C   UNL     1      -1.389   2.702  25.250  0.00  0.00    +0.153 C 
ATOM      2  N   UNL     1      -2.031   2.259  24.983  0.00  0.00    -0.253 N 
ATOM      3  N   UNL     1      -2.822   2.382  25.183  0.00  0.00    -0.169 NA
ATOM      4  C   UNL     1      -3.276   1.814  24.793  0.00  0.00    +0.108 A 
ATOM      5  C   UNL     1      -2.766   1.340  24.351  0.00  0.00    +0.036 A 
ATOM      6  C   UNL     1      -1.997   1.615  24.468  0.00  0.00    +0.058 A 
BRANCH   4  27
ATOM     27  C   UNL     1      -4.096   1.735  24.837  0.00  0.00    +0.049 A 
ATOM     28  C   UNL     1      -4.508   1.045  25.023  0.00  0.00    +0.009 A 
ATOM     29  C   UNL     1      -5.314   1.216  25.004  0.00  0.00    +0.008 A 
ATOM     30  C   UNL     1      -5.401   2.012  24.806  0.00  0.00    +0.035 A 
ATOM     31  S   UNL     1      -4.648   2.334  24.703  0.00  0.00    -0.085 S 
ENDBRANCH   4  27
ENDBRANCH   7   6
BRANCH  14  15
ATOM     15  C   UNL     1       0.653   0.414  23.145  0.00  0.00    +0.131 C 
BRANCH  15  16
ATOM     16  N   UNL     1       1.402   0.265  23.456  0.00  0.00    -0.080 NA
BRANCH  16  17
ATOM     17  S   UNL     1       2.062   0.270  22.960  0.00  0.00    +0.062 S 
ATOM     18  O   UNL     1       2.230   1.043  23.190  0.00  0.00    -0.156 OA
ATOM     19  O   UNL     1       1.893  -0.505  22.730  0.00  0.00    -0.156 OA
BRANCH  17  20
ATOM     20  C   UNL     1       2.721   0.274  22.464  0.00  0.00    +0.197 C 
BRANCH  20  21
ATOM     21  C   UNL     1       3.479   0.221  22.785  0.00  0.00    +0.003 A 
ATOM     22  C   UNL     1       3.741  -0.489  23.113  0.00  0.00    -0.003 A 
ATOM     23  C   UNL     1       4.499  -0.541  23.434  0.00  0.00    -0.000 A 
ATOM     24  C   UNL     1       4.996   0.118  23.427  0.00  0.00    -0.000 A 
ATOM     25  C   UNL     1       4.734   0.828  23.099  0.00  0.00    -0.000 A 
ATOM     26  C   UNL     1       3.976   0.880  22.778  0.00  0.00    -0.003 A 
ENDBRANCH  20  21
ENDBRANCH  17  20
ENDBRANCH  16  17
ENDBRANCH  15  16
ENDBRANCH  14  15
TORSDOF 7
ENDMDL
MODEL 2
REMARK VINA RESULT:      -8.8      3.133      4.818
REMARK  Name = 
REMARK  7 active torsions:
REMARK  status: ('A' for Active; 'I' for Inactive)
REMARK    1  A    between atoms: C_4  and  C_27
REMARK    2  A    between atoms: C_6  and  C_7
REMARK    3  A    between atoms: C_14  and  C_15
REMARK    4  A    between atoms: C_15  and  N_16
REMARK    5  A    between atoms: N_16  and  S_17
REMARK    6  A    between atoms: S_17  and  C_20
REMARK    7  A    between atoms: C_20  and  C_21
REMARK                            x       y       z     vdW  Elec       q    Type
REMARK                         _______ _______ _______ _____ _____    ______ ____
ROOT
ATOM      7  C   UNL     1      -0.669   1.446  25.424  0.00  0.00    +0.056 C 
ATOM      8  C   UNL     1      -1.016   1.004  25.964  0.00  0.00    +0.078 C 
ATOM      9  N   UNL     1      -0.669   0.737  25.264  0.00  0.00    -0.272 NA
ATOM     10  C   UNL     1      -0.295   1.578  24.762  0.00  0.00    +0.072 C 
ATOM     11  C   UNL     1       0.014   1.844  24.252  0.00  0.00    +0.018 C 
ATOM     12  C   UNL     1      -0.332   1.176  24.740  0.00  0.00    +0.010 C 
ATOM     13  C   UNL     1      -0.248   0.370  24.403  0.00  0.00    +0.018 C 
ATOM     14  C   UNL     1      -0.579  -0.099  24.908  0.00  0.00    +0.077 C 
ENDROOT
BRANCH   7   6
ATOM      1  C   UNL     1       0.382   2.284  26.615  0.00  0.00    +0.153 C 
ATOM      2  N   UNL     1      -0.161   2.644  26.109  0.00  0.00    -0.253 N 
ATOM      3  N   UNL     1      -0.316   3.453  26.061  0.00  0.00    -0.169 NA
ATOM      4  C   UNL     1      -0.895   3.569  25.484  0.00  0.00    +0.108 A 
ATOM      5  C   UNL     1      -1.098   2.831  25.176  0.00  0.00    +0.036 A 
ATOM      6  C   UNL     1      -0.644   2.260  25.562  0.00  0.00    +0.058 A 
BRANCH   4  27
ATOM     27  C   UNL     1      -1.215   4.294  25.257  0.00  0.00    +0.049 A 
ATOM     28  C   UNL     1      -0.804   4.915  24.902  0.00  0.00    +0.009 A 
ATOM     29  C   UNL     1      -1.337   5.531  24.770  0.00  0.00    +0.008 A 
ATOM     30  C   UNL     1      -2.077   5.290  25.044  0.00  0.00    +0.035 A 
ATOM     31  S   UNL     1      -2.002   4.525  25.344  0.00  0.00    -0.085 S 
ENDBRANCH   4  27
ENDBRANCH   7   6
BRANCH  14  15
ATOM     15  C   UNL     1      -0.752  -0.892  25.048  0.00  0.00    +0.131 C 
BRANCH  15  16
ATOM     16  N   UNL     1      -0.991  -1.379  24.426  0.00  0.00    -0.080 NA
BRANCH  16  17
ATOM     17  S   UNL     1      -1.573  -1.950  24.549  0.00  0.00    +0.062 S 
ATOM     18  O   UNL     1      -1.443  -1.909  25.362  0.00  0.00    -0.156 OA
ATOM     19  O   UNL     1      -1.704  -1.991  23.736  0.00  0.00    -0.156 OA
BRANCH  17  20
ATOM     20  C   UNL     1      -2.156  -2.521  24.672  0.00  0.00    +0.197 C 
BRANCH  20  21
ATOM     21  C   UNL     1      -2.941  -2.358  24.478  0.00  0.00    +0.003 A 
ATOM     22  C   UNL     1      -3.319  -2.794  23.888  0.00  0.00    -0.003 A 
ATOM     23  C   UNL     1      -4.104  -2.630  23.694  0.00  0.00    -0.000 A 
ATOM     24  C   UNL     1      -4.511  -2.031  24.089  0.00  0.00    -0.000 A 
ATOM     25  C   UNL     1      -4.133  -1.595  24.678  0.00  0.00    -0.000 A 
ATOM     26  C   UNL     1      -3.348  -1.758  24.872  0.00  0.00    -0.003 A 
ENDBRANCH  20  21
ENDBRANCH  17  20
ENDBRANCH  16  17
ENDBRANCH  15  16
ENDBRANCH  14  15
TORSDOF 7
ENDMDL
MODEL 3
REMARK VINA RESULT:      -8.6      4.212      5.166
REMARK  Name = 
REMARK  7 active torsions:
REMARK  status: ('A' for Active; 'I' for Inactive)
REMARK    1  A    between atoms: C_4  and  C_27
REMARK    2  A    between atoms: C_6  and  C_7
REMARK    3  A    between atoms: C_14  and  C_15
REMARK    4  A    between atoms: C_15  and  N_16
REMARK    5  A    between atoms: N_16  and  S_17
REMARK    6  A    between atoms: S_17  and  C_20
REMARK    7  A    between atoms: C_20  and  C_21
REMARK                            x       y       z     vdW  Elec       q    Type
REMARK                         _______ _______ _______ _____ _____    ______ ____
ROOT
ATOM      7  C   UNL     1      -3.562   2.306  25.024  0.00  0.00    +0.056 C 
ATOM      8  C   UNL     1      -3.562   1.790  25.607  0.00  0.00    +0.078 C 
ATOM      9  N   UNL     1      -3.852   1.664  24.844  0.00  0.00    -0.272 NA
ATOM     10  C   UNL     1      -3.704   2.551  24.306  0.00  0.00    +0.072 C 
ATOM     11  C   UNL     1      -3.757   2.895  23.753  0.00  0.00    +0.018 C 
ATOM     12  C   UNL     1      -3.849   2.174  24.278  0.00  0.00    +0.010 C 
ATOM     13  C   UNL     1      -4.221   1.471  23.907  0.00  0.00    +0.018 C 
ATOM     14  C   UNL     1      -4.240   0.937  24.452  0.00  0.00    +0.077 C 
ENDROOT
BRANCH   7   6
ATOM      1  C   UNL     1      -4.357   3.623  25.951  0.00  0.00    +0.153 C 
ATOM      2  N   UNL     1      -3.609   3.656  25.605  0.00  0.00    -0.253 N 
ATOM      3  N   UNL     1      -3.094   4.301  25.623  0.00  0.00    -0.169 NA
ATOM      4  C   UNL     1      -2.412   4.095  25.209  0.00  0.00    +0.108 A 
ATOM      5  C   UNL     1      -2.504   3.323  24.935  0.00  0.00    +0.036 A 
ATOM      6  C   UNL     1      -3.244   3.052  25.179  0.00  0.00    +0.058 A 
BRANCH   4  27
ATOM     27  C   UNL     1      -1.753   4.577  25.091  0.00  0.00    +0.049 A 
ATOM     28  C   UNL     1      -1.758   5.399  25.027  0.00  0.00    +0.009 A 
ATOM     29  C   UNL     1      -0.981   5.651  24.913  0.00  0.00    +0.008 A 
ATOM     30  C   UNL     1      -0.495   4.984  24.906  0.00  0.00    +0.035 A 
ATOM     31  S   UNL     1      -0.972   4.320  25.016  0.00  0.00    -0.085 S 
ENDBRANCH   4  27
ENDBRANCH   7   6
BRANCH  14  15
ATOM     15  C   UNL     1      -4.473   0.160  24.599  0.00  0.00    +0.131 C 
BRANCH  15  16
ATOM     16  N   UNL     1      -4.334  -0.427  24.036  0.00  0.00    -0.080 NA
BRANCH  16  17
ATOM     17  S   UNL     1      -4.153  -1.195  24.277  0.00  0.00    +0.062 S 
ATOM     18  O   UNL     1      -4.322  -0.991  25.057  0.00  0.00    -0.156 OA
ATOM     19  O   UNL     1      -3.984  -1.399  23.495  0.00  0.00    -0.156 OA
BRANCH  17  20
ATOM     20  C   UNL     1      -3.972  -1.963  24.517  0.00  0.00    +0.197 C 
BRANCH  20  21
ATOM     21  C   UNL     1      -3.185  -2.198  24.590  0.00  0.00    +0.003 A 
ATOM     22  C   UNL     1      -2.858  -2.725  24.045  0.00  0.00    -0.003 A 
ATOM     23  C   UNL     1      -2.071  -2.959  24.119  0.00  0.00    -0.000 A 
ATOM     24  C   UNL     1      -1.609  -2.667  24.737  0.00  0.00    -0.000 A 
ATOM     25  C   UNL     1      -1.936  -2.141  25.281  0.00  0.00    -0.000 A 
ATOM     26  C   UNL     1      -2.723  -1.906  25.208  0.00  0.00    -0.003 A 
ENDBRANCH  20  21
ENDBRANCH  17  20
ENDBRANCH  16  17
ENDBRANCH  15  16
ENDBRANCH  14  15
TORSDOF 7
ENDMDL
MODEL 4
REMARK VINA RESULT:      -8.4      2.059      6.523
REMARK  Name = 
REMARK  7 active torsions:
REMARK  status: ('A' for Active; 'I' for Inactive)
REMARK    1  A    between atoms: C_4  and  C_27
REMARK    2  A    between atoms: C_6  and  C_7
REMARK    3  A    between atoms: C_14  and  C_15
REMARK    4  A    between atoms: C_15  and  N_16
REMARK    5  A    between atoms: N_16  and  S_17
REMARK    6  A    between atoms: S_17  and  C_20
REMARK    7  A    between atoms: C_20  and  C_21
REMARK                            x       y       z     vdW  Elec       q    Type
REMARK                         _______ _______ _______ _____ _____    ______ ____
ROOT
ATOM      7  C   UNL     1      -0.859   1.363  23.922  0.00  0.00    +0.056 C 
ATOM      8  C   UNL     1      -1.560   1.218  23.616  0.00  0.00    +0.078 C 
ATOM      9  N   UNL     1      -1.355   1.868  24.082  0.00  0.00    -0.272 NA
ATOM     10  C   UNL     1      -0.342   1.765  24.330  0.00  0.00    +0.072 C 
ATOM     11  C   UNL     1       0.195   1.985  24.632  0.00  0.00    +0.018 C 
ATOM     12  C   UNL     1      -0.666   2.003  24.378  0.00  0.00    +0.010 C 
ATOM     13  C   UNL     1      -1.136   2.688  24.659  0.00  0.00    +0.018 C 
ATOM     14  C   UNL     1      -1.839   2.584  24.378  0.00  0.00    +0.077 C 
ENDROOT
BRANCH   7   6
ATOM      1  C   UNL     1      -0.771  -0.316  24.553  0.00  0.00    +0.153 C 
ATOM      2  N   UNL     1      -0.220   0.045  24.057  0.00  0.00    -0.253 N 
ATOM      3  N   UNL     1       0.469  -0.302  23.763  0.00  0.00    -0.169 NA
ATOM      4  C   UNL     1       0.855   0.254  23.292  0.00  0.00    +0.108 A 
ATOM      5  C   UNL     1       0.405   0.945  23.294  0.00  0.00    +0.036 A 
ATOM      6  C   UNL     1      -0.259   0.816  23.767  0.00  0.00    +0.058 A 
BRANCH   4  27
ATOM     27  C   UNL     1       1.566   0.139  22.890  0.00  0.00    +0.049 A 
ATOM     28  C   UNL     1       2.315   0.364  23.154  0.00  0.00    +0.009 A 
ATOM     29  C   UNL     1       2.864   0.142  22.580  0.00  0.00    +0.008 A 
ATOM     30  C   UNL     1       2.455  -0.219  21.962  0.00  0.00    +0.035 A 
ATOM     31  S   UNL     1       1.653  -0.222  22.153  0.00  0.00    -0.085 S 
ENDBRANCH   4  27
ENDBRANCH   7   6
BRANCH  14  15
ATOM     15  C   UNL     1      -2.591   2.920  24.355  0.00  0.00    +0.131 C 
BRANCH  15  16
ATOM     16  N   UNL     1      -2.944   3.189  25.050  0.00  0.00    -0.080 NA
BRANCH  16  17
ATOM     17  S   UNL     1      -3.751   3.362  25.062  0.00  0.00    +0.062 S 
ATOM     18  O   UNL     1      -3.772   3.327  24.239  0.00  0.00    -0.156 OA
ATOM     19  O   UNL     1      -3.730   3.398  25.886  0.00  0.00    -0.156 OA
BRANCH  17  20
ATOM     20  C   UNL     1      -4.557   3.535  25.075  0.00  0.00    +0.197 C 
BRANCH  20  21
ATOM     21  C   UNL     1      -5.104   2.943  25.249  0.00  0.00    +0.003 A 
ATOM     22  C   UNL     1      -5.424   2.886  26.008  0.00  0.00    -0.003 A 
ATOM     23  C   UNL     1      -5.970   2.293  26.182  0.00  0.00    -0.000 A 
ATOM     24  C   UNL     1      -6.198   1.757  25.597  0.00  0.00    -0.000 A 
ATOM     25  C   UNL     1      -5.878   1.814  24.840  0.00  0.00    -0.000 A 
ATOM     26  C   UNL     1      -5.331   2.407  24.665  0.00  0.00    -0.003 A 
ENDBRANCH  20  21
ENDBRANCH  17  20
ENDBRANCH  16  17
ENDBRANCH  15  16
ENDBRANCH  14  15
TORSDOF 7
ENDMDL
MODEL 5
REMARK VINA RESULT:      -8.3      4.047      5.225
REMARK  Name = 
REMARK  7 active torsions:
REMARK  status: ('A' for Active; 'I' for Inactive)
REMARK    1  A    between atoms: C_4  and  C_27
REMARK    2  A    between atoms: C_6  and  C_7
REMARK    3  A    between atoms: C_14  and  C_15
REMARK    4  A    between atoms: C_15  and  N_16
REMARK    5  A    between atoms: N_16  and  S_17
REMARK    6  A    between atoms: S_17  and  C_20
REMARK    7  A    between atoms: C_20  and  C_21
REMARK                            x       y       z     vdW  Elec       q    Type
REMARK                         _______ _______ _______ _____ _____    ______ ____
ROOT
ATOM      7  C   UNL     1      -3.408   0.701  24.813  0.00  0.00    +0.056 C 
ATOM      8  C   UNL     1      -2.833   1.172  24.584  0.00  0.00    +0.078 C 
ATOM      9  N   UNL     1      -3.579   1.406  24.847  0.00  0.00    -0.272 NA
ATOM     10  C   UNL     1      -4.114   0.535  25.077  0.00  0.00    +0.072 C 
ATOM     11  C   UNL     1      -4.659   0.241  25.288  0.00  0.00    +0.018 C 
ATOM     12  C   UNL     1      -4.138   0.938  25.070  0.00  0.00    +0.010 C 
ATOM     13  C   UNL     1      -4.497   1.733  25.169  0.00  0.00    +0.018 C 
ATOM     14  C   UNL     1      -3.959   2.230  24.953  0.00  0.00    +0.077 C 
ENDROOT
BRANCH   7   6
ATOM      1  C   UNL     1      -2.009  -0.141  25.561  0.00  0.00    +0.153 C 
ATOM      2  N   UNL     1      -2.619  -0.498  25.136  0.00  0.00    -0.253 N 
ATOM      3  N   UNL     1      -2.694  -1.305  24.979  0.00  0.00    -0.169 NA
ATOM      4  C   UNL     1      -3.382  -1.417  24.539  0.00  0.00    +0.108 A 
ATOM      5  C   UNL     1      -3.734  -0.680  24.424  0.00  0.00    +0.036 A 
ATOM      6  C   UNL     1      -3.262  -0.112  24.792  0.00  0.00    +0.058 A 
BRANCH   4  27
ATOM     27  C   UNL     1      -3.669  -2.140  24.264  0.00  0.00    +0.049 A 
ATOM     28  C   UNL     1      -4.208  -2.246  23.649  0.00  0.00    +0.009 A 
ATOM     29  C   UNL     1      -4.339  -3.055  23.560  0.00  0.00    +0.008 A 
ATOM     30  C   UNL     1      -3.880  -3.450  24.121  0.00  0.00    +0.035 A 
ATOM     31  S   UNL     1      -3.466  -2.885  24.556  0.00  0.00    -0.085 S 
ENDBRANCH   4  27
ENDBRANCH   7   6
BRANCH  14  15
ATOM     15  C   UNL     1      -3.809   3.036  24.866  0.00  0.00    +0.131 C 
BRANCH  15  16
ATOM     16  N   UNL     1      -3.715   3.513  25.533  0.00  0.00    -0.080 NA
BRANCH  16  17
ATOM     17  S   UNL     1      -3.212   4.165  25.505  0.00  0.00    +0.062 S 
ATOM     18  O   UNL     1      -3.363   4.249  24.699  0.00  0.00    -0.156 OA
ATOM     19  O   UNL     1      -3.060   4.082  26.312  0.00  0.00    -0.156 OA
BRANCH  17  20
ATOM     20  C   UNL     1      -2.708   4.818  25.478  0.00  0.00    +0.197 C 
BRANCH  20  21
ATOM     21  C   UNL     1      -1.910   4.716  25.294  0.00  0.00    +0.003 A 
ATOM     22  C   UNL     1      -1.480   4.106  25.646  0.00  0.00    -0.003 A 
ATOM     23  C   UNL     1      -0.682   4.005  25.462  0.00  0.00    -0.000 A 
ATOM     24  C   UNL     1      -0.314   4.513  24.927  0.00  0.00    -0.000 A 
ATOM     25  C   UNL     1      -0.743   5.123  24.576  0.00  0.00    -0.000 A 
ATOM     26  C   UNL     1      -1.541   5.225  24.760  0.00  0.00    -0.003 A 
ENDBRANCH  20  21
ENDBRANCH  17  20
ENDBRANCH  16  17
ENDBRANCH  15  16
ENDBRANCH  14  15
TORSDOF 7
ENDMDL
MODEL 6
REMARK VINA RESULT:      -8.2      3.158      4.876
REMARK  Name = 
REMARK  7 active torsions:
REMARK  status: ('A' for Active; 'I' for Inactive)
REMARK    1  A    between atoms: C_4  and  C_27
REMARK    2  A    between atoms: C_6  and  C_7
REMARK    3  A    between atoms: C_14  and  C_15
REMARK    4  A    between atoms: C_15  and  N_16
REMARK    5  A    between atoms: N_16  and  S_17
REMARK    6  A    between atoms: S_17  and  C_20
REMARK    7  A    between atoms: C_20  and  C_21
REMARK                            x       y       z     vdW  Elec       q    Type
REMARK                         _______ _______ _______ _____ _____    ______ ____
ROOT
ATOM      7  C   UNL     1      -1.153  -0.009  24.975  0.00  0.00    +0.056 C 
ATOM      8  C   UNL     1      -1.286   0.422  25.609  0.00  0.00    +0.078 C 
ATOM      9  N   UNL     1      -0.818   0.635  24.964  0.00  0.00    -0.272 NA
ATOM     10  C   UNL     1      -0.846  -0.162  24.284  0.00  0.00    +0.072 C 
ATOM     11  C   UNL     1      -0.667  -0.431  23.716  0.00  0.00    +0.018 C 
ATOM     12  C   UNL     1      -0.692   0.207  24.346  0.00  0.00    +0.010 C 
ATOM     13  C   UNL     1      -0.229   0.933  24.178  0.00  0.00    +0.018 C 
ATOM     14  C   UNL     1      -0.334   1.388  24.783  0.00  0.00    +0.077 C 
ENDROOT
BRANCH   7   6
ATOM      1  C   UNL     1      -0.485  -1.538  25.639  0.00  0.00    +0.153 C 
ATOM      2  N   UNL     1      -1.205  -1.454  25.247  0.00  0.00    -0.253 N 
ATOM      3  N   UNL     1      -1.746  -2.058  25.090  0.00  0.00    -0.169 NA
ATOM      4  C   UNL     1      -2.387  -1.729  24.688  0.00  0.00    +0.108 A 
ATOM      5  C   UNL     1      -2.243  -0.922  24.596  0.00  0.00    +0.036 A 
ATOM      6  C   UNL     1      -1.513  -0.752  24.941  0.00  0.00    +0.058 A 
BRANCH   4  27
ATOM     27  C   UNL     1      -3.054  -2.136  24.424  0.00  0.00    +0.049 A 
ATOM     28  C   UNL     1      -3.735  -1.797  24.105  0.00  0.00    +0.009 A 
ATOM     29  C   UNL     1      -4.259  -2.405  23.918  0.00  0.00    +0.008 A 
ATOM     30  C   UNL     1      -3.902  -3.120  24.120  0.00  0.00    +0.035 A 
ATOM     31  S   UNL     1      -3.157  -2.955  24.434  0.00  0.00    -0.085 S 
ENDBRANCH   4  27
ENDBRANCH   7   6
BRANCH  14  15
ATOM     15  C   UNL     1      -0.129   2.125  25.091  0.00  0.00    +0.131 C 
BRANCH  15  16
ATOM     16  N   UNL     1      -0.206   2.802  24.626  0.00  0.00    -0.080 NA
BRANCH  16  17
ATOM     17  S   UNL     1      -0.576   3.472  24.932  0.00  0.00    +0.062 S 
ATOM     18  O   UNL     1      -0.304   3.279  25.686  0.00  0.00    -0.156 OA
ATOM     19  O   UNL     1      -0.849   3.665  24.178  0.00  0.00    -0.156 OA
BRANCH  17  20
ATOM     20  C   UNL     1      -0.948   4.143  25.238  0.00  0.00    +0.197 C 
BRANCH  20  21
ATOM     21  C   UNL     1      -1.761   4.137  25.377  0.00  0.00    +0.003 A 
ATOM     22  C   UNL     1      -2.287   4.235  24.749  0.00  0.00    -0.003 A 
ATOM     23  C   UNL     1      -3.100   4.230  24.888  0.00  0.00    -0.000 A 
ATOM     24  C   UNL     1      -3.387   4.126  25.654  0.00  0.00    -0.000 A 
ATOM     25  C   UNL     1      -2.861   4.028  26.281  0.00  0.00    -0.000 A 
ATOM     26  C   UNL     1      -2.048   4.034  26.143  0.00  0.00    -0.003 A 
ENDBRANCH  20  21
ENDBRANCH  17  20
ENDBRANCH  16  17
ENDBRANCH  15  16
ENDBRANCH  14  15
TORSDOF 7
ENDMDL
