MODEL 1
REMARK VINA RESULT:     -12.4      0.000      0.000
REMARK  Name = 
REMARK  8 active torsions:
REMARK  status: ('A' for Active; 'I' for Inactive)
REMARK    1  A    between atoms: O_2  and  C_3
REMARK    2  A    between atoms: C_3  and  C_5
REMARK    3  A    between atoms: C_18  and  N_32
REMARK    4  A    between atoms: C_20  and  C_22
REMARK    5  A    between atoms: C_25  and  C_28
REMARK    6  A    between atoms: N_32  and  C_33
REMARK    7  A    between atoms: C_33  and  C_34
REMARK    8  A    between atoms: C_34  and  N_35
REMARK                            x       y       z     vdW  Elec       q    Type
REMARK                         _______ _______ _______ _____ _____    ______ ____
ROOT
ATOM      5  C   UNL     1      -2.556   1.442  24.645  0.00  0.00    +0.162 C 
ATOM      6  C   UNL     1      -2.659   2.240  24.827  0.00  0.00    +0.055 C 
ATOM      7  C   UNL     1      -2.007   2.744  24.852  0.00  0.00    -0.004 A 
ATOM      8  C   UNL     1      -1.252   2.452  24.694  0.00  0.00    +0.070 A 
ATOM      9  N   UNL     1      -0.717   3.076  24.759  0.00  0.00    -0.249 NA
ATOM     10  C   UNL     1      -1.141   3.756  24.957  0.00  0.00    +0.081 A 
ATOM     11  C   UNL     1      -1.938   3.550  25.014  0.00  0.00    +0.015 A 
ATOM     12  C   UNL     1      -2.499   4.124  25.207  0.00  0.00    +0.001 A 
ATOM     13  C   UNL     1      -2.262   4.903  25.343  0.00  0.00    +0.000 A 
ATOM     14  C   UNL     1      -1.464   5.108  25.286  0.00  0.00    +0.002 A 
ATOM     15  C   UNL     1      -0.904   4.534  25.093  0.00  0.00    +0.019 A 
ATOM     16  C   UNL     1      -1.149   1.653  24.511  0.00  0.00    +0.100 C 
ATOM     17  C   UNL     1      -0.395   1.359  24.353  0.00  0.00    +0.040 C 
ATOM     18  C   UNL     1      -0.292   0.562  24.171  0.00  0.00    +0.076 C 
ATOM     19  C   UNL     1      -0.945   0.058  24.146  0.00  0.00    +0.038 C 
ATOM     20  C   UNL     1      -1.699   0.351  24.304  0.00  0.00    +0.082 C 
ATOM     21  N   UNL     1      -1.801   1.149  24.486  0.00  0.00    -0.258 NA
ENDROOT
BRANCH  20  22
ATOM     22  C   UNL     1      -2.351  -0.154  24.279  0.00  0.00    -0.008 A 
ATOM     23  C   UNL     1      -2.782  -0.239  23.581  0.00  0.00    -0.003 A 
ATOM     24  C   UNL     1      -3.433  -0.744  23.557  0.00  0.00    +0.004 A 
ATOM     25  C   UNL     1      -3.654  -1.165  24.232  0.00  0.00    +0.071 A 
ATOM     26  C   UNL     1      -3.223  -1.081  24.930  0.00  0.00    +0.004 A 
ATOM     27  C   UNL     1      -2.572  -0.575  24.954  0.00  0.00    -0.003 A 
BRANCH  25  28
ATOM     28  C   UNL     1      -4.306  -1.671  24.207  0.00  0.00    +0.419 C 
ATOM     29  F   UNL     1      -4.958  -2.177  24.183  0.00  0.00    -0.166 F 
ATOM     30  F   UNL     1      -4.398  -1.513  23.403  0.00  0.00    -0.166 F 
ATOM     31  F   UNL     1      -4.213  -1.829  25.012  0.00  0.00    -0.166 F 
ENDBRANCH  25  28
ENDBRANCH  20  22
BRANCH   5   3
ATOM      3  C   UNL     1      -3.209   0.938  24.620  0.00  0.00    +0.332 C 
ATOM      4  O   UNL     1      -3.626   0.238  24.754  0.00  0.00    -0.249 OA
BRANCH   3   2
ATOM      1  C   UNL     1      -4.529   1.467  24.753  0.00  0.00    +0.256 C 
ATOM      2  O   UNL     1      -3.914   1.191  24.276  0.00  0.00    -0.443 OA
ENDBRANCH   3   2
ENDBRANCH   5   3
BRANCH  18  32
ATOM     32  N   UNL     1       0.463   0.269  24.012  0.00  0.00    -0.217 NA
BRANCH  32  33
ATOM     33  C   UNL     1       0.810   0.399  23.275  0.00  0.00    +0.112 C 
BRANCH  33  34
ATOM     34  C   UNL     1       1.545   0.066  23.101  0.00  0.00    +0.134 C 
BRANCH  34  35
ATOM     35  N   UNL     1       2.155   0.543  22.816  0.00  0.00    -0.204 NA
ATOM     36  C   UNL     1       2.908   0.224  22.703  0.00  0.00    +0.242 C 
ATOM     37  C   UNL     1       3.518   0.700  22.418  0.00  0.00    +0.096 C 
ATOM     38  O   UNL     1       3.050  -0.570  22.875  0.00  0.00    -0.273 OA
ENDBRANCH  34  35
ENDBRANCH  33  34
ENDBRANCH  32  33
ENDBRANCH  18  32
TORSDOF 8
ENDMDL
MODEL 2
REMARK VINA RESULT:     -12.2      2.176      4.096
REMARK  Name = 
REMARK  8 active torsions:
REMARK  status: ('A' for Active; 'I' for Inactive)
REMARK    1  A    between atoms: O_2  and  C_3
REMARK    2  A    between atoms: C_3  and  C_5
REMARK    3  A    between atoms: C_18  and  N_32
REMARK    4  A    between atoms: C_20  and  C_22
REMARK    5  A    between atoms: C_25  and  C_28
REMARK    6  A    between atoms: N_32  and  C_33
REMARK    7  A    between atoms: C_33  and  C_34
REMARK    8  A    between atoms: C_34  and  N_35
REMARK                            x       y       z     vdW  Elec       q    Type
REMARK                         _______ _______ _______ _____ _____    ______ ____
ROOT
ATOM      5  C   UNL     1      -2.335   1.197  24.746  0.00  0.00    +0.162 C 
ATOM      6  C   UNL     1      -2.944   0.642  24.738  0.00  0.00    +0.055 C 
ATOM      7  C   UNL     1      -2.782  -0.145  24.549  0.00  0.00    -0.004 A 
ATOM      8  C   UNL     1      -2.011  -0.376  24.369  0.00  0.00    +0.070 A 
ATOM      9  N   UNL     1      -2.019  -1.184  24.205  0.00  0.00    -0.249 NA
ATOM     10  C   UNL     1      -2.794  -1.454  24.284  0.00  0.00    +0.081 A 
ATOM     11  C   UNL     1      -3.266  -0.810  24.497  0.00  0.00    +0.015 A 
ATOM     12  C   UNL     1      -4.076  -0.915  24.616  0.00  0.00    +0.001 A 
ATOM     13  C   UNL     1      -4.414  -1.662  24.522  0.00  0.00    +0.000 A 
ATOM     14  C   UNL     1      -3.942  -2.305  24.309  0.00  0.00    +0.002 A 
ATOM     15  C   UNL     1      -3.132  -2.201  24.190  0.00  0.00    +0.019 A 
ATOM     16  C   UNL     1      -1.401   0.180  24.377  0.00  0.00    +0.100 C 
ATOM     17  C   UNL     1      -0.630  -0.050  24.196  0.00  0.00    +0.040 C 
ATOM     18  C   UNL     1      -0.021   0.505  24.204  0.00  0.00    +0.076 C 
ATOM     19  C   UNL     1      -0.183   1.292  24.393  0.00  0.00    +0.038 C 
ATOM     20  C   UNL     1      -0.954   1.522  24.573  0.00  0.00    +0.082 C 
ATOM     21  N   UNL     1      -1.563   0.967  24.565  0.00  0.00    -0.258 NA
ENDROOT
BRANCH  20  22
ATOM     22  C   UNL     1      -1.115   2.310  24.762  0.00  0.00    -0.008 A 
ATOM     23  C   UNL     1      -1.315   2.844  24.167  0.00  0.00    -0.003 A 
ATOM     24  C   UNL     1      -1.475   3.631  24.357  0.00  0.00    +0.004 A 
ATOM     25  C   UNL     1      -1.436   3.883  25.142  0.00  0.00    +0.071 A 
ATOM     26  C   UNL     1      -1.236   3.348  25.737  0.00  0.00    +0.004 A 
ATOM     27  C   UNL     1      -1.076   2.561  25.547  0.00  0.00    -0.003 A 
BRANCH  25  28
ATOM     28  C   UNL     1      -1.597   4.670  25.330  0.00  0.00    +0.419 C 
ATOM     29  F   UNL     1      -1.758   5.457  25.518  0.00  0.00    -0.166 F 
ATOM     30  F   UNL     1      -1.708   4.459  26.119  0.00  0.00    -0.166 F 
ATOM     31  F   UNL     1      -1.486   4.881  24.540  0.00  0.00    -0.166 F 
ENDBRANCH  25  28
ENDBRANCH  20  22
BRANCH   5   3
ATOM      3  C   UNL     1      -2.496   1.984  24.935  0.00  0.00    +0.332 C 
ATOM      4  O   UNL     1      -2.368   2.714  25.299  0.00  0.00    -0.249 OA
BRANCH   3   2
ATOM      1  C   UNL     1      -3.859   2.393  25.064  0.00  0.00    +0.256 C 
ATOM      2  O   UNL     1      -3.163   2.355  24.622  0.00  0.00    -0.443 OA
ENDBRANCH   3   2
ENDBRANCH   5   3
BRANCH  18  32
ATOM     32  N   UNL     1       0.751   0.275  24.024  0.00  0.00    -0.217 NA
BRANCH  32  33
ATOM     33  C   UNL     1       1.057   0.414  23.271  0.00  0.00    +0.112 C 
BRANCH  33  34
ATOM     34  C   UNL     1       1.798   0.113  23.064  0.00  0.00    +0.134 C 
BRANCH  34  35
ATOM     35  N   UNL     1       2.400   0.626  22.832  0.00  0.00    -0.204 NA
ATOM     36  C   UNL     1       3.165   0.337  22.718  0.00  0.00    +0.242 C 
ATOM     37  C   UNL     1       3.769   0.850  22.486  0.00  0.00    +0.096 C 
ATOM     38  O   UNL     1       3.326  -0.464  22.835  0.00  0.00    -0.273 OA
ENDBRANCH  34  35
ENDBRANCH  33  34
ENDBRANCH  32  33
ENDBRANCH  18  32
TORSDOF 8
ENDMDL
MODEL 3
REMARK VINA RESULT:     -11.1      2.004      4.402
REMARK  Name = 
REMARK  8 active torsions:
REMARK  status: ('A' for Active; 'I' for Inactive)
REMARK    1  A    between atoms: O_2  and  C_3
REMARK    2  A    between atoms: C_3  and  C_5
REMARK    3  A    between atoms: C_18  and  N_32
REMARK    4  A    between atoms: C_20  and  C_22
REMARK    5  A    between atoms: C_25  and  C_28
REMARK    6  A    between atoms: N_32  and  C_33
REMARK    7  A    between atoms: C_33  and  C_34
REMARK    8  A    between atoms: C_34  and  N_35
REMARK                            x       y       z     vdW  Elec       q    Type
REMARK                         _______ _______ _______ _____ _____    ______ ____
ROOT
ATOM      5  C   UNL     1      -2.148   0.124  24.593  0.00  0.00    +0.162 C 
ATOM      6  C   UNL     1      -1.422   0.507  24.519  0.00  0.00    +0.055 C 
ATOM      7  C   UNL     1      -1.388   1.331  24.519  0.00  0.00    -0.004 A 
ATOM      8  C   UNL     1      -2.081   1.773  24.593  0.00  0.00    +0.070 A 
ATOM      9  N   UNL     1      -1.878   2.572  24.575  0.00  0.00    -0.249 NA
ATOM     10  C   UNL     1      -1.059   2.626  24.490  0.00  0.00    +0.081 A 
ATOM     11  C   UNL     1      -0.757   1.858  24.456  0.00  0.00    +0.015 A 
ATOM     12  C   UNL     1       0.055   1.739  24.371  0.00  0.00    +0.001 A 
ATOM     13  C   UNL     1       0.565   2.387  24.320  0.00  0.00    +0.000 A 
ATOM     14  C   UNL     1       0.261   3.154  24.355  0.00  0.00    +0.002 A 
ATOM     15  C   UNL     1      -0.551   3.273  24.440  0.00  0.00    +0.019 A 
ATOM     16  C   UNL     1      -2.808   1.389  24.667  0.00  0.00    +0.100 C 
ATOM     17  C   UNL     1      -3.502   1.829  24.740  0.00  0.00    +0.040 C 
ATOM     18  C   UNL     1      -4.228   1.446  24.814  0.00  0.00    +0.076 C 
ATOM     19  C   UNL     1      -4.261   0.622  24.815  0.00  0.00    +0.038 C 
ATOM     20  C   UNL     1      -3.568   0.182  24.741  0.00  0.00    +0.082 C 
ATOM     21  N   UNL     1      -2.842   0.565  24.667  0.00  0.00    -0.258 NA
ENDROOT
BRANCH  20  22
ATOM     22  C   UNL     1      -3.602  -0.643  24.741  0.00  0.00    -0.008 A 
ATOM     23  C   UNL     1      -3.516  -1.060  25.448  0.00  0.00    -0.003 A 
ATOM     24  C   UNL     1      -3.550  -1.884  25.447  0.00  0.00    +0.004 A 
ATOM     25  C   UNL     1      -3.670  -2.292  24.740  0.00  0.00    +0.071 A 
ATOM     26  C   UNL     1      -3.756  -1.875  24.033  0.00  0.00    +0.004 A 
ATOM     27  C   UNL     1      -3.722  -1.051  24.034  0.00  0.00    -0.003 A 
BRANCH  25  28
ATOM     28  C   UNL     1      -3.704  -3.116  24.740  0.00  0.00    +0.419 C 
ATOM     29  F   UNL     1      -3.738  -3.941  24.741  0.00  0.00    -0.166 F 
ATOM     30  F   UNL     1      -3.809  -3.113  23.922  0.00  0.00    -0.166 F 
ATOM     31  F   UNL     1      -3.600  -3.119  25.558  0.00  0.00    -0.166 F 
ENDBRANCH  25  28
ENDBRANCH  20  22
BRANCH   5   3
ATOM      3  C   UNL     1      -2.181  -0.701  24.594  0.00  0.00    +0.332 C 
ATOM      4  O   UNL     1      -2.488  -1.442  24.404  0.00  0.00    -0.249 OA
BRANCH   3   2
ATOM      1  C   UNL     1      -0.958  -1.438  24.590  0.00  0.00    +0.256 C 
ATOM      2  O   UNL     1      -1.609  -1.137  24.997  0.00  0.00    -0.443 OA
ENDBRANCH   3   2
ENDBRANCH   5   3
BRANCH  18  32
ATOM     32  N   UNL     1      -4.922   1.887  24.888  0.00  0.00    -0.217 NA
BRANCH  32  33
ATOM     33  C   UNL     1      -5.017   2.404  25.524  0.00  0.00    +0.112 C 
BRANCH  33  34
ATOM     34  C   UNL     1      -5.624   2.963  25.515  0.00  0.00    +0.134 C 
BRANCH  34  35
ATOM     35  N   UNL     1      -5.449   3.758  25.385  0.00  0.00    -0.204 NA
ATOM     36  C   UNL     1      -5.983   4.341  25.624  0.00  0.00    +0.242 C 
ATOM     37  C   UNL     1      -5.809   5.137  25.494  0.00  0.00    +0.096 C 
ATOM     38  O   UNL     1      -6.690   4.128  25.991  0.00  0.00    -0.273 OA
ENDBRANCH  34  35
ENDBRANCH  33  34
ENDBRANCH  32  33
ENDBRANCH  18  32
TORSDOF 8
ENDMDL
MODEL 4
REMARK VINA RESULT:     -10.0      2.401      2.935
REMARK  Name = 
REMARK  8 active torsions:
REMARK  status: ('A' for Active; 'I' for Inactive)
REMARK    1  A    between atoms: O_2  and  C_3
REMARK    2  A    between atoms: C_3  and  C_5
REMARK    3  A    between atoms: C_18  and  N_32
REMARK    4  A    between atoms: C_20  and  C_22
REMARK    5  A    between atoms: C_25  and  C_28
REMARK    6  A    between atoms: N_32  and  C_33
REMARK    7  A    between atoms: C_33  and  C_34
REMARK    8  A    between atoms: C_34  and  N_35
REMARK                            x       y       z     vdW  Elec       q    Type
REMARK                         _______ _______ _______ _____ _____    ______ ____
ROOT
ATOM      5  C   UNL     1      -3.370   3.111  24.934  0.00  0.00    +0.162 C 
ATOM      6  C   UNL     1      -2.955   3.820  24.997  0.00  0.00    +0.055 C 
ATOM      7  C   UNL     1      -2.143   3.836  24.851  0.00  0.00    -0.004 A 
ATOM      8  C   UNL     1      -1.747   3.144  24.643  0.00  0.00    +0.070 A 
ATOM      9  N   UNL     1      -0.951   3.328  24.532  0.00  0.00    -0.249 NA
ATOM     10  C   UNL     1      -0.853   4.136  24.672  0.00  0.00    +0.081 A 
ATOM     11  C   UNL     1      -1.591   4.450  24.870  0.00  0.00    +0.015 A 
ATOM     12  C   UNL     1      -1.665   5.253  25.040  0.00  0.00    +0.001 A 
ATOM     13  C   UNL     1      -1.001   5.744  25.014  0.00  0.00    +0.000 A 
ATOM     14  C   UNL     1      -0.263   5.429  24.817  0.00  0.00    +0.002 A 
ATOM     15  C   UNL     1      -0.190   4.625  24.646  0.00  0.00    +0.019 A 
ATOM     16  C   UNL     1      -2.163   2.434  24.580  0.00  0.00    +0.100 C 
ATOM     17  C   UNL     1      -1.767   1.740  24.372  0.00  0.00    +0.040 C 
ATOM     18  C   UNL     1      -2.183   1.031  24.309  0.00  0.00    +0.076 C 
ATOM     19  C   UNL     1      -2.995   1.015  24.455  0.00  0.00    +0.038 C 
ATOM     20  C   UNL     1      -3.390   1.708  24.664  0.00  0.00    +0.082 C 
ATOM     21  N   UNL     1      -2.974   2.417  24.726  0.00  0.00    -0.258 NA
ENDROOT
BRANCH  20  22
ATOM     22  C   UNL     1      -4.202   1.690  24.809  0.00  0.00    -0.008 A 
ATOM     23  C   UNL     1      -4.734   1.856  24.202  0.00  0.00    -0.003 A 
ATOM     24  C   UNL     1      -5.546   1.839  24.349  0.00  0.00    +0.004 A 
ATOM     25  C   UNL     1      -5.825   1.655  25.104  0.00  0.00    +0.071 A 
ATOM     26  C   UNL     1      -5.293   1.489  25.711  0.00  0.00    +0.004 A 
ATOM     27  C   UNL     1      -4.481   1.507  25.564  0.00  0.00    -0.003 A 
BRANCH  25  28
ATOM     28  C   UNL     1      -6.638   1.638  25.249  0.00  0.00    +0.419 C 
ATOM     29  F   UNL     1      -7.450   1.620  25.394  0.00  0.00    -0.166 F 
ATOM     30  F   UNL     1      -6.491   1.550  26.056  0.00  0.00    -0.166 F 
ATOM     31  F   UNL     1      -6.784   1.725  24.442  0.00  0.00    -0.166 F 
ENDBRANCH  25  28
ENDBRANCH  20  22
BRANCH   5   3
ATOM      3  C   UNL     1      -4.182   3.094  25.080  0.00  0.00    +0.332 C 
ATOM      4  O   UNL     1      -4.967   2.872  24.953  0.00  0.00    -0.249 OA
BRANCH   3   2
ATOM      1  C   UNL     1      -4.852   4.258  25.568  0.00  0.00    +0.256 C 
ATOM      2  O   UNL     1      -4.498   3.526  25.709  0.00  0.00    -0.443 OA
ENDBRANCH   3   2
ENDBRANCH   5   3
BRANCH  18  32
ATOM     32  N   UNL     1      -1.787   0.338  24.101  0.00  0.00    -0.217 NA
BRANCH  32  33
ATOM     33  C   UNL     1      -1.363  -0.082  24.671  0.00  0.00    +0.112 C 
BRANCH  33  34
ATOM     34  C   UNL     1      -1.221  -0.889  24.568  0.00  0.00    +0.134 C 
BRANCH  34  35
ATOM     35  N   UNL     1      -0.591  -1.249  24.959  0.00  0.00    -0.204 NA
ATOM     36  C   UNL     1      -0.602  -2.062  25.098  0.00  0.00    +0.242 C 
ATOM     37  C   UNL     1       0.028  -2.423  25.489  0.00  0.00    +0.096 C 
ATOM     38  O   UNL     1      -1.245  -2.515  24.845  0.00  0.00    -0.273 OA
ENDBRANCH  34  35
ENDBRANCH  33  34
ENDBRANCH  32  33
ENDBRANCH  18  32
TORSDOF 8
ENDMDL
