MODEL 1
REMARK VINA RESULT:      -8.5      0.000      0.000
REMARK  Name = 
REMARK  6 active torsions:
REMARK  status: ('A' for Active; 'I' for Inactive)
REMARK    1  A    between atoms: C_2  and  N_4
REMARK    2  A    between atoms: N_7  and  C_8
REMARK    3  A    between atoms: C_8  and  C_9
REMARK    4  A    between atoms: C_12  and  N_13
REMARK    5  A    between atoms: N_13  and  C_14
REMARK    6  A    between atoms: C_14  and  C_15
REMARK                            x       y       z     vdW  Elec       q    Type
REMARK                         _______ _______ _______ _____ _____    ______ ____
ROOT
ATOM      9  C   UNL     1      -3.476   1.430  24.528  0.00  0.00    +0.169 C 
ATOM     10  O   UNL     1      -4.042   1.219  25.089  0.00  0.00    -0.350 OA
ATOM     11  C   UNL     1      -4.173   0.407  25.027  0.00  0.00    +0.162 C 
ATOM     12  C   UNL     1      -3.688   0.116  24.427  0.00  0.00    +0.135 C 
ATOM     19  C   UNL     1      -3.257   0.748  24.118  0.00  0.00    +0.199 C 
ATOM     20  O   UNL     1      -2.704   0.706  23.506  0.00  0.00    -0.219 OA
ENDROOT
BRANCH   9   8
ATOM      8  C   UNL     1      -3.180   2.190  24.398  0.00  0.00    +0.149 C 
BRANCH   8   7
ATOM      4  N   UNL     1      -2.009   3.705  25.445  0.00  0.00    -0.189 NA
ATOM      5  C   UNL     1      -2.439   3.323  24.853  0.00  0.00    +0.339 C 
ATOM      6  O   UNL     1      -2.556   3.693  24.125  0.00  0.00    -0.249 OA
ATOM      7  N   UNL     1      -2.751   2.571  24.990  0.00  0.00    -0.185 NA
BRANCH   4   2
ATOM      1  C   UNL     1      -0.925   4.538  25.031  0.00  0.00    +0.023 C 
ATOM      2  C   UNL     1      -1.697   4.457  25.309  0.00  0.00    +0.097 C 
ATOM      3  C   UNL     1      -2.158   5.127  25.450  0.00  0.00    +0.023 C 
ENDBRANCH   4   2
ENDBRANCH   8   7
ENDBRANCH   9   8
BRANCH  12  13
ATOM     13  N   UNL     1      -3.642  -0.670  24.179  0.00  0.00    -0.214 NA
BRANCH  13  14
ATOM     14  C   UNL     1      -3.966  -1.268  24.645  0.00  0.00    +0.089 C 
BRANCH  14  15
ATOM     15  C   UNL     1      -3.843  -2.059  24.444  0.00  0.00    +0.016 C 
ATOM     16  C   UNL     1      -3.719  -2.849  24.244  0.00  0.00    +0.001 C 
ATOM     17  C   UNL     1      -4.337  -1.971  23.789  0.00  0.00    +0.001 C 
ATOM     18  C   UNL     1      -3.349  -2.148  25.099  0.00  0.00    +0.001 C 
ENDBRANCH  14  15
ENDBRANCH  13  14
ENDBRANCH  12  13
TORSDOF 6
ENDMDL
MODEL 2
REMARK VINA RESULT:      -8.5      0.979      5.255
REMARK  Name = 
REMARK  6 active torsions:
REMARK  status: ('A' for Active; 'I' for Inactive)
REMARK    1  A    between atoms: C_2  and  N_4
REMARK    2  A    between atoms: N_7  and  C_8
REMARK    3  A    between atoms: C_8  and  C_9
REMARK    4  A    between atoms: C_12  and  N_13
REMARK    5  A    between atoms: N_13  and  C_14
REMARK    6  A    between atoms: C_14  and  C_15
REMARK                            x       y       z     vdW  Elec       q    Type
REMARK                         _______ _______ _______ _____ _____    ______ ____
ROOT
ATOM      9  C   UNL     1      -2.739   1.246  24.796  0.00  0.00    +0.169 C 
ATOM     10  O   UNL     1      -1.976   1.188  25.104  0.00  0.00    -0.350 OA
ATOM     11  C   UNL     1      -1.665   1.951  25.159  0.00  0.00    +0.162 C 
ATOM     12  C   UNL     1      -2.237   2.479  24.884  0.00  0.00    +0.135 C 
ATOM     19  C   UNL     1      -2.900   2.043  24.660  0.00  0.00    +0.199 C 
ATOM     20  O   UNL     1      -3.602   2.351  24.353  0.00  0.00    -0.219 OA
ENDROOT
BRANCH   9   8
ATOM      8  C   UNL     1      -3.252   0.615  24.649  0.00  0.00    +0.149 C 
BRANCH   8   7
ATOM      4  N   UNL     1      -3.123  -1.539  24.322  0.00  0.00    -0.189 NA
ATOM      5  C   UNL     1      -3.428  -0.796  24.513  0.00  0.00    +0.339 C 
ATOM      6  O   UNL     1      -4.212  -0.722  24.758  0.00  0.00    -0.249 OA
ATOM      7  N   UNL     1      -2.947  -0.127  24.458  0.00  0.00    -0.185 NA
BRANCH   4   2
ATOM      1  C   UNL     1      -3.529  -2.717  25.021  0.00  0.00    +0.023 C 
ATOM      2  C   UNL     1      -3.604  -2.208  24.376  0.00  0.00    +0.097 C 
ATOM      3  C   UNL     1      -4.159  -2.366  23.786  0.00  0.00    +0.023 C 
ENDBRANCH   4   2
ENDBRANCH   8   7
ENDBRANCH   9   8
BRANCH  12  13
ATOM     13  N   UNL     1      -2.158   3.299  24.841  0.00  0.00    -0.214 NA
BRANCH  13  14
ATOM     14  C   UNL     1      -1.563   3.678  25.269  0.00  0.00    +0.089 C 
BRANCH  14  15
ATOM     15  C   UNL     1      -1.445   4.491  25.180  0.00  0.00    +0.016 C 
ATOM     16  C   UNL     1      -1.327   5.302  25.090  0.00  0.00    +0.001 C 
ATOM     17  C   UNL     1      -0.757   4.343  24.748  0.00  0.00    +0.001 C 
ATOM     18  C   UNL     1      -2.132   4.638  25.611  0.00  0.00    +0.001 C 
ENDBRANCH  14  15
ENDBRANCH  13  14
ENDBRANCH  12  13
TORSDOF 6
ENDMDL
