MODEL 1
REMARK VINA RESULT:      -7.4      0.000      0.000
REMARK  Name = 
REMARK  7 active torsions:
REMARK  status: ('A' for Active; 'I' for Inactive)
REMARK    1  A    between atoms: C_2  and  C_4
REMARK    2  A    between atoms: C_6  and  C_7
REMARK    3  A    between atoms: C_7  and  C_8
REMARK    4  A    between atoms: C_11  and  C_13
REMARK    5  A    between atoms: C_16  and  N_19
REMARK    6  A    between atoms: C_25  and  C_26
REMARK    7  A    between atoms: C_26  and  N_27
REMARK                            x       y       z     vdW  Elec       q    Type
REMARK                         _______ _______ _______ _____ _____    ______ ____
ROOT
ATOM      4  C   UNL     1      -0.444   1.823  24.269  0.00  0.00    +0.006 C 
ATOM      5  C   UNL     1       0.004   1.155  24.088  0.00  0.00    +0.005 C 
ATOM      6  C   UNL     1      -0.369   0.464  23.834  0.00  0.00    +0.027 C 
ATOM     22  C   UNL     1      -1.191   0.442  23.761  0.00  0.00    -0.048 C 
ATOM     23  C   UNL     1      -1.565  -0.248  23.507  0.00  0.00    +0.026 C 
ATOM     24  C   UNL     1      -1.639   1.111  23.942  0.00  0.00    -0.034 C 
ATOM     25  C   UNL     1      -1.265   1.801  24.195  0.00  0.00    +0.037 C 
ENDROOT
BRANCH   4   2
ATOM      1  C   UNL     1       0.165   2.590  25.309  0.00  0.00    +0.000 C 
ATOM      2  C   UNL     1      -0.071   2.513  24.522  0.00  0.00    +0.000 C 
ATOM      3  C   UNL     1       0.067   3.128  23.988  0.00  0.00    +0.000 C 
ENDBRANCH   4   2
BRANCH   6   7
ATOM      7  C   UNL     1       0.078  -0.205  23.654  0.00  0.00    +0.091 C 
BRANCH   7   8
ATOM      8  C   UNL     1       0.789  -0.126  23.240  0.00  0.00    +0.227 A 
ATOM      9  N   UNL     1       0.868  -0.060  22.422  0.00  0.00    -0.111 NA
ATOM     10  N   UNL     1       1.673   0.007  22.249  0.00  0.00    -0.107 NA
ATOM     11  C   UNL     1       2.089  -0.018  22.961  0.00  0.00    +0.250 A 
ATOM     12  O   UNL     1       1.542  -0.100  23.574  0.00  0.00    -0.420 OA
BRANCH  11  13
ATOM     13  C   UNL     1       2.908   0.031  23.046  0.00  0.00    +0.055 A 
ATOM     14  C   UNL     1       3.307   0.714  22.814  0.00  0.00    +0.006 A 
ATOM     15  C   UNL     1       4.126   0.764  22.899  0.00  0.00    +0.015 A 
ATOM     16  C   UNL     1       4.547   0.129  23.216  0.00  0.00    +0.048 A 
ATOM     17  C   UNL     1       4.149  -0.556  23.448  0.00  0.00    +0.015 A 
ATOM     18  C   UNL     1       3.329  -0.604  23.363  0.00  0.00    +0.006 A 
BRANCH  16  19
ATOM     19  N   UNL     1       5.366   0.178  23.300  0.00  0.00    -0.304 N 
ATOM     20  C   UNL     1       5.860  -0.158  22.732  0.00  0.00    +0.112 C 
ATOM     21  C   UNL     1       5.691   0.563  23.953  0.00  0.00    +0.112 C 
ENDBRANCH  16  19
ENDBRANCH  11  13
ENDBRANCH   7   8
ENDBRANCH   6   7
BRANCH  25  26
ATOM     26  C   UNL     1      -1.714   2.470  24.376  0.00  0.00    +0.076 C 
BRANCH  26  27
ATOM     27  N   UNL     1      -2.514   2.393  24.555  0.00  0.00    -0.269 NA
ATOM     28  C   UNL     1      -2.755   2.302  25.340  0.00  0.00    +0.094 C 
ATOM     29  C   UNL     1      -3.556   2.225  25.520  0.00  0.00    +0.111 C 
ATOM     30  N   UNL     1      -4.117   2.240  24.915  0.00  0.00    -0.275 N 
ATOM     31  C   UNL     1      -3.878   2.332  24.132  0.00  0.00    +0.111 C 
ATOM     32  C   UNL     1      -3.076   2.408  23.952  0.00  0.00    +0.094 C 
ATOM     33  C   UNL     1      -4.920   2.164  25.095  0.00  0.00    +0.220 A 
ATOM     34  N   UNL     1      -5.159   2.072  25.879  0.00  0.00    -0.212 NA
ATOM     35  C   UNL     1      -5.961   1.995  26.059  0.00  0.00    +0.103 A 
ATOM     36  C   UNL     1      -6.523   2.010  25.455  0.00  0.00    +0.041 A 
ATOM     37  C   UNL     1      -6.282   2.102  24.671  0.00  0.00    +0.103 A 
ATOM     38  N   UNL     1      -5.481   2.179  24.491  0.00  0.00    -0.212 NA
ENDBRANCH  26  27
ENDBRANCH  25  26
TORSDOF 7
ENDMDL
MODEL 2
REMARK VINA RESULT:      -6.8     16.818     18.059
REMARK  Name = 
REMARK  7 active torsions:
REMARK  status: ('A' for Active; 'I' for Inactive)
REMARK    1  A    between atoms: C_2  and  C_4
REMARK    2  A    between atoms: C_6  and  C_7
REMARK    3  A    between atoms: C_7  and  C_8
REMARK    4  A    between atoms: C_11  and  C_13
REMARK    5  A    between atoms: C_16  and  N_19
REMARK    6  A    between atoms: C_25  and  C_26
REMARK    7  A    between atoms: C_26  and  N_27
REMARK                            x       y       z     vdW  Elec       q    Type
REMARK                         _______ _______ _______ _____ _____    ______ ____
ROOT
ATOM      4  C   UNL     1      -5.959  -9.745   9.293  0.00  0.00    +0.006 C 
ATOM      5  C   UNL     1      -5.567  -9.965   9.984  0.00  0.00    +0.005 C 
ATOM      6  C   UNL     1      -5.726  -9.573  10.692  0.00  0.00    +0.027 C 
ATOM     22  C   UNL     1      -6.278  -8.960  10.708  0.00  0.00    -0.048 C 
ATOM     23  C   UNL     1      -6.437  -8.566  11.415  0.00  0.00    +0.026 C 
ATOM     24  C   UNL     1      -6.671  -8.739  10.016  0.00  0.00    -0.034 C 
ATOM     25  C   UNL     1      -6.511  -9.132   9.309  0.00  0.00    +0.037 C 
ENDROOT
BRANCH   4   2
ATOM      1  C   UNL     1      -5.154  -9.912   8.124  0.00  0.00    +0.000 C 
ATOM      2  C   UNL     1      -5.800 -10.138   8.586  0.00  0.00    +0.000 C 
ATOM      3  C   UNL     1      -6.287 -10.758   8.339  0.00  0.00    +0.000 C 
ENDBRANCH   4   2
BRANCH   6   7
ATOM      7  C   UNL     1      -5.334  -9.792  11.383  0.00  0.00    +0.091 C 
BRANCH   7   8
ATOM      8  C   UNL     1      -4.537 -10.010  11.354  0.00  0.00    +0.227 A 
ATOM      9  N   UNL     1      -4.248 -10.781  11.316  0.00  0.00    -0.111 NA
ATOM     10  N   UNL     1      -3.423 -10.742  11.297  0.00  0.00    -0.107 NA
ATOM     11  C   UNL     1      -3.205  -9.947  11.324  0.00  0.00    +0.250 A 
ATOM     12  O   UNL     1      -3.894  -9.495  11.359  0.00  0.00    -0.420 OA
BRANCH  11  13
ATOM     13  C   UNL     1      -2.434  -9.655  11.317  0.00  0.00    +0.055 A 
ATOM     14  C   UNL     1      -1.916  -9.841  11.932  0.00  0.00    +0.006 A 
ATOM     15  C   UNL     1      -1.145  -9.549  11.926  0.00  0.00    +0.015 A 
ATOM     16  C   UNL     1      -0.890  -9.072  11.302  0.00  0.00    +0.048 A 
ATOM     17  C   UNL     1      -1.406  -8.886  10.687  0.00  0.00    +0.015 A 
ATOM     18  C   UNL     1      -2.179  -9.178  10.694  0.00  0.00    +0.006 A 
BRANCH  16  19
ATOM     19  N   UNL     1      -0.118  -8.780  11.295  0.00  0.00    -0.304 N 
ATOM     20  C   UNL     1       0.442  -9.109  10.788  0.00  0.00    +0.112 C 
ATOM     21  C   UNL     1       0.092  -8.160  11.796  0.00  0.00    +0.112 C 
ENDBRANCH  16  19
ENDBRANCH  11  13
ENDBRANCH   7   8
ENDBRANCH   6   7
BRANCH  25  26
ATOM     26  C   UNL     1      -6.904  -8.912   8.618  0.00  0.00    +0.076 C 
BRANCH  26  27
ATOM     27  N   UNL     1      -7.457  -8.302   8.635  0.00  0.00    -0.269 NA
ATOM     28  C   UNL     1      -7.224  -7.528   8.467  0.00  0.00    +0.094 C 
ATOM     29  C   UNL     1      -7.779  -6.917   8.484  0.00  0.00    +0.111 C 
ATOM     30  N   UNL     1      -8.566  -7.081   8.669  0.00  0.00    -0.275 N 
ATOM     31  C   UNL     1      -8.799  -7.853   8.836  0.00  0.00    +0.111 C 
ATOM     32  C   UNL     1      -8.245  -8.464   8.819  0.00  0.00    +0.094 C 
ATOM     33  C   UNL     1      -9.121  -6.469   8.686  0.00  0.00    +0.220 A 
ATOM     34  N   UNL     1      -8.887  -5.696   8.518  0.00  0.00    -0.212 NA
ATOM     35  C   UNL     1      -9.442  -5.085   8.535  0.00  0.00    +0.103 A 
ATOM     36  C   UNL     1     -10.230  -5.248   8.719  0.00  0.00    +0.041 A 
ATOM     37  C   UNL     1     -10.462  -6.021   8.887  0.00  0.00    +0.103 A 
ATOM     38  N   UNL     1      -9.908  -6.632   8.870  0.00  0.00    -0.212 NA
ENDBRANCH  26  27
ENDBRANCH  25  26
TORSDOF 7
ENDMDL
MODEL 3
REMARK VINA RESULT:      -6.4      2.472      4.110
REMARK  Name = 
REMARK  7 active torsions:
REMARK  status: ('A' for Active; 'I' for Inactive)
REMARK    1  A    between atoms: C_2  and  C_4
REMARK    2  A    between atoms: C_6  and  C_7
REMARK    3  A    between atoms: C_7  and  C_8
REMARK    4  A    between atoms: C_11  and  C_13
REMARK    5  A    between atoms: C_16  and  N_19
REMARK    6  A    between atoms: C_25  and  C_26
REMARK    7  A    between atoms: C_26  and  N_27
REMARK                            x       y       z     vdW  Elec       q    Type
REMARK                         _______ _______ _______ _____ _____    ______ ____
ROOT
ATOM      4  C   UNL     1      -0.266   2.384  25.406  0.00  0.00    +0.006 C 
ATOM      5  C   UNL     1       0.078   1.771  24.976  0.00  0.00    +0.005 C 
ATOM      6  C   UNL     1      -0.167   1.620  24.203  0.00  0.00    +0.027 C 
ATOM     22  C   UNL     1      -0.757   2.083  23.860  0.00  0.00    -0.048 C 
ATOM     23  C   UNL     1      -1.003   1.933  23.087  0.00  0.00    +0.026 C 
ATOM     24  C   UNL     1      -1.102   2.697  24.290  0.00  0.00    -0.034 C 
ATOM     25  C   UNL     1      -0.857   2.847  25.063  0.00  0.00    +0.037 C 
ENDROOT
BRANCH   4   2
ATOM      1  C   UNL     1      -0.280   2.052  26.796  0.00  0.00    +0.000 C 
ATOM      2  C   UNL     1      -0.021   2.535  26.178  0.00  0.00    +0.000 C 
ATOM      3  C   UNL     1       0.483   3.170  26.335  0.00  0.00    +0.000 C 
ENDBRANCH   4   2
BRANCH   6   7
ATOM      7  C   UNL     1       0.178   1.007  23.773  0.00  0.00    +0.091 C 
BRANCH   7   8
ATOM      8  C   UNL     1      -0.038   0.224  23.925  0.00  0.00    +0.227 A 
ATOM      9  N   UNL     1       0.476  -0.420  23.970  0.00  0.00    -0.111 NA
ATOM     10  N   UNL     1       0.026  -1.093  24.131  0.00  0.00    -0.107 NA
ATOM     11  C   UNL     1      -0.765  -0.864  24.185  0.00  0.00    +0.250 A 
ATOM     12  O   UNL     1      -0.804  -0.050  24.057  0.00  0.00    -0.420 OA
BRANCH  11  13
ATOM     13  C   UNL     1      -1.404  -1.362  24.339  0.00  0.00    +0.055 A 
ATOM     14  C   UNL     1      -2.103  -1.052  24.648  0.00  0.00    +0.006 A 
ATOM     15  C   UNL     1      -2.744  -1.549  24.803  0.00  0.00    +0.015 A 
ATOM     16  C   UNL     1      -2.684  -2.357  24.648  0.00  0.00    +0.048 A 
ATOM     17  C   UNL     1      -1.985  -2.668  24.339  0.00  0.00    +0.015 A 
ATOM     18  C   UNL     1      -1.345  -2.170  24.185  0.00  0.00    +0.006 A 
BRANCH  16  19
ATOM     19  N   UNL     1      -3.324  -2.855  24.803  0.00  0.00    -0.304 N 
ATOM     20  C   UNL     1      -3.894  -2.986  24.222  0.00  0.00    +0.112 C 
ATOM     21  C   UNL     1      -3.393  -3.221  25.538  0.00  0.00    +0.112 C 
ENDBRANCH  16  19
ENDBRANCH  11  13
ENDBRANCH   7   8
ENDBRANCH   6   7
BRANCH  25  26
ATOM     26  C   UNL     1      -1.202   3.461  25.492  0.00  0.00    +0.076 C 
BRANCH  26  27
ATOM     27  N   UNL     1      -2.021   3.545  25.506  0.00  0.00    -0.269 NA
ATOM     28  C   UNL     1      -2.367   4.257  25.270  0.00  0.00    +0.094 C 
ATOM     29  C   UNL     1      -3.188   4.341  25.283  0.00  0.00    +0.111 C 
ATOM     30  N   UNL     1      -3.663   3.714  25.532  0.00  0.00    -0.275 N 
ATOM     31  C   UNL     1      -3.317   3.003  25.767  0.00  0.00    +0.111 C 
ATOM     32  C   UNL     1      -2.497   2.919  25.754  0.00  0.00    +0.094 C 
ATOM     33  C   UNL     1      -4.484   3.798  25.546  0.00  0.00    +0.220 A 
ATOM     34  N   UNL     1      -4.829   4.509  25.310  0.00  0.00    -0.212 NA
ATOM     35  C   UNL     1      -5.650   4.594  25.324  0.00  0.00    +0.103 A 
ATOM     36  C   UNL     1      -6.125   3.966  25.573  0.00  0.00    +0.041 A 
ATOM     37  C   UNL     1      -5.779   3.255  25.808  0.00  0.00    +0.103 A 
ATOM     38  N   UNL     1      -4.959   3.171  25.794  0.00  0.00    -0.212 NA
ENDBRANCH  26  27
ENDBRANCH  25  26
TORSDOF 7
ENDMDL
MODEL 4
REMARK VINA RESULT:      -6.3      2.153      6.460
REMARK  Name = 
REMARK  7 active torsions:
REMARK  status: ('A' for Active; 'I' for Inactive)
REMARK    1  A    between atoms: C_2  and  C_4
REMARK    2  A    between atoms: C_6  and  C_7
REMARK    3  A    between atoms: C_7  and  C_8
REMARK    4  A    between atoms: C_11  and  C_13
REMARK    5  A    between atoms: C_16  and  N_19
REMARK    6  A    between atoms: C_25  and  C_26
REMARK    7  A    between atoms: C_26  and  N_27
REMARK                            x       y       z     vdW  Elec       q    Type
REMARK                         _______ _______ _______ _____ _____    ______ ____
ROOT
ATOM      4  C   UNL     1      -3.041  -0.776  25.352  0.00  0.00    +0.006 C 
ATOM      5  C   UNL     1      -3.711  -0.296  25.353  0.00  0.00    +0.005 C 
ATOM      6  C   UNL     1      -3.929   0.112  24.670  0.00  0.00    +0.027 C 
ATOM     22  C   UNL     1      -3.475   0.040  23.985  0.00  0.00    -0.048 C 
ATOM     23  C   UNL     1      -3.692   0.447  23.301  0.00  0.00    +0.026 C 
ATOM     24  C   UNL     1      -2.804  -0.441  23.983  0.00  0.00    -0.034 C 
ATOM     25  C   UNL     1      -2.588  -0.849  24.666  0.00  0.00    +0.037 C 
ENDROOT
BRANCH   4   2
ATOM      1  C   UNL     1      -3.095  -1.953  26.160  0.00  0.00    +0.000 C 
ATOM      2  C   UNL     1      -2.824  -1.184  26.034  0.00  0.00    +0.000 C 
ATOM      3  C   UNL     1      -2.336  -0.822  26.594  0.00  0.00    +0.000 C 
ENDBRANCH   4   2
BRANCH   6   7
ATOM      7  C   UNL     1      -4.599   0.592  24.671  0.00  0.00    +0.091 C 
BRANCH   7   8
ATOM      8  C   UNL     1      -4.541   1.382  24.908  0.00  0.00    +0.227 A 
ATOM      9  N   UNL     1      -5.138   1.825  25.264  0.00  0.00    -0.111 NA
ATOM     10  N   UNL     1      -4.842   2.583  25.406  0.00  0.00    -0.107 NA
ATOM     11  C   UNL     1      -4.062   2.605  25.139  0.00  0.00    +0.250 A 
ATOM     12  O   UNL     1      -3.876   1.863  24.831  0.00  0.00    -0.420 OA
BRANCH  11  13
ATOM     13  C   UNL     1      -3.556   3.256  25.172  0.00  0.00    +0.055 A 
ATOM     14  C   UNL     1      -3.074   3.370  25.832  0.00  0.00    +0.006 A 
ATOM     15  C   UNL     1      -2.568   4.021  25.867  0.00  0.00    +0.015 A 
ATOM     16  C   UNL     1      -2.545   4.558  25.241  0.00  0.00    +0.048 A 
ATOM     17  C   UNL     1      -3.027   4.445  24.581  0.00  0.00    +0.015 A 
ATOM     18  C   UNL     1      -3.533   3.793  24.547  0.00  0.00    +0.006 A 
BRANCH  16  19
ATOM     19  N   UNL     1      -2.039   5.209  25.275  0.00  0.00    -0.304 N 
ATOM     20  C   UNL     1      -2.344   5.962  25.418  0.00  0.00    +0.112 C 
ATOM     21  C   UNL     1      -1.228   5.107  25.166  0.00  0.00    +0.112 C 
ENDBRANCH  16  19
ENDBRANCH  11  13
ENDBRANCH   7   8
ENDBRANCH   6   7
BRANCH  25  26
ATOM     26  C   UNL     1      -1.917  -1.329  24.664  0.00  0.00    +0.076 C 
BRANCH  26  27
ATOM     27  N   UNL     1      -1.228  -1.074  24.290  0.00  0.00    -0.269 NA
ATOM     28  C   UNL     1      -0.754  -0.499  24.645  0.00  0.00    +0.094 C 
ATOM     29  C   UNL     1      -0.065  -0.244  24.271  0.00  0.00    +0.111 C 
ATOM     30  N   UNL     1       0.151  -0.564  23.541  0.00  0.00    -0.275 N 
ATOM     31  C   UNL     1      -0.323  -1.138  23.186  0.00  0.00    +0.111 C 
ATOM     32  C   UNL     1      -1.012  -1.393  23.561  0.00  0.00    +0.094 C 
ATOM     33  C   UNL     1       0.841  -0.308  23.166  0.00  0.00    +0.220 A 
ATOM     34  N   UNL     1       1.314   0.267  23.522  0.00  0.00    -0.212 NA
ATOM     35  C   UNL     1       2.004   0.522  23.147  0.00  0.00    +0.103 A 
ATOM     36  C   UNL     1       2.220   0.202  22.417  0.00  0.00    +0.041 A 
ATOM     37  C   UNL     1       1.746  -0.372  22.063  0.00  0.00    +0.103 A 
ATOM     38  N   UNL     1       1.056  -0.627  22.437  0.00  0.00    -0.212 NA
ENDBRANCH  26  27
ENDBRANCH  25  26
TORSDOF 7
ENDMDL
MODEL 5
REMARK VINA RESULT:      -6.3      2.180      6.311
REMARK  Name = 
REMARK  7 active torsions:
REMARK  status: ('A' for Active; 'I' for Inactive)
REMARK    1  A    between atoms: C_2  and  C_4
REMARK    2  A    between atoms: C_6  and  C_7
REMARK    3  A    between atoms: C_7  and  C_8
REMARK    4  A    between atoms: C_11  and  C_13
REMARK    5  A    between atoms: C_16  and  N_19
REMARK    6  A    between atoms: C_25  and  C_26
REMARK    7  A    between atoms: C_26  and  N_27
REMARK                            x       y       z     vdW  Elec       q    Type
REMARK                         _______ _______ _______ _____ _____    ______ ____
ROOT
ATOM      4  C   UNL     1      -1.951   2.977  25.039  0.00  0.00    +0.006 C 
ATOM      5  C   UNL     1      -2.748   2.818  24.901  0.00  0.00    +0.005 C 
ATOM      6  C   UNL     1      -2.995   2.554  24.159  0.00  0.00    +0.027 C 
ATOM     22  C   UNL     1      -2.443   2.449  23.555  0.00  0.00    -0.048 C 
ATOM     23  C   UNL     1      -2.689   2.185  22.813  0.00  0.00    +0.026 C 
ATOM     24  C   UNL     1      -1.645   2.608  23.692  0.00  0.00    -0.034 C 
ATOM     25  C   UNL     1      -1.400   2.872  24.434  0.00  0.00    +0.037 C 
ENDROOT
BRANCH   4   2
ATOM      1  C   UNL     1      -1.505   2.696  26.367  0.00  0.00    +0.000 C 
ATOM      2  C   UNL     1      -1.706   3.241  25.780  0.00  0.00    +0.000 C 
ATOM      3  C   UNL     1      -1.660   4.051  25.936  0.00  0.00    +0.000 C 
ENDBRANCH   4   2
BRANCH   6   7
ATOM      7  C   UNL     1      -3.792   2.394  24.021  0.00  0.00    +0.091 C 
BRANCH   7   8
ATOM      8  C   UNL     1      -4.116   1.673  24.261  0.00  0.00    +0.227 A 
ATOM      9  N   UNL     1      -4.859   1.567  24.605  0.00  0.00    -0.111 NA
ATOM     10  N   UNL     1      -4.956   0.761  24.755  0.00  0.00    -0.107 NA
ATOM     11  C   UNL     1      -4.274   0.371  24.503  0.00  0.00    +0.250 A 
ATOM     12  O   UNL     1      -3.755   0.935  24.198  0.00  0.00    -0.420 OA
BRANCH  11  13
ATOM     13  C   UNL     1      -4.135  -0.441  24.548  0.00  0.00    +0.055 A 
ATOM     14  C   UNL     1      -3.792  -0.764  25.226  0.00  0.00    +0.006 A 
ATOM     15  C   UNL     1      -3.652  -1.575  25.272  0.00  0.00    +0.015 A 
ATOM     16  C   UNL     1      -3.857  -2.065  24.640  0.00  0.00    +0.048 A 
ATOM     17  C   UNL     1      -4.200  -1.743  23.962  0.00  0.00    +0.015 A 
ATOM     18  C   UNL     1      -4.339  -0.930  23.917  0.00  0.00    +0.006 A 
BRANCH  16  19
ATOM     19  N   UNL     1      -3.718  -2.877  24.686  0.00  0.00    -0.304 N 
ATOM     20  C   UNL     1      -3.300  -3.188  25.325  0.00  0.00    +0.112 C 
ATOM     21  C   UNL     1      -3.996  -3.377  24.092  0.00  0.00    +0.112 C 
ENDBRANCH  16  19
ENDBRANCH  11  13
ENDBRANCH   7   8
ENDBRANCH   6   7
BRANCH  25  26
ATOM     26  C   UNL     1      -0.602   3.031  24.571  0.00  0.00    +0.076 C 
BRANCH  26  27
ATOM     27  N   UNL     1      -0.023   2.531  24.267  0.00  0.00    -0.269 NA
ATOM     28  C   UNL     1      -0.147   1.714  24.257  0.00  0.00    +0.094 C 
ATOM     29  C   UNL     1       0.433   1.213  23.951  0.00  0.00    +0.111 C 
ATOM     30  N   UNL     1       1.136   1.527  23.656  0.00  0.00    -0.275 N 
ATOM     31  C   UNL     1       1.260   2.342  23.666  0.00  0.00    +0.111 C 
ATOM     32  C   UNL     1       0.680   2.844  23.971  0.00  0.00    +0.094 C 
ATOM     33  C   UNL     1       1.716   1.025  23.351  0.00  0.00    +0.220 A 
ATOM     34  N   UNL     1       1.592   0.210  23.341  0.00  0.00    -0.212 NA
ATOM     35  C   UNL     1       2.172  -0.292  23.036  0.00  0.00    +0.103 A 
ATOM     36  C   UNL     1       2.876   0.022  22.740  0.00  0.00    +0.041 A 
ATOM     37  C   UNL     1       2.999   0.838  22.750  0.00  0.00    +0.103 A 
ATOM     38  N   UNL     1       2.419   1.339  23.056  0.00  0.00    -0.212 NA
ENDBRANCH  26  27
ENDBRANCH  25  26
TORSDOF 7
ENDMDL
MODEL 6
REMARK VINA RESULT:      -6.2      2.476      6.125
REMARK  Name = 
REMARK  7 active torsions:
REMARK  status: ('A' for Active; 'I' for Inactive)
REMARK    1  A    between atoms: C_2  and  C_4
REMARK    2  A    between atoms: C_6  and  C_7
REMARK    3  A    between atoms: C_7  and  C_8
REMARK    4  A    between atoms: C_11  and  C_13
REMARK    5  A    between atoms: C_16  and  N_19
REMARK    6  A    between atoms: C_25  and  C_26
REMARK    7  A    between atoms: C_26  and  N_27
REMARK                            x       y       z     vdW  Elec       q    Type
REMARK                         _______ _______ _______ _____ _____    ______ ____
ROOT
ATOM      4  C   UNL     1       0.081   1.409  24.322  0.00  0.00    +0.006 C 
ATOM      5  C   UNL     1       0.024   2.159  24.659  0.00  0.00    +0.005 C 
ATOM      6  C   UNL     1      -0.245   2.244  25.435  0.00  0.00    +0.027 C 
ATOM     22  C   UNL     1      -0.457   1.577  25.872  0.00  0.00    -0.048 C 
ATOM     23  C   UNL     1      -0.726   1.661  26.648  0.00  0.00    +0.026 C 
ATOM     24  C   UNL     1      -0.400   0.826  25.534  0.00  0.00    -0.034 C 
ATOM     25  C   UNL     1      -0.131   0.743  24.759  0.00  0.00    +0.037 C 
ENDROOT
BRANCH   4   2
ATOM      1  C   UNL     1       1.125   1.080  23.402  0.00  0.00    +0.000 C 
ATOM      2  C   UNL     1       0.350   1.325  23.547  0.00  0.00    +0.000 C 
ATOM      3  C   UNL     1      -0.156   1.486  22.914  0.00  0.00    +0.000 C 
ENDBRANCH   4   2
BRANCH   6   7
ATOM      7  C   UNL     1      -0.302   2.994  25.772  0.00  0.00    +0.091 C 
BRANCH   7   8
ATOM      8  C   UNL     1      -0.965   3.463  25.626  0.00  0.00    +0.227 A 
ATOM      9  N   UNL     1      -0.957   4.250  25.377  0.00  0.00    -0.111 NA
ATOM     10  N   UNL     1      -1.739   4.500  25.300  0.00  0.00    -0.107 NA
ATOM     11  C   UNL     1      -2.230   3.869  25.501  0.00  0.00    +0.250 A 
ATOM     12  O   UNL     1      -1.751   3.227  25.702  0.00  0.00    -0.420 OA
BRANCH  11  13
ATOM     13  C   UNL     1      -3.055   3.876  25.500  0.00  0.00    +0.055 A 
ATOM     14  C   UNL     1      -3.467   3.979  26.207  0.00  0.00    +0.006 A 
ATOM     15  C   UNL     1      -4.292   3.987  26.208  0.00  0.00    +0.015 A 
ATOM     16  C   UNL     1      -4.705   3.891  25.500  0.00  0.00    +0.048 A 
ATOM     17  C   UNL     1      -4.294   3.789  24.792  0.00  0.00    +0.015 A 
ATOM     18  C   UNL     1      -3.468   3.781  24.793  0.00  0.00    +0.006 A 
BRANCH  16  19
ATOM     19  N   UNL     1      -5.531   3.899  25.500  0.00  0.00    -0.304 N 
ATOM     20  C   UNL     1      -5.949   3.195  25.593  0.00  0.00    +0.112 C 
ATOM     21  C   UNL     1      -5.936   4.611  25.408  0.00  0.00    +0.112 C 
ENDBRANCH  16  19
ENDBRANCH  11  13
ENDBRANCH   7   8
ENDBRANCH   6   7
BRANCH  25  26
ATOM     26  C   UNL     1      -0.074  -0.008  24.422  0.00  0.00    +0.076 C 
BRANCH  26  27
ATOM     27  N   UNL     1      -0.720  -0.519  24.441  0.00  0.00    -0.269 NA
ATOM     28  C   UNL     1      -0.662  -1.244  24.831  0.00  0.00    +0.094 C 
ATOM     29  C   UNL     1      -1.309  -1.756  24.850  0.00  0.00    +0.111 C 
ATOM     30  N   UNL     1      -2.014  -1.542  24.479  0.00  0.00    -0.275 N 
ATOM     31  C   UNL     1      -2.073  -0.817  24.090  0.00  0.00    +0.111 C 
ATOM     32  C   UNL     1      -1.426  -0.306  24.071  0.00  0.00    +0.094 C 
ATOM     33  C   UNL     1      -2.662  -2.054  24.498  0.00  0.00    +0.220 A 
ATOM     34  N   UNL     1      -2.603  -2.778  24.888  0.00  0.00    -0.212 NA
ATOM     35  C   UNL     1      -3.250  -3.290  24.907  0.00  0.00    +0.103 A 
ATOM     36  C   UNL     1      -3.956  -3.076  24.536  0.00  0.00    +0.041 A 
ATOM     37  C   UNL     1      -4.014  -2.352  24.147  0.00  0.00    +0.103 A 
ATOM     38  N   UNL     1      -3.367  -1.840  24.128  0.00  0.00    -0.212 NA
ENDBRANCH  26  27
ENDBRANCH  25  26
TORSDOF 7
ENDMDL
MODEL 7
REMARK VINA RESULT:      -5.7      1.550      7.293
REMARK  Name = 
REMARK  7 active torsions:
REMARK  status: ('A' for Active; 'I' for Inactive)
REMARK    1  A    between atoms: C_2  and  C_4
REMARK    2  A    between atoms: C_6  and  C_7
REMARK    3  A    between atoms: C_7  and  C_8
REMARK    4  A    between atoms: C_11  and  C_13
REMARK    5  A    between atoms: C_16  and  N_19
REMARK    6  A    between atoms: C_25  and  C_26
REMARK    7  A    between atoms: C_26  and  N_27
REMARK                            x       y       z     vdW  Elec       q    Type
REMARK                         _______ _______ _______ _____ _____    ______ ____
ROOT
ATOM      4  C   UNL     1      -0.556   0.812  23.831  0.00  0.00    +0.006 C 
ATOM      5  C   UNL     1      -1.058   0.470  24.388  0.00  0.00    +0.005 C 
ATOM      6  C   UNL     1      -0.917  -0.298  24.654  0.00  0.00    +0.027 C 
ATOM     22  C   UNL     1      -0.272  -0.723  24.363  0.00  0.00    -0.048 C 
ATOM     23  C   UNL     1      -0.130  -1.491  24.629  0.00  0.00    +0.026 C 
ATOM     24  C   UNL     1       0.231  -0.380  23.806  0.00  0.00    -0.034 C 
ATOM     25  C   UNL     1       0.088   0.388  23.540  0.00  0.00    +0.037 C 
ENDROOT
BRANCH   4   2
ATOM      1  C   UNL     1      -1.052   1.703  22.829  0.00  0.00    +0.000 C 
ATOM      2  C   UNL     1      -0.698   1.580  23.565  0.00  0.00    +0.000 C 
ATOM      3  C   UNL     1      -0.486   2.225  24.034  0.00  0.00    +0.000 C 
ENDBRANCH   4   2
BRANCH   6   7
ATOM      7  C   UNL     1      -1.419  -0.641  25.211  0.00  0.00    +0.091 C 
BRANCH   7   8
ATOM      8  C   UNL     1      -2.237  -0.577  25.124  0.00  0.00    +0.227 A 
ATOM      9  N   UNL     1      -2.754  -1.193  24.938  0.00  0.00    -0.111 NA
ATOM     10  N   UNL     1      -3.518  -0.883  24.906  0.00  0.00    -0.107 NA
ATOM     11  C   UNL     1      -3.473  -0.076  25.072  0.00  0.00    +0.250 A 
ATOM     12  O   UNL     1      -2.681   0.113  25.206  0.00  0.00    -0.420 OA
BRANCH  11  13
ATOM     13  C   UNL     1      -4.107   0.450  25.099  0.00  0.00    +0.055 A 
ATOM     14  C   UNL     1      -4.175   1.045  24.531  0.00  0.00    +0.006 A 
ATOM     15  C   UNL     1      -4.809   1.571  24.557  0.00  0.00    +0.015 A 
ATOM     16  C   UNL     1      -5.377   1.503  25.152  0.00  0.00    +0.048 A 
ATOM     17  C   UNL     1      -5.311   0.909  25.720  0.00  0.00    +0.015 A 
ATOM     18  C   UNL     1      -4.675   0.382  25.693  0.00  0.00    +0.006 A 
BRANCH  16  19
ATOM     19  N   UNL     1      -6.012   2.030  25.179  0.00  0.00    -0.304 N 
ATOM     20  C   UNL     1      -6.701   1.866  24.757  0.00  0.00    +0.112 C 
ATOM     21  C   UNL     1      -5.957   2.719  25.627  0.00  0.00    +0.112 C 
ENDBRANCH  16  19
ENDBRANCH  11  13
ENDBRANCH   7   8
ENDBRANCH   6   7
BRANCH  25  26
ATOM     26  C   UNL     1       0.591   0.730  22.982  0.00  0.00    +0.076 C 
BRANCH  26  27
ATOM     27  N   UNL     1       1.405   0.612  23.034  0.00  0.00    -0.269 NA
ATOM     28  C   UNL     1       1.875   1.151  23.448  0.00  0.00    +0.094 C 
ATOM     29  C   UNL     1       2.690   1.034  23.499  0.00  0.00    +0.111 C 
ATOM     30  N   UNL     1       3.035   0.377  23.137  0.00  0.00    -0.275 N 
ATOM     31  C   UNL     1       2.566  -0.161  22.724  0.00  0.00    +0.111 C 
ATOM     32  C   UNL     1       1.751  -0.043  22.673  0.00  0.00    +0.094 C 
ATOM     33  C   UNL     1       3.851   0.260  23.189  0.00  0.00    +0.220 A 
ATOM     34  N   UNL     1       4.319   0.799  23.602  0.00  0.00    -0.212 NA
ATOM     35  C   UNL     1       5.134   0.681  23.654  0.00  0.00    +0.103 A 
ATOM     36  C   UNL     1       5.481   0.025  23.292  0.00  0.00    +0.041 A 
ATOM     37  C   UNL     1       5.011  -0.513  22.879  0.00  0.00    +0.103 A 
ATOM     38  N   UNL     1       4.196  -0.396  22.827  0.00  0.00    -0.212 NA
ENDBRANCH  26  27
ENDBRANCH  25  26
TORSDOF 7
ENDMDL
MODEL 8
REMARK VINA RESULT:      -5.6      1.116      7.521
REMARK  Name = 
REMARK  7 active torsions:
REMARK  status: ('A' for Active; 'I' for Inactive)
REMARK    1  A    between atoms: C_2  and  C_4
REMARK    2  A    between atoms: C_6  and  C_7
REMARK    3  A    between atoms: C_7  and  C_8
REMARK    4  A    between atoms: C_11  and  C_13
REMARK    5  A    between atoms: C_16  and  N_19
REMARK    6  A    between atoms: C_25  and  C_26
REMARK    7  A    between atoms: C_26  and  N_27
REMARK                            x       y       z     vdW  Elec       q    Type
REMARK                         _______ _______ _______ _____ _____    ______ ____
ROOT
ATOM      4  C   UNL     1      -0.305   0.223  23.967  0.00  0.00    +0.006 C 
ATOM      5  C   UNL     1      -0.724   0.763  24.428  0.00  0.00    +0.005 C 
ATOM      6  C   UNL     1      -0.429   1.526  24.542  0.00  0.00    +0.027 C 
ATOM     22  C   UNL     1       0.285   1.747  24.193  0.00  0.00    -0.048 C 
ATOM     23  C   UNL     1       0.580   2.509  24.306  0.00  0.00    +0.026 C 
ATOM     24  C   UNL     1       0.705   1.207  23.732  0.00  0.00    -0.034 C 
ATOM     25  C   UNL     1       0.410   0.445  23.619  0.00  0.00    +0.037 C 
ENDROOT
BRANCH   4   2
ATOM      1  C   UNL     1      -0.570  -1.088  24.469  0.00  0.00    +0.000 C 
ATOM      2  C   UNL     1      -0.599  -0.539  23.854  0.00  0.00    +0.000 C 
ATOM      3  C   UNL     1      -0.923  -0.752  23.125  0.00  0.00    +0.000 C 
ENDBRANCH   4   2
BRANCH   6   7
ATOM      7  C   UNL     1      -0.848   2.066  25.002  0.00  0.00    +0.091 C 
BRANCH   7   8
ATOM      8  C   UNL     1      -1.614   2.287  24.786  0.00  0.00    +0.227 A 
ATOM      9  N   UNL     1      -1.813   2.818  24.187  0.00  0.00    -0.111 NA
ATOM     10  N   UNL     1      -2.636   2.874  24.161  0.00  0.00    -0.107 NA
ATOM     11  C   UNL     1      -2.944   2.379  24.744  0.00  0.00    +0.250 A 
ATOM     12  O   UNL     1      -2.312   2.015  25.130  0.00  0.00    -0.420 OA
BRANCH  11  13
ATOM     13  C   UNL     1      -3.744   2.265  24.912  0.00  0.00    +0.055 A 
ATOM     14  C   UNL     1      -4.202   2.896  25.184  0.00  0.00    +0.006 A 
ATOM     15  C   UNL     1      -5.001   2.784  25.352  0.00  0.00    +0.015 A 
ATOM     16  C   UNL     1      -5.344   2.040  25.248  0.00  0.00    +0.048 A 
ATOM     17  C   UNL     1      -4.887   1.409  24.976  0.00  0.00    +0.015 A 
ATOM     18  C   UNL     1      -4.086   1.523  24.808  0.00  0.00    +0.006 A 
BRANCH  16  19
ATOM     19  N   UNL     1      -6.144   1.927  25.416  0.00  0.00    -0.304 N 
ATOM     20  C   UNL     1      -6.683   1.822  24.801  0.00  0.00    +0.112 C 
ATOM     21  C   UNL     1      -6.403   1.920  26.199  0.00  0.00    +0.112 C 
ENDBRANCH  16  19
ENDBRANCH  11  13
ENDBRANCH   7   8
ENDBRANCH   6   7
BRANCH  25  26
ATOM     26  C   UNL     1       0.829  -0.095  23.158  0.00  0.00    +0.076 C 
BRANCH  26  27
ATOM     27  N   UNL     1       1.653  -0.101  23.177  0.00  0.00    -0.269 NA
ATOM     28  C   UNL     1       2.051  -0.651  23.647  0.00  0.00    +0.094 C 
ATOM     29  C   UNL     1       2.876  -0.657  23.666  0.00  0.00    +0.111 C 
ATOM     30  N   UNL     1       3.303  -0.113  23.215  0.00  0.00    -0.275 N 
ATOM     31  C   UNL     1       2.905   0.435  22.745  0.00  0.00    +0.111 C 
ATOM     32  C   UNL     1       2.081   0.441  22.726  0.00  0.00    +0.094 C 
ATOM     33  C   UNL     1       4.128  -0.119  23.234  0.00  0.00    +0.220 A 
ATOM     34  N   UNL     1       4.526  -0.669  23.704  0.00  0.00    -0.212 NA
ATOM     35  C   UNL     1       5.350  -0.675  23.723  0.00  0.00    +0.103 A 
ATOM     36  C   UNL     1       5.778  -0.132  23.272  0.00  0.00    +0.041 A 
ATOM     37  C   UNL     1       5.380   0.417  22.802  0.00  0.00    +0.103 A 
ATOM     38  N   UNL     1       4.555   0.423  22.783  0.00  0.00    -0.212 NA
ENDBRANCH  26  27
ENDBRANCH  25  26
TORSDOF 7
ENDMDL
MODEL 9
REMARK VINA RESULT:      -5.6     16.486     17.849
REMARK  Name = 
REMARK  7 active torsions:
REMARK  status: ('A' for Active; 'I' for Inactive)
REMARK    1  A    between atoms: C_2  and  C_4
REMARK    2  A    between atoms: C_6  and  C_7
REMARK    3  A    between atoms: C_7  and  C_8
REMARK    4  A    between atoms: C_11  and  C_13
REMARK    5  A    between atoms: C_16  and  N_19
REMARK    6  A    between atoms: C_25  and  C_26
REMARK    7  A    between atoms: C_26  and  N_27
REMARK                            x       y       z     vdW  Elec       q    Type
REMARK                         _______ _______ _______ _____ _____    ______ ____
ROOT
ATOM      4  C   UNL     1      -5.061  -9.699   9.675  0.00  0.00    +0.006 C 
ATOM      5  C   UNL     1      -4.850 -10.205  10.291  0.00  0.00    +0.005 C 
ATOM      6  C   UNL     1      -5.330 -10.265  10.959  0.00  0.00    +0.027 C 
ATOM     22  C   UNL     1      -6.021  -9.818  11.011  0.00  0.00    -0.048 C 
ATOM     23  C   UNL     1      -6.502  -9.877  11.679  0.00  0.00    +0.026 C 
ATOM     24  C   UNL     1      -6.233  -9.311  10.395  0.00  0.00    -0.034 C 
ATOM     25  C   UNL     1      -5.752  -9.252   9.727  0.00  0.00    +0.037 C 
ENDROOT
BRANCH   4   2
ATOM      1  C   UNL     1      -4.615 -10.219   8.421  0.00  0.00    +0.000 C 
ATOM      2  C   UNL     1      -4.581  -9.640   9.007  0.00  0.00    +0.000 C 
ATOM      3  C   UNL     1      -4.066  -8.999   8.925  0.00  0.00    +0.000 C 
ENDBRANCH   4   2
BRANCH   6   7
ATOM      7  C   UNL     1      -5.119 -10.771  11.575  0.00  0.00    +0.091 C 
BRANCH   7   8
ATOM      8  C   UNL     1      -4.357 -10.740  11.892  0.00  0.00    +0.227 A 
ATOM      9  N   UNL     1      -3.653 -10.779  11.465  0.00  0.00    -0.111 NA
ATOM     10  N   UNL     1      -3.027 -10.728  12.001  0.00  0.00    -0.107 NA
ATOM     11  C   UNL     1      -3.346 -10.657  12.759  0.00  0.00    +0.250 A 
ATOM     12  O   UNL     1      -4.169 -10.665  12.691  0.00  0.00    -0.420 OA
BRANCH  11  13
ATOM     13  C   UNL     1      -2.918 -10.590  13.460  0.00  0.00    +0.055 A 
ATOM     14  C   UNL     1      -2.128 -10.352  13.441  0.00  0.00    +0.006 A 
ATOM     15  C   UNL     1      -1.699 -10.285  14.143  0.00  0.00    +0.015 A 
ATOM     16  C   UNL     1      -2.061 -10.457  14.864  0.00  0.00    +0.048 A 
ATOM     17  C   UNL     1      -2.850 -10.695  14.885  0.00  0.00    +0.015 A 
ATOM     18  C   UNL     1      -3.279 -10.762  14.182  0.00  0.00    +0.006 A 
BRANCH  16  19
ATOM     19  N   UNL     1      -1.632 -10.390  15.567  0.00  0.00    -0.304 N 
ATOM     20  C   UNL     1      -0.890 -10.030  15.564  0.00  0.00    +0.112 C 
ATOM     21  C   UNL     1      -1.946 -10.683  16.270  0.00  0.00    +0.112 C 
ENDBRANCH  16  19
ENDBRANCH  11  13
ENDBRANCH   7   8
ENDBRANCH   6   7
BRANCH  25  26
ATOM     26  C   UNL     1      -5.964  -8.745   9.111  0.00  0.00    +0.076 C 
BRANCH  26  27
ATOM     27  N   UNL     1      -6.750  -8.518   9.016  0.00  0.00    -0.269 NA
ATOM     28  C   UNL     1      -7.000  -7.777   9.283  0.00  0.00    +0.094 C 
ATOM     29  C   UNL     1      -7.787  -7.549   9.188  0.00  0.00    +0.111 C 
ATOM     30  N   UNL     1      -8.324  -8.061   8.826  0.00  0.00    -0.275 N 
ATOM     31  C   UNL     1      -8.074  -8.800   8.559  0.00  0.00    +0.111 C 
ATOM     32  C   UNL     1      -7.287  -9.028   8.655  0.00  0.00    +0.094 C 
ATOM     33  C   UNL     1      -9.112  -7.833   8.730  0.00  0.00    +0.220 A 
ATOM     34  N   UNL     1      -9.362  -7.093   8.997  0.00  0.00    -0.212 NA
ATOM     35  C   UNL     1     -10.149  -6.865   8.902  0.00  0.00    +0.103 A 
ATOM     36  C   UNL     1     -10.686  -7.377   8.540  0.00  0.00    +0.041 A 
ATOM     37  C   UNL     1     -10.435  -8.116   8.274  0.00  0.00    +0.103 A 
ATOM     38  N   UNL     1      -9.648  -8.344   8.369  0.00  0.00    -0.212 NA
ENDBRANCH  26  27
ENDBRANCH  25  26
TORSDOF 7
ENDMDL
MODEL 10
REMARK VINA RESULT:      -5.5      1.726      2.807
REMARK  Name = 
REMARK  7 active torsions:
REMARK  status: ('A' for Active; 'I' for Inactive)
REMARK    1  A    between atoms: C_2  and  C_4
REMARK    2  A    between atoms: C_6  and  C_7
REMARK    3  A    between atoms: C_7  and  C_8
REMARK    4  A    between atoms: C_11  and  C_13
REMARK    5  A    between atoms: C_16  and  N_19
REMARK    6  A    between atoms: C_25  and  C_26
REMARK    7  A    between atoms: C_26  and  N_27
REMARK                            x       y       z     vdW  Elec       q    Type
REMARK                         _______ _______ _______ _____ _____    ______ ____
ROOT
ATOM      4  C   UNL     1      -3.055  -1.305  24.558  0.00  0.00    +0.006 C 
ATOM      5  C   UNL     1      -2.252  -1.489  24.568  0.00  0.00    +0.005 C 
ATOM      6  C   UNL     1      -1.717  -0.984  24.943  0.00  0.00    +0.027 C 
ATOM     22  C   UNL     1      -1.988  -0.295  25.308  0.00  0.00    -0.048 C 
ATOM     23  C   UNL     1      -1.454   0.210  25.683  0.00  0.00    +0.026 C 
ATOM     24  C   UNL     1      -2.792  -0.111  25.298  0.00  0.00    -0.034 C 
ATOM     25  C   UNL     1      -3.326  -0.616  24.923  0.00  0.00    +0.037 C 
ENDROOT
BRANCH   4   2
ATOM      1  C   UNL     1      -3.888  -1.616  23.439  0.00  0.00    +0.000 C 
ATOM      2  C   UNL     1      -3.589  -1.810  24.184  0.00  0.00    +0.000 C 
ATOM      3  C   UNL     1      -3.825  -2.510  24.553  0.00  0.00    +0.000 C 
ENDBRANCH   4   2
BRANCH   6   7
ATOM      7  C   UNL     1      -0.914  -1.167  24.953  0.00  0.00    +0.091 C 
BRANCH   7   8
ATOM      8  C   UNL     1      -0.446  -1.009  24.292  0.00  0.00    +0.227 A 
ATOM      9  N   UNL     1      -0.623  -1.215  23.513  0.00  0.00    -0.111 NA
ATOM     10  N   UNL     1      -0.006  -0.950  23.033  0.00  0.00    -0.107 NA
ATOM     11  C   UNL     1       0.552  -0.581  23.516  0.00  0.00    +0.250 A 
ATOM     12  O   UNL     1       0.280  -0.617  24.294  0.00  0.00    -0.420 OA
BRANCH  11  13
ATOM     13  C   UNL     1       1.258  -0.236  23.265  0.00  0.00    +0.055 A 
ATOM     14  C   UNL     1       1.468   0.516  23.533  0.00  0.00    +0.006 A 
ATOM     15  C   UNL     1       2.173   0.862  23.283  0.00  0.00    +0.015 A 
ATOM     16  C   UNL     1       2.670   0.455  22.764  0.00  0.00    +0.048 A 
ATOM     17  C   UNL     1       2.462  -0.296  22.496  0.00  0.00    +0.015 A 
ATOM     18  C   UNL     1       1.755  -0.642  22.747  0.00  0.00    +0.006 A 
BRANCH  16  19
ATOM     19  N   UNL     1       3.377   0.801  22.514  0.00  0.00    -0.304 N 
ATOM     20  C   UNL     1       3.856   0.411  21.968  0.00  0.00    +0.112 C 
ATOM     21  C   UNL     1       3.602   1.537  22.809  0.00  0.00    +0.112 C 
ENDBRANCH  16  19
ENDBRANCH  11  13
ENDBRANCH   7   8
ENDBRANCH   6   7
BRANCH  25  26
ATOM     26  C   UNL     1      -4.130  -0.432  24.913  0.00  0.00    +0.076 C 
BRANCH  26  27
ATOM     27  N   UNL     1      -4.375   0.350  25.000  0.00  0.00    -0.269 NA
ATOM     28  C   UNL     1      -4.096   0.930  24.482  0.00  0.00    +0.094 C 
ATOM     29  C   UNL     1      -4.342   1.712  24.569  0.00  0.00    +0.111 C 
ATOM     30  N   UNL     1      -4.866   1.915  25.173  0.00  0.00    -0.275 N 
ATOM     31  C   UNL     1      -5.144   1.337  25.690  0.00  0.00    +0.111 C 
ATOM     32  C   UNL     1      -4.898   0.554  25.604  0.00  0.00    +0.094 C 
ATOM     33  C   UNL     1      -5.111   2.699  25.260  0.00  0.00    +0.220 A 
ATOM     34  N   UNL     1      -4.833   3.278  24.742  0.00  0.00    -0.212 NA
ATOM     35  C   UNL     1      -5.078   4.061  24.829  0.00  0.00    +0.103 A 
ATOM     36  C   UNL     1      -5.602   4.265  25.433  0.00  0.00    +0.041 A 
ATOM     37  C   UNL     1      -5.880   3.685  25.951  0.00  0.00    +0.103 A 
ATOM     38  N   UNL     1      -5.634   2.903  25.864  0.00  0.00    -0.212 NA
ENDBRANCH  26  27
ENDBRANCH  25  26
TORSDOF 7
ENDMDL
