MODEL 1
REMARK VINA RESULT:     -10.7      0.000      0.000
REMARK  Name = 
REMARK  6 active torsions:
REMARK  status: ('A' for Active; 'I' for Inactive)
REMARK    1  A    between atoms: S_2  and  C_3
REMARK    2  A    between atoms: C_7  and  N_8
REMARK    3  A    between atoms: N_11  and  C_12
REMARK    4  A    between atoms: C_12  and  C_13
REMARK    5  A    between atoms: C_20  and  C_21
REMARK    6  A    between atoms: C_21  and  N_22
REMARK                            x       y       z     vdW  Elec       q    Type
REMARK                         _______ _______ _______ _____ _____    ______ ____
ROOT
ATOM     13  C   UNL     1      -0.597   1.250  23.746  0.00  0.00    +0.079 C 
ATOM     14  C   UNL     1      -1.194   1.348  23.257  0.00  0.00    +0.018 C 
ATOM     15  C   UNL     1      -1.954   1.529  23.471  0.00  0.00    +0.005 C 
ATOM     16  C   UNL     1      -2.494   1.599  22.758  0.00  0.00    +0.017 C 
ATOM     17  C   UNL     1      -1.928   1.496  23.069  0.00  0.00    +0.072 C 
ATOM     18  N   UNL     1      -1.374   1.434  23.956  0.00  0.00    -0.272 NA
ATOM     19  C   UNL     1      -1.771   1.575  24.765  0.00  0.00    +0.073 C 
ATOM     20  C   UNL     1      -2.329   1.663  24.253  0.00  0.00    +0.032 C 
ENDROOT
BRANCH  13  12
ATOM     12  C   UNL     1       0.193   1.088  23.920  0.00  0.00    +0.133 C 
BRANCH  12  11
ATOM      8  N   UNL     1       1.928   0.272  22.877  0.00  0.00    -0.161 NA
ATOM      9  C   UNL     1       1.471   0.714  23.404  0.00  0.00    +0.344 C 
ATOM     10  O   UNL     1       1.837   1.222  23.940  0.00  0.00    -0.249 OA
ATOM     11  N   UNL     1       0.649   0.647  23.393  0.00  0.00    -0.185 NA
BRANCH   8   7
ATOM      3  C   UNL     1       4.030  -0.190  23.237  0.00  0.00    +0.027 A 
ATOM      4  C   UNL     1       4.394   0.473  22.909  0.00  0.00    +0.006 A 
ATOM      5  C   UNL     1       3.936   1.070  22.569  0.00  0.00    +0.002 A 
ATOM      6  C   UNL     1       3.114   1.003  22.559  0.00  0.00    +0.017 A 
ATOM      7  C   UNL     1       2.750   0.339  22.887  0.00  0.00    +0.075 A 
ATOM     36  C   UNL     1       3.208  -0.258  23.227  0.00  0.00    +0.023 A 
BRANCH   3   2
ATOM      1  C   UNL     1       5.189  -0.596  23.968  0.00  0.00    +0.074 C 
ATOM      2  S   UNL     1       4.488  -0.787  23.576  0.00  0.00    -0.113 S 
ENDBRANCH   3   2
ENDBRANCH   8   7
ENDBRANCH  12  11
ENDBRANCH  13  12
BRANCH  20  21
ATOM     21  C   UNL     1      -3.119   1.846  24.403  0.00  0.00    +0.073 C 
BRANCH  21  22
ATOM     22  N   UNL     1      -3.328   2.606  24.647  0.00  0.00    -0.272 NA
ATOM     23  C   UNL     1      -3.256   3.427  24.784  0.00  0.00    +0.074 C 
ATOM     24  C   UNL     1      -4.137   3.603  25.196  0.00  0.00    +0.039 C 
ATOM     25  C   UNL     1      -4.807   3.908  25.545  0.00  0.00    +0.011 C 
ATOM     26  C   UNL     1      -4.578   3.284  25.319  0.00  0.00    +0.054 C 
ATOM     27  C   UNL     1      -3.723   3.130  24.923  0.00  0.00    +0.078 C 
ATOM     28  C   UNL     1      -4.834   2.404  25.249  0.00  0.00    +0.041 A 
ATOM     29  C   UNL     1      -5.470   1.907  25.419  0.00  0.00    +0.013 A 
ATOM     30  C   UNL     1      -5.425   1.104  25.236  0.00  0.00    +0.006 A 
ATOM     31  C   UNL     1      -4.745   0.798  24.883  0.00  0.00    +0.061 A 
ATOM     32  C   UNL     1      -4.109   1.296  24.713  0.00  0.00    +0.261 A 
ATOM     33  O   UNL     1      -3.429   0.990  24.360  0.00  0.00    -0.267 OA
ATOM     34  N   UNL     1      -4.154   2.099  24.896  0.00  0.00    -0.299 N 
ATOM     35  C   UNL     1      -4.396   2.682  25.119  0.00  0.00    +0.110 C 
ENDBRANCH  21  22
ENDBRANCH  20  21
TORSDOF 6
ENDMDL
MODEL 2
REMARK VINA RESULT:     -10.7      0.442      1.288
REMARK  Name = 
REMARK  6 active torsions:
REMARK  status: ('A' for Active; 'I' for Inactive)
REMARK    1  A    between atoms: S_2  and  C_3
REMARK    2  A    between atoms: C_7  and  N_8
REMARK    3  A    between atoms: N_11  and  C_12
REMARK    4  A    between atoms: C_12  and  C_13
REMARK    5  A    between atoms: C_20  and  C_21
REMARK    6  A    between atoms: C_21  and  N_22
REMARK                            x       y       z     vdW  Elec       q    Type
REMARK                         _______ _______ _______ _____ _____    ______ ____
ROOT
ATOM     13  C   UNL     1      -0.636   1.233  23.741  0.00  0.00    +0.079 C 
ATOM     14  C   UNL     1      -1.193   1.443  23.239  0.00  0.00    +0.018 C 
ATOM     15  C   UNL     1      -1.944   1.674  23.438  0.00  0.00    +0.005 C 
ATOM     16  C   UNL     1      -2.433   1.875  22.714  0.00  0.00    +0.017 C 
ATOM     17  C   UNL     1      -1.898   1.683  23.037  0.00  0.00    +0.072 C 
ATOM     18  N   UNL     1      -1.403   1.470  23.935  0.00  0.00    -0.272 NA
ATOM     19  C   UNL     1      -1.830   1.562  24.736  0.00  0.00    +0.073 C 
ATOM     20  C   UNL     1      -2.348   1.760  24.212  0.00  0.00    +0.032 C 
ENDROOT
BRANCH  13  12
ATOM     12  C   UNL     1       0.124   0.976  23.931  0.00  0.00    +0.133 C 
BRANCH  12  11
ATOM      8  N   UNL     1       1.869   0.275  22.824  0.00  0.00    -0.161 NA
ATOM      9  C   UNL     1       1.408   0.655  23.393  0.00  0.00    +0.344 C 
ATOM     10  O   UNL     1       1.768   1.091  23.992  0.00  0.00    -0.249 OA
ATOM     11  N   UNL     1       0.585   0.597  23.362  0.00  0.00    -0.185 NA
BRANCH   8   7
ATOM      3  C   UNL     1       3.959  -0.224  23.208  0.00  0.00    +0.027 A 
ATOM      4  C   UNL     1       4.336   0.448  22.917  0.00  0.00    +0.006 A 
ATOM      5  C   UNL     1       3.891   1.064  22.595  0.00  0.00    +0.002 A 
ATOM      6  C   UNL     1       3.069   1.007  22.564  0.00  0.00    +0.017 A 
ATOM      7  C   UNL     1       2.692   0.333  22.855  0.00  0.00    +0.075 A 
ATOM     36  C   UNL     1       3.137  -0.283  23.178  0.00  0.00    +0.023 A 
BRANCH   3   2
ATOM      1  C   UNL     1       5.103  -0.675  23.937  0.00  0.00    +0.074 C 
ATOM      2  S   UNL     1       4.404  -0.840  23.531  0.00  0.00    -0.113 S 
ENDBRANCH   3   2
ENDBRANCH   8   7
ENDBRANCH  12  11
ENDBRANCH  13  12
BRANCH  20  21
ATOM     21  C   UNL     1      -3.124   2.003  24.346  0.00  0.00    +0.073 C 
BRANCH  21  22
ATOM     22  N   UNL     1      -3.698   1.451  24.562  0.00  0.00    -0.272 NA
ATOM     23  C   UNL     1      -4.063   0.707  24.668  0.00  0.00    +0.074 C 
ATOM     24  C   UNL     1      -4.914   0.996  25.078  0.00  0.00    +0.039 C 
ATOM     25  C   UNL     1      -5.651   1.068  25.418  0.00  0.00    +0.011 C 
ATOM     26  C   UNL     1      -5.129   1.492  25.215  0.00  0.00    +0.054 C 
ATOM     27  C   UNL     1      -4.312   1.197  24.820  0.00  0.00    +0.078 C 
ATOM     28  C   UNL     1      -4.894   2.380  25.180  0.00  0.00    +0.041 A 
ATOM     29  C   UNL     1      -5.185   3.127  25.372  0.00  0.00    +0.013 A 
ATOM     30  C   UNL     1      -4.730   3.798  25.219  0.00  0.00    +0.006 A 
ATOM     31  C   UNL     1      -3.984   3.721  24.874  0.00  0.00    +0.061 A 
ATOM     32  C   UNL     1      -3.693   2.974  24.682  0.00  0.00    +0.261 A 
ATOM     33  O   UNL     1      -2.948   2.897  24.337  0.00  0.00    -0.267 OA
ATOM     34  N   UNL     1      -4.149   2.303  24.835  0.00  0.00    -0.299 N 
ATOM     35  C   UNL     1      -4.660   1.921  25.037  0.00  0.00    +0.110 C 
ENDBRANCH  21  22
ENDBRANCH  20  21
TORSDOF 6
ENDMDL
MODEL 3
REMARK VINA RESULT:     -10.4      0.800      1.110
REMARK  Name = 
REMARK  6 active torsions:
REMARK  status: ('A' for Active; 'I' for Inactive)
REMARK    1  A    between atoms: S_2  and  C_3
REMARK    2  A    between atoms: C_7  and  N_8
REMARK    3  A    between atoms: N_11  and  C_12
REMARK    4  A    between atoms: C_12  and  C_13
REMARK    5  A    between atoms: C_20  and  C_21
REMARK    6  A    between atoms: C_21  and  N_22
REMARK                            x       y       z     vdW  Elec       q    Type
REMARK                         _______ _______ _______ _____ _____    ______ ____
ROOT
ATOM     13  C   UNL     1      -0.207   0.528  23.972  0.00  0.00    +0.079 C 
ATOM     14  C   UNL     1      -0.540   0.432  24.669  0.00  0.00    +0.018 C 
ATOM     15  C   UNL     1      -1.286   0.674  24.872  0.00  0.00    +0.005 C 
ATOM     16  C   UNL     1      -1.483   0.470  25.723  0.00  0.00    +0.017 C 
ATOM     17  C   UNL     1      -1.109   0.494  25.187  0.00  0.00    +0.072 C 
ATOM     18  N   UNL     1      -0.965   0.771  24.187  0.00  0.00    -0.272 NA
ATOM     19  C   UNL     1      -1.623   1.202  23.723  0.00  0.00    +0.073 C 
ATOM     20  C   UNL     1      -1.914   1.088  24.419  0.00  0.00    +0.032 C 
ENDROOT
BRANCH  13  12
ATOM     12  C   UNL     1       0.416   0.448  23.438  0.00  0.00    +0.133 C 
BRANCH  12  11
ATOM      8  N   UNL     1       2.511   1.050  23.319  0.00  0.00    -0.161 NA
ATOM      9  C   UNL     1       1.817   0.617  23.211  0.00  0.00    +0.344 C 
ATOM     10  O   UNL     1       1.829  -0.078  22.768  0.00  0.00    -0.249 OA
ATOM     11  N   UNL     1       1.111   0.881  23.546  0.00  0.00    -0.185 NA
BRANCH   8   7
ATOM      3  C   UNL     1       4.588   0.410  23.124  0.00  0.00    +0.027 A 
ATOM      4  C   UNL     1       4.630   0.259  22.314  0.00  0.00    +0.006 A 
ATOM      5  C   UNL     1       3.964   0.371  21.839  0.00  0.00    +0.002 A 
ATOM      6  C   UNL     1       3.258   0.635  22.174  0.00  0.00    +0.017 A 
ATOM      7  C   UNL     1       3.217   0.786  22.984  0.00  0.00    +0.075 A 
ATOM     36  C   UNL     1       3.883   0.674  23.460  0.00  0.00    +0.023 A 
BRANCH   3   2
ATOM      1  C   UNL     1       5.410  -0.446  23.920  0.00  0.00    +0.074 C 
ATOM      2  S   UNL     1       5.254   0.298  23.599  0.00  0.00    -0.113 S 
ENDBRANCH   3   2
ENDBRANCH   8   7
ENDBRANCH  12  11
ENDBRANCH  13  12
BRANCH  20  21
ATOM     21  C   UNL     1      -2.661   1.309  24.690  0.00  0.00    +0.073 C 
BRANCH  21  22
ATOM     22  N   UNL     1      -2.840   2.106  24.803  0.00  0.00    -0.272 NA
ATOM     23  C   UNL     1      -2.716   2.926  24.902  0.00  0.00    +0.074 C 
ATOM     24  C   UNL     1      -3.653   3.227  24.991  0.00  0.00    +0.039 C 
ATOM     25  C   UNL     1      -4.356   3.629  25.080  0.00  0.00    +0.011 C 
ATOM     26  C   UNL     1      -4.146   2.966  24.983  0.00  0.00    +0.054 C 
ATOM     27  C   UNL     1      -3.235   2.691  24.899  0.00  0.00    +0.078 C 
ATOM     28  C   UNL     1      -4.473   2.112  24.890  0.00  0.00    +0.041 A 
ATOM     29  C   UNL     1      -5.186   1.698  24.875  0.00  0.00    +0.013 A 
ATOM     30  C   UNL     1      -5.185   0.880  24.768  0.00  0.00    +0.006 A 
ATOM     31  C   UNL     1      -4.471   0.476  24.678  0.00  0.00    +0.061 A 
ATOM     32  C   UNL     1      -3.758   0.890  24.694  0.00  0.00    +0.261 A 
ATOM     33  O   UNL     1      -3.045   0.487  24.603  0.00  0.00    -0.267 OA
ATOM     34  N   UNL     1      -3.759   1.709  24.800  0.00  0.00    -0.299 N 
ATOM     35  C   UNL     1      -3.986   2.332  24.893  0.00  0.00    +0.110 C 
ENDBRANCH  21  22
ENDBRANCH  20  21
TORSDOF 6
ENDMDL
MODEL 4
REMARK VINA RESULT:     -10.3      0.900      1.737
REMARK  Name = 
REMARK  6 active torsions:
REMARK  status: ('A' for Active; 'I' for Inactive)
REMARK    1  A    between atoms: S_2  and  C_3
REMARK    2  A    between atoms: C_7  and  N_8
REMARK    3  A    between atoms: N_11  and  C_12
REMARK    4  A    between atoms: C_12  and  C_13
REMARK    5  A    between atoms: C_20  and  C_21
REMARK    6  A    between atoms: C_21  and  N_22
REMARK                            x       y       z     vdW  Elec       q    Type
REMARK                         _______ _______ _______ _____ _____    ______ ____
ROOT
ATOM     13  C   UNL     1       0.085   1.161  24.094  0.00  0.00    +0.079 C 
ATOM     14  C   UNL     1      -0.205   1.472  24.747  0.00  0.00    +0.018 C 
ATOM     15  C   UNL     1      -0.988   1.625  24.889  0.00  0.00    +0.005 C 
ATOM     16  C   UNL     1      -1.115   1.983  25.701  0.00  0.00    +0.017 C 
ATOM     17  C   UNL     1      -0.765   1.733  25.208  0.00  0.00    +0.072 C 
ATOM     18  N   UNL     1      -0.711   1.320  24.247  0.00  0.00    -0.272 NA
ATOM     19  C   UNL     1      -1.465   1.198  23.748  0.00  0.00    +0.073 C 
ATOM     20  C   UNL     1      -1.708   1.505  24.403  0.00  0.00    +0.032 C 
ENDROOT
BRANCH  13  12
ATOM     12  C   UNL     1       0.702   0.888  23.621  0.00  0.00    +0.133 C 
BRANCH  12  11
ATOM      8  N   UNL     1       2.834   1.265  23.345  0.00  0.00    -0.161 NA
ATOM      9  C   UNL     1       2.099   0.891  23.321  0.00  0.00    +0.344 C 
ATOM     10  O   UNL     1       2.026   0.146  22.975  0.00  0.00    -0.249 OA
ATOM     11  N   UNL     1       1.437   1.262  23.645  0.00  0.00    -0.185 NA
BRANCH   8   7
ATOM      3  C   UNL     1       4.789   0.308  23.184  0.00  0.00    +0.027 A 
ATOM      4  C   UNL     1       4.820   0.151  22.375  0.00  0.00    +0.006 A 
ATOM      5  C   UNL     1       4.188   0.365  21.889  0.00  0.00    +0.002 A 
ATOM      6  C   UNL     1       3.526   0.736  22.212  0.00  0.00    +0.017 A 
ATOM      7  C   UNL     1       3.496   0.893  23.022  0.00  0.00    +0.075 A 
ATOM     36  C   UNL     1       4.128   0.679  23.508  0.00  0.00    +0.023 A 
BRANCH   3   2
ATOM      1  C   UNL     1       5.408  -0.628  24.069  0.00  0.00    +0.074 C 
ATOM      2  S   UNL     1       5.421   0.094  23.670  0.00  0.00    -0.113 S 
ENDBRANCH   3   2
ENDBRANCH   8   7
ENDBRANCH  12  11
ENDBRANCH  13  12
BRANCH  20  21
ATOM     21  C   UNL     1      -2.486   1.685  24.610  0.00  0.00    +0.073 C 
BRANCH  21  22
ATOM     22  N   UNL     1      -3.021   1.077  24.771  0.00  0.00    -0.272 NA
ATOM     23  C   UNL     1      -3.298   0.310  24.951  0.00  0.00    +0.074 C 
ATOM     24  C   UNL     1      -4.270   0.484  24.967  0.00  0.00    +0.039 C 
ATOM     25  C   UNL     1      -5.083   0.461  25.015  0.00  0.00    +0.011 C 
ATOM     26  C   UNL     1      -4.584   0.937  24.886  0.00  0.00    +0.054 C 
ATOM     27  C   UNL     1      -3.647   0.753  24.874  0.00  0.00    +0.078 C 
ATOM     28  C   UNL     1      -4.472   1.828  24.687  0.00  0.00    +0.041 A 
ATOM     29  C   UNL     1      -4.909   2.516  24.562  0.00  0.00    +0.013 A 
ATOM     30  C   UNL     1      -4.522   3.224  24.388  0.00  0.00    +0.006 A 
ATOM     31  C   UNL     1      -3.698   3.243  24.340  0.00  0.00    +0.061 A 
ATOM     32  C   UNL     1      -3.262   2.554  24.465  0.00  0.00    +0.261 A 
ATOM     33  O   UNL     1      -2.438   2.573  24.416  0.00  0.00    -0.267 OA
ATOM     34  N   UNL     1      -3.648   1.847  24.638  0.00  0.00    -0.299 N 
ATOM     35  C   UNL     1      -4.143   1.412  24.759  0.00  0.00    +0.110 C 
ENDBRANCH  21  22
ENDBRANCH  20  21
TORSDOF 6
ENDMDL
MODEL 5
REMARK VINA RESULT:     -10.0      3.426      5.047
REMARK  Name = 
REMARK  6 active torsions:
REMARK  status: ('A' for Active; 'I' for Inactive)
REMARK    1  A    between atoms: S_2  and  C_3
REMARK    2  A    between atoms: C_7  and  N_8
REMARK    3  A    between atoms: N_11  and  C_12
REMARK    4  A    between atoms: C_12  and  C_13
REMARK    5  A    between atoms: C_20  and  C_21
REMARK    6  A    between atoms: C_21  and  N_22
REMARK                            x       y       z     vdW  Elec       q    Type
REMARK                         _______ _______ _______ _____ _____    ______ ____
ROOT
ATOM     13  C   UNL     1      -4.674   2.319  24.770  0.00  0.00    +0.079 C 
ATOM     14  C   UNL     1      -5.193   1.785  24.996  0.00  0.00    +0.018 C 
ATOM     15  C   UNL     1      -5.073   0.984  25.004  0.00  0.00    +0.005 C 
ATOM     16  C   UNL     1      -5.795   0.541  25.298  0.00  0.00    +0.017 C 
ATOM     17  C   UNL     1      -5.445   1.069  25.135  0.00  0.00    +0.072 C 
ATOM     18  N   UNL     1      -4.560   1.501  24.782  0.00  0.00    -0.272 NA
ATOM     19  C   UNL     1      -3.845   0.981  24.553  0.00  0.00    +0.073 C 
ATOM     20  C   UNL     1      -4.382   0.490  24.782  0.00  0.00    +0.032 C 
ENDROOT
BRANCH  13  12
ATOM     12  C   UNL     1      -4.429   3.093  24.630  0.00  0.00    +0.133 C 
BRANCH  12  11
ATOM      8  N   UNL     1      -2.742   4.150  25.526  0.00  0.00    -0.161 NA
ATOM      9  C   UNL     1      -3.211   3.758  24.972  0.00  0.00    +0.344 C 
ATOM     10  O   UNL     1      -2.932   3.640  24.205  0.00  0.00    -0.249 OA
ATOM     11  N   UNL     1      -3.960   3.485  25.185  0.00  0.00    -0.185 NA
BRANCH   8   7
ATOM      3  C   UNL     1      -0.613   4.169  25.049  0.00  0.00    +0.027 A 
ATOM      4  C   UNL     1      -0.496   4.969  24.888  0.00  0.00    +0.006 A 
ATOM      5  C   UNL     1      -1.129   5.497  24.939  0.00  0.00    +0.002 A 
ATOM      6  C   UNL     1      -1.878   5.224  25.152  0.00  0.00    +0.017 A 
ATOM      7  C   UNL     1      -1.994   4.423  25.313  0.00  0.00    +0.075 A 
ATOM     36  C   UNL     1      -1.361   3.895  25.262  0.00  0.00    +0.023 A 
BRANCH   3   2
ATOM      1  C   UNL     1       0.151   3.095  25.601  0.00  0.00    +0.074 C 
ATOM      2  S   UNL     1       0.019   3.641  24.997  0.00  0.00    -0.113 S 
ENDBRANCH   3   2
ENDBRANCH   8   7
ENDBRANCH  12  11
ENDBRANCH  13  12
BRANCH  20  21
ATOM     21  C   UNL     1      -4.325  -0.332  24.814  0.00  0.00    +0.073 C 
BRANCH  21  22
ATOM     22  N   UNL     1      -3.858  -0.690  25.393  0.00  0.00    -0.272 NA
ATOM     23  C   UNL     1      -3.423  -0.775  26.101  0.00  0.00    +0.074 C 
ATOM     24  C   UNL     1      -3.120  -1.710  26.000  0.00  0.00    +0.039 C 
ATOM     25  C   UNL     1      -2.796  -2.454  26.066  0.00  0.00    +0.011 C 
ATOM     26  C   UNL     1      -3.192  -2.100  25.608  0.00  0.00    +0.054 C 
ATOM     27  C   UNL     1      -3.477  -1.195  25.721  0.00  0.00    +0.078 C 
ATOM     28  C   UNL     1      -3.616  -2.194  24.798  0.00  0.00    +0.041 A 
ATOM     29  C   UNL     1      -3.741  -2.749  24.201  0.00  0.00    +0.013 A 
ATOM     30  C   UNL     1      -4.193  -2.550  23.540  0.00  0.00    +0.006 A 
ATOM     31  C   UNL     1      -4.520  -1.795  23.476  0.00  0.00    +0.061 A 
ATOM     32  C   UNL     1      -4.396  -1.240  24.073  0.00  0.00    +0.261 A 
ATOM     33  O   UNL     1      -4.723  -0.485  24.009  0.00  0.00    -0.267 OA
ATOM     34  N   UNL     1      -3.944  -1.439  24.734  0.00  0.00    -0.299 N 
ATOM     35  C   UNL     1      -3.566  -1.799  25.154  0.00  0.00    +0.110 C 
ENDBRANCH  21  22
ENDBRANCH  20  21
TORSDOF 6
ENDMDL
