MODEL 1
REMARK VINA RESULT:     -13.0      0.000      0.000
REMARK  Name = 
REMARK  7 active torsions:
REMARK  status: ('A' for Active; 'I' for Inactive)
REMARK    1  A    between atoms: C_2  and  C_3
REMARK    2  A    between atoms: C_3  and  C_4
REMARK    3  A    between atoms: C_4  and  C_5
REMARK    4  A    between atoms: C_12  and  N_15
REMARK    5  A    between atoms: N_18  and  C_19
REMARK    6  A    between atoms: N_25  and  C_26
REMARK    7  A    between atoms: C_26  and  C_27
REMARK                            x       y       z     vdW  Elec       q    Type
REMARK                         _______ _______ _______ _____ _____    ______ ____
ROOT
ATOM      5  C   UNL     1      -0.926   2.759  25.278  0.00  0.00    +0.080 C 
ATOM      6  C   UNL     1      -0.385   3.227  24.867  0.00  0.00    +0.131 C 
ATOM      7  N   UNL     1       0.224   2.874  24.435  0.00  0.00    -0.203 NA
ATOM      8  C   UNL     1       0.291   2.052  24.416  0.00  0.00    +0.256 C 
ATOM      9  O   UNL     1       0.899   1.699  23.985  0.00  0.00    -0.272 OA
ATOM     10  C   UNL     1      -0.250   1.583  24.827  0.00  0.00    +0.138 C 
ATOM     11  C   UNL     1      -0.321   0.766  24.909  0.00  0.00    +0.049 C 
ATOM     12  C   UNL     1      -0.974   0.614  25.391  0.00  0.00    +0.115 C 
ATOM     13  C   UNL     1      -1.306   1.337  25.606  0.00  0.00    +0.094 C 
ATOM     14  N   UNL     1      -0.857   1.937  25.258  0.00  0.00    -0.265 NA
ENDROOT
BRANCH  12  15
ATOM     15  N   UNL     1      -1.247  -0.131  25.616  0.00  0.00    -0.187 NA
ATOM     16  C   UNL     1      -1.861  -0.490  25.199  0.00  0.00    +0.343 C 
ATOM     17  O   UNL     1      -2.204  -0.104  24.555  0.00  0.00    -0.249 OA
ATOM     18  N   UNL     1      -2.133  -1.236  25.425  0.00  0.00    -0.161 NA
BRANCH  18  19
ATOM     19  C   UNL     1      -2.747  -1.595  25.008  0.00  0.00    +0.075 A 
ATOM     20  C   UNL     1      -3.507  -1.273  25.034  0.00  0.00    +0.017 A 
ATOM     21  C   UNL     1      -4.122  -1.632  24.617  0.00  0.00    +0.001 A 
ATOM     22  C   UNL     1      -3.977  -2.313  24.173  0.00  0.00    +0.000 A 
ATOM     23  C   UNL     1      -3.217  -2.634  24.147  0.00  0.00    +0.001 A 
ATOM     24  C   UNL     1      -2.603  -2.275  24.564  0.00  0.00    +0.017 A 
ENDBRANCH  18  19
ENDBRANCH  12  15
BRANCH   5   4
ATOM      4  C   UNL     1      -1.534   3.113  25.709  0.00  0.00    +0.027 C 
BRANCH   4   3
ATOM      3  C   UNL     1      -2.013   3.683  25.355  0.00  0.00    +0.088 C 
BRANCH   3   2
ATOM      1  O   UNL     1      -2.905   4.352  26.249  0.00  0.00    -0.273 OA
ATOM      2  C   UNL     1      -2.777   3.812  25.637  0.00  0.00    +0.242 C 
ATOM     25  N   UNL     1      -3.414   3.404  25.308  0.00  0.00    -0.201 NA
BRANCH  25  26
ATOM     26  C   UNL     1      -4.178   3.533  25.590  0.00  0.00    +0.141 C 
BRANCH  26  27
ATOM     27  C   UNL     1      -4.775   2.987  25.431  0.00  0.00    -0.001 A 
ATOM     28  C   UNL     1      -4.748   2.534  24.743  0.00  0.00    -0.003 A 
ATOM     29  C   UNL     1      -5.346   1.988  24.584  0.00  0.00    -0.000 A 
ATOM     30  C   UNL     1      -5.971   1.894  25.115  0.00  0.00    -0.000 A 
ATOM     31  C   UNL     1      -5.998   2.348  25.804  0.00  0.00    -0.000 A 
ATOM     32  C   UNL     1      -5.400   2.893  25.962  0.00  0.00    -0.003 A 
ENDBRANCH  26  27
ENDBRANCH  25  26
ENDBRANCH   3   2
ENDBRANCH   4   3
ENDBRANCH   5   4
TORSDOF 7
ENDMDL
MODEL 2
REMARK VINA RESULT:     -12.5      1.301      4.689
REMARK  Name = 
REMARK  7 active torsions:
REMARK  status: ('A' for Active; 'I' for Inactive)
REMARK    1  A    between atoms: C_2  and  C_3
REMARK    2  A    between atoms: C_3  and  C_4
REMARK    3  A    between atoms: C_4  and  C_5
REMARK    4  A    between atoms: C_12  and  N_15
REMARK    5  A    between atoms: N_18  and  C_19
REMARK    6  A    between atoms: N_25  and  C_26
REMARK    7  A    between atoms: C_26  and  C_27
REMARK                            x       y       z     vdW  Elec       q    Type
REMARK                         _______ _______ _______ _____ _____    ______ ____
ROOT
ATOM      5  C   UNL     1      -1.897  -1.263  24.406  0.00  0.00    +0.080 C 
ATOM      6  C   UNL     1      -1.650  -2.011  24.652  0.00  0.00    +0.131 C 
ATOM      7  N   UNL     1      -2.202  -2.557  24.933  0.00  0.00    -0.203 NA
ATOM      8  C   UNL     1      -3.001  -2.354  24.967  0.00  0.00    +0.256 C 
ATOM      9  O   UNL     1      -3.553  -2.899  25.248  0.00  0.00    -0.272 OA
ATOM     10  C   UNL     1      -3.248  -1.606  24.721  0.00  0.00    +0.138 C 
ATOM     11  C   UNL     1      -3.993  -1.253  24.691  0.00  0.00    +0.049 C 
ATOM     12  C   UNL     1      -3.901  -0.489  24.391  0.00  0.00    +0.115 C 
ATOM     13  C   UNL     1      -3.100  -0.370  24.236  0.00  0.00    +0.094 C 
ATOM     14  N   UNL     1      -2.696  -1.061  24.440  0.00  0.00    -0.265 NA
ENDROOT
BRANCH  12  15
ATOM     15  N   UNL     1      -4.505   0.059  24.269  0.00  0.00    -0.187 NA
ATOM     16  C   UNL     1      -4.476   0.795  24.640  0.00  0.00    +0.343 C 
ATOM     17  O   UNL     1      -3.843   0.985  25.133  0.00  0.00    -0.249 OA
ATOM     18  N   UNL     1      -5.082   1.344  24.517  0.00  0.00    -0.161 NA
BRANCH  18  19
ATOM     19  C   UNL     1      -5.053   2.079  24.887  0.00  0.00    +0.075 A 
ATOM     20  C   UNL     1      -5.446   2.197  25.603  0.00  0.00    +0.017 A 
ATOM     21  C   UNL     1      -5.417   2.934  25.974  0.00  0.00    +0.001 A 
ATOM     22  C   UNL     1      -4.995   3.553  25.628  0.00  0.00    +0.000 A 
ATOM     23  C   UNL     1      -4.602   3.435  24.913  0.00  0.00    +0.001 A 
ATOM     24  C   UNL     1      -4.631   2.699  24.542  0.00  0.00    +0.017 A 
ENDBRANCH  18  19
ENDBRANCH  12  15
BRANCH   5   4
ATOM      4  C   UNL     1      -1.344  -0.719  24.125  0.00  0.00    +0.027 C 
BRANCH   4   3
ATOM      3  C   UNL     1      -0.698  -0.509  24.592  0.00  0.00    +0.088 C 
BRANCH   3   2
ATOM      1  O   UNL     1       0.317   0.205  23.883  0.00  0.00    -0.273 OA
ATOM      2  C   UNL     1      -0.291   0.192  24.441  0.00  0.00    +0.242 C 
ATOM     25  N   UNL     1      -0.491   0.882  24.848  0.00  0.00    -0.201 NA
BRANCH  25  26
ATOM     26  C   UNL     1      -0.084   1.583  24.698  0.00  0.00    +0.141 C 
BRANCH  26  27
ATOM     27  C   UNL     1      -0.399   2.305  24.945  0.00  0.00    -0.001 A 
ATOM     28  C   UNL     1      -0.583   2.424  25.740  0.00  0.00    -0.003 A 
ATOM     29  C   UNL     1      -0.898   3.146  25.987  0.00  0.00    -0.000 A 
ATOM     30  C   UNL     1      -1.028   3.748  25.438  0.00  0.00    -0.000 A 
ATOM     31  C   UNL     1      -0.844   3.629  24.642  0.00  0.00    -0.000 A 
ATOM     32  C   UNL     1      -0.530   2.907  24.396  0.00  0.00    -0.003 A 
ENDBRANCH  26  27
ENDBRANCH  25  26
ENDBRANCH   3   2
ENDBRANCH   4   3
ENDBRANCH   5   4
TORSDOF 7
ENDMDL
MODEL 3
REMARK VINA RESULT:     -12.2      1.148      4.155
REMARK  Name = 
REMARK  7 active torsions:
REMARK  status: ('A' for Active; 'I' for Inactive)
REMARK    1  A    between atoms: C_2  and  C_3
REMARK    2  A    between atoms: C_3  and  C_4
REMARK    3  A    between atoms: C_4  and  C_5
REMARK    4  A    between atoms: C_12  and  N_15
REMARK    5  A    between atoms: N_18  and  C_19
REMARK    6  A    between atoms: N_25  and  C_26
REMARK    7  A    between atoms: C_26  and  C_27
REMARK                            x       y       z     vdW  Elec       q    Type
REMARK                         _______ _______ _______ _____ _____    ______ ____
ROOT
ATOM      5  C   UNL     1      -0.412   1.606  24.407  0.00  0.00    +0.080 C 
ATOM      6  C   UNL     1       0.306   1.869  24.717  0.00  0.00    +0.131 C 
ATOM      7  N   UNL     1       0.377   2.645  24.992  0.00  0.00    -0.203 NA
ATOM      8  C   UNL     1      -0.270   3.155  24.957  0.00  0.00    +0.256 C 
ATOM      9  O   UNL     1      -0.198   3.929  25.232  0.00  0.00    -0.272 OA
ATOM     10  C   UNL     1      -0.988   2.892  24.647  0.00  0.00    +0.138 C 
ATOM     11  C   UNL     1      -1.715   3.267  24.543  0.00  0.00    +0.049 C 
ATOM     12  C   UNL     1      -2.236   2.724  24.203  0.00  0.00    +0.115 C 
ATOM     13  C   UNL     1      -1.830   2.013  24.098  0.00  0.00    +0.094 C 
ATOM     14  N   UNL     1      -1.059   2.118  24.373  0.00  0.00    -0.265 NA
ENDROOT
BRANCH  12  15
ATOM     15  N   UNL     1      -3.023   2.867  24.005  0.00  0.00    -0.187 NA
ATOM     16  C   UNL     1      -3.628   2.613  24.505  0.00  0.00    +0.343 C 
ATOM     17  O   UNL     1      -3.447   2.216  25.204  0.00  0.00    -0.249 OA
ATOM     18  N   UNL     1      -4.417   2.757  24.305  0.00  0.00    -0.161 NA
BRANCH  18  19
ATOM     19  C   UNL     1      -5.021   2.504  24.805  0.00  0.00    +0.075 A 
ATOM     20  C   UNL     1      -5.300   3.002  25.401  0.00  0.00    +0.017 A 
ATOM     21  C   UNL     1      -5.905   2.748  25.901  0.00  0.00    +0.001 A 
ATOM     22  C   UNL     1      -6.232   1.996  25.806  0.00  0.00    +0.000 A 
ATOM     23  C   UNL     1      -5.952   1.498  25.210  0.00  0.00    +0.001 A 
ATOM     24  C   UNL     1      -5.347   1.752  24.710  0.00  0.00    +0.017 A 
ENDBRANCH  18  19
ENDBRANCH  12  15
BRANCH   5   4
ATOM      4  C   UNL     1      -0.483   0.831  24.133  0.00  0.00    +0.027 C 
BRANCH   4   3
ATOM      3  C   UNL     1      -0.249   0.201  24.610  0.00  0.00    +0.088 C 
BRANCH   3   2
ATOM      1  O   UNL     1      -0.069  -1.038  23.920  0.00  0.00    -0.273 OA
ATOM      2  C   UNL     1      -0.504  -0.564  24.438  0.00  0.00    +0.242 C 
ATOM     25  N   UNL     1      -1.195  -0.856  24.782  0.00  0.00    -0.201 NA
BRANCH  25  26
ATOM     26  C   UNL     1      -1.450  -1.621  24.610  0.00  0.00    +0.141 C 
BRANCH  26  27
ATOM     27  C   UNL     1      -2.232  -1.839  24.759  0.00  0.00    -0.001 A 
ATOM     28  C   UNL     1      -2.683  -1.414  25.303  0.00  0.00    -0.003 A 
ATOM     29  C   UNL     1      -3.465  -1.632  25.451  0.00  0.00    -0.000 A 
ATOM     30  C   UNL     1      -3.796  -2.275  25.054  0.00  0.00    -0.000 A 
ATOM     31  C   UNL     1      -3.344  -2.701  24.509  0.00  0.00    -0.000 A 
ATOM     32  C   UNL     1      -2.563  -2.482  24.362  0.00  0.00    -0.003 A 
ENDBRANCH  26  27
ENDBRANCH  25  26
ENDBRANCH   3   2
ENDBRANCH   4   3
ENDBRANCH   5   4
TORSDOF 7
ENDMDL
MODEL 4
REMARK VINA RESULT:     -12.2      1.348      4.030
REMARK  Name = 
REMARK  7 active torsions:
REMARK  status: ('A' for Active; 'I' for Inactive)
REMARK    1  A    between atoms: C_2  and  C_3
REMARK    2  A    between atoms: C_3  and  C_4
REMARK    3  A    between atoms: C_4  and  C_5
REMARK    4  A    between atoms: C_12  and  N_15
REMARK    5  A    between atoms: N_18  and  C_19
REMARK    6  A    between atoms: N_25  and  C_26
REMARK    7  A    between atoms: C_26  and  C_27
REMARK                            x       y       z     vdW  Elec       q    Type
REMARK                         _______ _______ _______ _____ _____    ______ ____
ROOT
ATOM      5  C   UNL     1      -1.693  -0.718  24.851  0.00  0.00    +0.080 C 
ATOM      6  C   UNL     1      -1.480  -1.339  24.352  0.00  0.00    +0.131 C 
ATOM      7  N   UNL     1      -0.752  -1.324  23.961  0.00  0.00    -0.203 NA
ATOM      8  C   UNL     1      -0.240  -0.687  24.070  0.00  0.00    +0.256 C 
ATOM      9  O   UNL     1       0.486  -0.672  23.679  0.00  0.00    -0.272 OA
ATOM     10  C   UNL     1      -0.454  -0.065  24.568  0.00  0.00    +0.138 C 
ATOM     11  C   UNL     1      -0.065   0.631  24.781  0.00  0.00    +0.049 C 
ATOM     12  C   UNL     1      -0.552   1.045  25.303  0.00  0.00    +0.115 C 
ATOM     13  C   UNL     1      -1.241   0.606  25.413  0.00  0.00    +0.094 C 
ATOM     14  N   UNL     1      -1.180  -0.081  24.959  0.00  0.00    -0.265 NA
ENDROOT
BRANCH  12  15
ATOM     15  N   UNL     1      -0.379   1.772  25.653  0.00  0.00    -0.187 NA
ATOM     16  C   UNL     1      -0.775   2.453  25.409  0.00  0.00    +0.343 C 
ATOM     17  O   UNL     1      -1.345   2.409  24.814  0.00  0.00    -0.249 OA
ATOM     18  N   UNL     1      -0.601   3.180  25.759  0.00  0.00    -0.161 NA
BRANCH  18  19
ATOM     19  C   UNL     1      -0.997   3.861  25.515  0.00  0.00    +0.075 A 
ATOM     20  C   UNL     1      -1.758   4.018  25.793  0.00  0.00    +0.017 A 
ATOM     21  C   UNL     1      -2.154   4.699  25.549  0.00  0.00    +0.001 A 
ATOM     22  C   UNL     1      -1.789   5.224  25.026  0.00  0.00    +0.000 A 
ATOM     23  C   UNL     1      -1.029   5.066  24.748  0.00  0.00    +0.001 A 
ATOM     24  C   UNL     1      -0.633   4.385  24.993  0.00  0.00    +0.017 A 
ENDBRANCH  18  19
ENDBRANCH  12  15
BRANCH   5   4
ATOM      4  C   UNL     1      -2.420  -0.734  25.241  0.00  0.00    +0.027 C 
BRANCH   4   3
ATOM      3  C   UNL     1      -3.120  -0.798  24.809  0.00  0.00    +0.088 C 
BRANCH   3   2
ATOM      1  O   UNL     1      -4.250  -0.972  25.666  0.00  0.00    -0.273 OA
ATOM      2  C   UNL     1      -3.827  -0.514  25.124  0.00  0.00    +0.242 C 
ATOM     25  N   UNL     1      -4.112   0.227  24.900  0.00  0.00    -0.201 NA
BRANCH  25  26
ATOM     26  C   UNL     1      -4.819   0.510  25.215  0.00  0.00    +0.141 C 
BRANCH  26  27
ATOM     27  C   UNL     1      -4.998   1.314  25.171  0.00  0.00    -0.001 A 
ATOM     28  C   UNL     1      -4.734   1.762  24.532  0.00  0.00    -0.003 A 
ATOM     29  C   UNL     1      -4.913   2.566  24.488  0.00  0.00    -0.000 A 
ATOM     30  C   UNL     1      -5.358   2.922  25.084  0.00  0.00    -0.000 A 
ATOM     31  C   UNL     1      -5.623   2.474  25.725  0.00  0.00    -0.000 A 
ATOM     32  C   UNL     1      -5.443   1.670  25.768  0.00  0.00    -0.003 A 
ENDBRANCH  26  27
ENDBRANCH  25  26
ENDBRANCH   3   2
ENDBRANCH   4   3
ENDBRANCH   5   4
TORSDOF 7
ENDMDL
MODEL 5
REMARK VINA RESULT:     -12.1      1.516      3.941
REMARK  Name = 
REMARK  7 active torsions:
REMARK  status: ('A' for Active; 'I' for Inactive)
REMARK    1  A    between atoms: C_2  and  C_3
REMARK    2  A    between atoms: C_3  and  C_4
REMARK    3  A    between atoms: C_4  and  C_5
REMARK    4  A    between atoms: C_12  and  N_15
REMARK    5  A    between atoms: N_18  and  C_19
REMARK    6  A    between atoms: N_25  and  C_26
REMARK    7  A    between atoms: C_26  and  C_27
REMARK                            x       y       z     vdW  Elec       q    Type
REMARK                         _______ _______ _______ _____ _____    ______ ____
ROOT
ATOM      5  C   UNL     1      -4.484   3.130  25.426  0.00  0.00    +0.080 C 
ATOM      6  C   UNL     1      -4.986   3.505  25.962  0.00  0.00    +0.131 C 
ATOM      7  N   UNL     1      -5.664   3.118  26.233  0.00  0.00    -0.203 NA
ATOM      8  C   UNL     1      -5.837   2.357  25.966  0.00  0.00    +0.256 C 
ATOM      9  O   UNL     1      -6.514   1.971  26.236  0.00  0.00    -0.272 OA
ATOM     10  C   UNL     1      -5.335   1.982  25.430  0.00  0.00    +0.138 C 
ATOM     11  C   UNL     1      -5.364   1.239  25.072  0.00  0.00    +0.049 C 
ATOM     12  C   UNL     1      -4.704   1.167  24.581  0.00  0.00    +0.115 C 
ATOM     13  C   UNL     1      -4.268   1.865  24.635  0.00  0.00    +0.094 C 
ATOM     14  N   UNL     1      -4.658   2.369  25.160  0.00  0.00    -0.265 NA
ENDROOT
BRANCH  12  15
ATOM     15  N   UNL     1      -4.515   0.511  24.118  0.00  0.00    -0.187 NA
ATOM     16  C   UNL     1      -4.080  -0.111  24.441  0.00  0.00    +0.343 C 
ATOM     17  O   UNL     1      -3.834  -0.078  25.227  0.00  0.00    -0.249 OA
ATOM     18  N   UNL     1      -3.891  -0.767  23.977  0.00  0.00    -0.161 NA
BRANCH  18  19
ATOM     19  C   UNL     1      -3.457  -1.389  24.300  0.00  0.00    +0.075 A 
ATOM     20  C   UNL     1      -2.636  -1.329  24.364  0.00  0.00    +0.017 A 
ATOM     21  C   UNL     1      -2.201  -1.951  24.687  0.00  0.00    +0.001 A 
ATOM     22  C   UNL     1      -2.586  -2.634  24.946  0.00  0.00    +0.000 A 
ATOM     23  C   UNL     1      -3.406  -2.693  24.881  0.00  0.00    +0.001 A 
ATOM     24  C   UNL     1      -3.841  -2.071  24.558  0.00  0.00    +0.017 A 
ENDBRANCH  18  19
ENDBRANCH  12  15
BRANCH   5   4
ATOM      4  C   UNL     1      -3.807   3.517  25.156  0.00  0.00    +0.027 C 
BRANCH   4   3
ATOM      3  C   UNL     1      -3.330   3.932  25.685  0.00  0.00    +0.088 C 
BRANCH   3   2
ATOM      1  O   UNL     1      -2.359   4.870  25.217  0.00  0.00    -0.273 OA
ATOM      2  C   UNL     1      -2.551   4.113  25.484  0.00  0.00    +0.242 C 
ATOM     25  N   UNL     1      -1.963   3.538  25.550  0.00  0.00    -0.201 NA
BRANCH  25  26
ATOM     26  C   UNL     1      -1.184   3.718  25.349  0.00  0.00    +0.141 C 
BRANCH  26  27
ATOM     27  C   UNL     1      -0.631   3.113  25.251  0.00  0.00    -0.001 A 
ATOM     28  C   UNL     1      -0.398   2.885  24.494  0.00  0.00    -0.003 A 
ATOM     29  C   UNL     1       0.154   2.281  24.397  0.00  0.00    -0.000 A 
ATOM     30  C   UNL     1       0.474   1.904  25.057  0.00  0.00    -0.000 A 
ATOM     31  C   UNL     1       0.240   2.132  25.816  0.00  0.00    -0.000 A 
ATOM     32  C   UNL     1      -0.312   2.737  25.912  0.00  0.00    -0.003 A 
ENDBRANCH  26  27
ENDBRANCH  25  26
ENDBRANCH   3   2
ENDBRANCH   4   3
ENDBRANCH   5   4
TORSDOF 7
ENDMDL
