MODEL 1
REMARK VINA RESULT:     -12.9      0.000      0.000
REMARK  Name = 
REMARK  3 active torsions:
REMARK  status: ('A' for Active; 'I' for Inactive)
REMARK    1  A    between atoms: C_2  and  N_4
REMARK    2  A    between atoms: C_12  and  C_13
REMARK    3  A    between atoms: C_15  and  C_18
REMARK                            x       y       z     vdW  Elec       q    Type
REMARK                         _______ _______ _______ _____ _____    ______ ____
ROOT
ATOM      4  N   UNL     1      -2.001   2.514  25.074  0.00  0.00    -0.190 NA
ATOM      5  C   UNL     1      -2.616   2.014  24.845  0.00  0.00    +0.324 C 
ATOM      6  O   UNL     1      -2.447   1.279  24.512  0.00  0.00    -0.251 OA
ATOM      7  N   UNL     1      -3.399   2.250  24.949  0.00  0.00    -0.250 N 
ATOM      8  C   UNL     1      -3.568   2.985  25.281  0.00  0.00    +0.143 C 
ATOM      9  C   UNL     1      -4.352   3.222  25.385  0.00  0.00    +0.094 A 
ATOM     10  C   UNL     1      -4.967   2.722  25.156  0.00  0.00    +0.078 A 
ATOM     11  C   UNL     1      -4.798   1.985  24.823  0.00  0.00    +0.077 C 
ATOM     12  C   UNL     1      -4.014   1.750  24.720  0.00  0.00    +0.162 C 
ATOM     25  N   UNL     1      -5.679   3.100  25.325  0.00  0.00    -0.227 NA
ATOM     26  C   UNL     1      -5.505   3.834  25.659  0.00  0.00    +0.198 A 
ATOM     27  N   UNL     1      -4.685   3.909  25.695  0.00  0.00    -0.225 NA
ENDROOT
BRANCH  12  13
ATOM     13  C   UNL     1      -3.846   1.014  24.387  0.00  0.00    +0.255 A 
ATOM     14  N   UNL     1      -3.935   0.282  24.756  0.00  0.00    -0.189 NA
ATOM     15  C   UNL     1      -3.703  -0.303  24.223  0.00  0.00    +0.203 A 
ATOM     16  N   UNL     1      -3.470   0.067  23.524  0.00  0.00    -0.056 NA
ATOM     17  O   UNL     1      -3.558   0.882  23.624  0.00  0.00    -0.335 OA
BRANCH  15  18
ATOM     18  C   UNL     1      -3.704  -1.116  24.364  0.00  0.00    +0.039 A 
ATOM     19  C   UNL     1      -3.340  -1.417  25.040  0.00  0.00    +0.005 A 
ATOM     20  C   UNL     1      -3.341  -2.231  25.181  0.00  0.00    +0.030 A 
ATOM     21  C   UNL     1      -3.707  -2.741  24.647  0.00  0.00    +0.140 A 
ATOM     22  F   UNL     1      -3.708  -3.555  24.788  0.00  0.00    -0.204 F 
ATOM     23  C   UNL     1      -4.072  -2.440  23.972  0.00  0.00    +0.030 A 
ATOM     24  C   UNL     1      -4.071  -1.627  23.830  0.00  0.00    +0.005 A 
ENDBRANCH  15  18
ENDBRANCH  12  13
BRANCH   4   2
ATOM      1  C   UNL     1      -0.811   2.485  24.281  0.00  0.00    +0.023 C 
ATOM      2  C   UNL     1      -1.217   2.279  24.970  0.00  0.00    +0.097 C 
ATOM      3  C   UNL     1      -0.839   1.837  25.555  0.00  0.00    +0.023 C 
ENDBRANCH   4   2
TORSDOF 3
ENDMDL
MODEL 2
REMARK VINA RESULT:     -12.3      0.865      2.471
REMARK  Name = 
REMARK  3 active torsions:
REMARK  status: ('A' for Active; 'I' for Inactive)
REMARK    1  A    between atoms: C_2  and  N_4
REMARK    2  A    between atoms: C_12  and  C_13
REMARK    3  A    between atoms: C_15  and  C_18
REMARK                            x       y       z     vdW  Elec       q    Type
REMARK                         _______ _______ _______ _____ _____    ______ ____
ROOT
ATOM      4  N   UNL     1      -4.685   2.778  25.437  0.00  0.00    -0.190 NA
ATOM      5  C   UNL     1      -4.155   2.256  25.080  0.00  0.00    +0.324 C 
ATOM      6  O   UNL     1      -4.423   1.532  24.790  0.00  0.00    -0.251 OA
ATOM      7  N   UNL     1      -3.359   2.459  25.013  0.00  0.00    -0.250 N 
ATOM      8  C   UNL     1      -3.092   3.183  25.303  0.00  0.00    +0.143 C 
ATOM      9  C   UNL     1      -2.295   3.386  25.236  0.00  0.00    +0.094 A 
ATOM     10  C   UNL     1      -1.765   2.864  24.879  0.00  0.00    +0.078 A 
ATOM     11  C   UNL     1      -2.033   2.139  24.588  0.00  0.00    +0.077 C 
ATOM     12  C   UNL     1      -2.829   1.937  24.656  0.00  0.00    +0.162 C 
ATOM     25  N   UNL     1      -1.018   3.211  24.891  0.00  0.00    -0.227 NA
ATOM     26  C   UNL     1      -1.084   3.948  25.256  0.00  0.00    +0.198 A 
ATOM     27  N   UNL     1      -1.874   4.055  25.469  0.00  0.00    -0.225 NA
ENDROOT
BRANCH  12  13
ATOM     13  C   UNL     1      -3.096   1.212  24.366  0.00  0.00    +0.255 A 
ATOM     14  N   UNL     1      -3.051   0.486  24.754  0.00  0.00    -0.189 NA
ATOM     15  C   UNL     1      -3.382  -0.088  24.264  0.00  0.00    +0.203 A 
ATOM     16  N   UNL     1      -3.632   0.282  23.571  0.00  0.00    -0.056 NA
ATOM     17  O   UNL     1      -3.456   1.087  23.633  0.00  0.00    -0.335 OA
BRANCH  15  18
ATOM     18  C   UNL     1      -3.450  -0.892  24.436  0.00  0.00    +0.039 A 
ATOM     19  C   UNL     1      -3.033  -1.215  25.070  0.00  0.00    +0.005 A 
ATOM     20  C   UNL     1      -3.102  -2.019  25.242  0.00  0.00    +0.030 A 
ATOM     21  C   UNL     1      -3.588  -2.500  24.781  0.00  0.00    +0.140 A 
ATOM     22  F   UNL     1      -3.657  -3.304  24.953  0.00  0.00    -0.204 F 
ATOM     23  C   UNL     1      -4.005  -2.177  24.147  0.00  0.00    +0.030 A 
ATOM     24  C   UNL     1      -3.937  -1.373  23.974  0.00  0.00    +0.005 A 
ENDBRANCH  15  18
ENDBRANCH  12  13
BRANCH   4   2
ATOM      1  C   UNL     1      -5.765   2.238  26.202  0.00  0.00    +0.023 C 
ATOM      2  C   UNL     1      -5.483   2.576  25.505  0.00  0.00    +0.097 C 
ATOM      3  C   UNL     1      -5.996   2.711  24.874  0.00  0.00    +0.023 C 
ENDBRANCH   4   2
TORSDOF 3
ENDMDL
MODEL 3
REMARK VINA RESULT:     -12.3      1.991      4.226
REMARK  Name = 
REMARK  3 active torsions:
REMARK  status: ('A' for Active; 'I' for Inactive)
REMARK    1  A    between atoms: C_2  and  N_4
REMARK    2  A    between atoms: C_12  and  C_13
REMARK    3  A    between atoms: C_15  and  C_18
REMARK                            x       y       z     vdW  Elec       q    Type
REMARK                         _______ _______ _______ _____ _____    ______ ____
ROOT
ATOM      4  N   UNL     1      -1.217   0.090  24.850  0.00  0.00    -0.190 NA
ATOM      5  C   UNL     1      -2.002   0.235  24.643  0.00  0.00    +0.324 C 
ATOM      6  O   UNL     1      -2.262   1.010  24.531  0.00  0.00    -0.251 OA
ATOM      7  N   UNL     1      -2.526  -0.394  24.548  0.00  0.00    -0.250 N 
ATOM      8  C   UNL     1      -2.266  -1.169  24.660  0.00  0.00    +0.143 C 
ATOM      9  C   UNL     1      -2.790  -1.799  24.565  0.00  0.00    +0.094 A 
ATOM     10  C   UNL     1      -3.575  -1.654  24.357  0.00  0.00    +0.078 A 
ATOM     11  C   UNL     1      -3.836  -0.878  24.245  0.00  0.00    +0.077 C 
ATOM     12  C   UNL     1      -3.311  -0.249  24.340  0.00  0.00    +0.162 C 
ATOM     25  N   UNL     1      -3.963  -2.379  24.303  0.00  0.00    -0.227 NA
ATOM     26  C   UNL     1      -3.418  -2.973  24.476  0.00  0.00    +0.198 A 
ATOM     27  N   UNL     1      -2.693  -2.614  24.638  0.00  0.00    -0.225 NA
ENDROOT
BRANCH  12  13
ATOM     13  C   UNL     1      -3.573   0.525  24.228  0.00  0.00    +0.255 A 
ATOM     14  N   UNL     1      -4.013   0.972  24.764  0.00  0.00    -0.189 NA
ATOM     15  C   UNL     1      -4.152   1.712  24.426  0.00  0.00    +0.203 A 
ATOM     16  N   UNL     1      -3.797   1.723  23.682  0.00  0.00    -0.056 NA
ATOM     17  O   UNL     1      -3.439   0.989  23.559  0.00  0.00    -0.335 OA
BRANCH  15  18
ATOM     18  C   UNL     1      -4.571   2.332  24.773  0.00  0.00    +0.039 A 
ATOM     19  C   UNL     1      -5.325   2.199  25.081  0.00  0.00    +0.005 A 
ATOM     20  C   UNL     1      -5.744   2.819  25.428  0.00  0.00    +0.030 A 
ATOM     21  C   UNL     1      -5.409   3.572  25.467  0.00  0.00    +0.140 A 
ATOM     22  F   UNL     1      -5.829   4.192  25.814  0.00  0.00    -0.204 F 
ATOM     23  C   UNL     1      -4.656   3.705  25.160  0.00  0.00    +0.030 A 
ATOM     24  C   UNL     1      -4.236   3.085  24.813  0.00  0.00    +0.005 A 
ENDBRANCH  15  18
ENDBRANCH  12  13
BRANCH   4   2
ATOM      1  C   UNL     1      -0.205   0.949  24.320  0.00  0.00    +0.023 C 
ATOM      2  C   UNL     1      -0.692   0.720  24.945  0.00  0.00    +0.097 C 
ATOM      3  C   UNL     1      -0.655   1.119  25.666  0.00  0.00    +0.023 C 
ENDBRANCH   4   2
TORSDOF 3
ENDMDL
MODEL 4
REMARK VINA RESULT:     -12.0      2.269      4.807
REMARK  Name = 
REMARK  3 active torsions:
REMARK  status: ('A' for Active; 'I' for Inactive)
REMARK    1  A    between atoms: C_2  and  N_4
REMARK    2  A    between atoms: C_12  and  C_13
REMARK    3  A    between atoms: C_15  and  C_18
REMARK                            x       y       z     vdW  Elec       q    Type
REMARK                         _______ _______ _______ _____ _____    ______ ____
ROOT
ATOM      4  N   UNL     1      -5.199   1.164  25.314  0.00  0.00    -0.190 NA
ATOM      5  C   UNL     1      -4.436   1.276  25.021  0.00  0.00    +0.324 C 
ATOM      6  O   UNL     1      -4.194   2.026  24.775  0.00  0.00    -0.251 OA
ATOM      7  N   UNL     1      -3.915   0.638  24.974  0.00  0.00    -0.250 N 
ATOM      8  C   UNL     1      -4.157  -0.111  25.219  0.00  0.00    +0.143 C 
ATOM      9  C   UNL     1      -3.637  -0.749  25.172  0.00  0.00    +0.094 A 
ATOM     10  C   UNL     1      -2.874  -0.638  24.879  0.00  0.00    +0.078 A 
ATOM     11  C   UNL     1      -2.631   0.112  24.633  0.00  0.00    +0.077 C 
ATOM     12  C   UNL     1      -3.152   0.749  24.681  0.00  0.00    +0.162 C 
ATOM     25  N   UNL     1      -2.485  -1.365  24.897  0.00  0.00    -0.227 NA
ATOM     26  C   UNL     1      -3.008  -1.926  25.201  0.00  0.00    +0.198 A 
ATOM     27  N   UNL     1      -3.719  -1.545  25.371  0.00  0.00    -0.225 NA
ENDROOT
BRANCH  12  13
ATOM     13  C   UNL     1      -2.909   1.498  24.435  0.00  0.00    +0.255 A 
ATOM     14  N   UNL     1      -2.444   2.024  24.867  0.00  0.00    -0.189 NA
ATOM     15  C   UNL     1      -2.336   2.704  24.412  0.00  0.00    +0.203 A 
ATOM     16  N   UNL     1      -2.736   2.599  23.699  0.00  0.00    -0.056 NA
ATOM     17  O   UNL     1      -3.090   1.853  23.712  0.00  0.00    -0.335 OA
BRANCH  15  18
ATOM     18  C   UNL     1      -1.905   3.372  24.633  0.00  0.00    +0.039 A 
ATOM     19  C   UNL     1      -2.286   4.007  24.997  0.00  0.00    +0.005 A 
ATOM     20  C   UNL     1      -1.853   4.675  25.217  0.00  0.00    +0.030 A 
ATOM     21  C   UNL     1      -1.042   4.707  25.075  0.00  0.00    +0.140 A 
ATOM     22  F   UNL     1      -0.610   5.375  25.295  0.00  0.00    -0.204 F 
ATOM     23  C   UNL     1      -0.662   4.072  24.711  0.00  0.00    +0.030 A 
ATOM     24  C   UNL     1      -1.093   3.404  24.490  0.00  0.00    +0.005 A 
ENDBRANCH  15  18
ENDBRANCH  12  13
BRANCH   4   2
ATOM      1  C   UNL     1      -5.699   2.305  26.016  0.00  0.00    +0.023 C 
ATOM      2  C   UNL     1      -5.720   1.803  25.361  0.00  0.00    +0.097 C 
ATOM      3  C   UNL     1      -6.262   1.938  24.754  0.00  0.00    +0.023 C 
ENDBRANCH   4   2
TORSDOF 3
ENDMDL
MODEL 5
REMARK VINA RESULT:     -11.6      2.189      4.541
REMARK  Name = 
REMARK  3 active torsions:
REMARK  status: ('A' for Active; 'I' for Inactive)
REMARK    1  A    between atoms: C_2  and  N_4
REMARK    2  A    between atoms: C_12  and  C_13
REMARK    3  A    between atoms: C_15  and  C_18
REMARK                            x       y       z     vdW  Elec       q    Type
REMARK                         _______ _______ _______ _____ _____    ______ ____
ROOT
ATOM      4  N   UNL     1      -2.495  -1.249  24.997  0.00  0.00    -0.190 NA
ATOM      5  C   UNL     1      -2.588  -0.488  24.693  0.00  0.00    +0.324 C 
ATOM      6  O   UNL     1      -3.337  -0.142  24.669  0.00  0.00    -0.251 OA
ATOM      7  N   UNL     1      -1.932  -0.073  24.413  0.00  0.00    -0.250 N 
ATOM      8  C   UNL     1      -1.184  -0.419  24.437  0.00  0.00    +0.143 C 
ATOM      9  C   UNL     1      -0.528  -0.004  24.157  0.00  0.00    +0.094 A 
ATOM     10  C   UNL     1      -0.621   0.757  23.853  0.00  0.00    +0.078 A 
ATOM     11  C   UNL     1      -1.370   1.104  23.829  0.00  0.00    +0.077 C 
ATOM     12  C   UNL     1      -2.025   0.688  24.109  0.00  0.00    +0.162 C 
ATOM     25  N   UNL     1       0.121   1.031  23.619  0.00  0.00    -0.227 NA
ATOM     26  C   UNL     1       0.672   0.439  23.778  0.00  0.00    +0.198 A 
ATOM     27  N   UNL     1       0.271  -0.200  24.111  0.00  0.00    -0.225 NA
ENDROOT
BRANCH  12  13
ATOM     13  C   UNL     1      -2.773   1.035  24.084  0.00  0.00    +0.255 A 
ATOM     14  N   UNL     1      -3.065   1.600  24.610  0.00  0.00    -0.189 NA
ATOM     15  C   UNL     1      -3.833   1.791  24.380  0.00  0.00    +0.203 A 
ATOM     16  N   UNL     1      -4.017   1.345  23.712  0.00  0.00    -0.056 NA
ATOM     17  O   UNL     1      -3.362   0.877  23.528  0.00  0.00    -0.335 OA
BRANCH  15  18
ATOM     18  C   UNL     1      -4.330   2.334  24.753  0.00  0.00    +0.039 A 
ATOM     19  C   UNL     1      -4.093   3.119  24.838  0.00  0.00    +0.005 A 
ATOM     20  C   UNL     1      -4.591   3.662  25.211  0.00  0.00    +0.030 A 
ATOM     21  C   UNL     1      -5.324   3.419  25.499  0.00  0.00    +0.140 A 
ATOM     22  F   UNL     1      -5.822   3.961  25.873  0.00  0.00    -0.204 F 
ATOM     23  C   UNL     1      -5.561   2.633  25.415  0.00  0.00    +0.030 A 
ATOM     24  C   UNL     1      -5.064   2.090  25.041  0.00  0.00    +0.005 A 
ENDBRANCH  15  18
ENDBRANCH  12  13
BRANCH   4   2
ATOM      1  C   UNL     1      -3.423  -1.536  26.046  0.00  0.00    +0.023 C 
ATOM      2  C   UNL     1      -3.151  -1.664  25.277  0.00  0.00    +0.097 C 
ATOM      3  C   UNL     1      -3.533  -2.208  24.789  0.00  0.00    +0.023 C 
ENDBRANCH   4   2
TORSDOF 3
ENDMDL
