MODEL 1
REMARK VINA RESULT:     -13.6      0.000      0.000
REMARK  Name = 
REMARK  6 active torsions:
REMARK  status: ('A' for Active; 'I' for Inactive)
REMARK    1  A    between atoms: C_2  and  C_4
REMARK    2  A    between atoms: C_4  and  C_5
REMARK    3  A    between atoms: C_10  and  C_11
REMARK    4  A    between atoms: C_11  and  C_12
REMARK    5  A    between atoms: C_12  and  N_13
REMARK    6  A    between atoms: N_29  and  C_30
REMARK                            x       y       z     vdW  Elec       q    Type
REMARK                         _______ _______ _______ _____ _____    ______ ____
ROOT
ATOM      5  C   UNL     1      -5.034   1.634  25.001  0.00  0.00    +0.015 C 
ATOM      6  C   UNL     1      -4.906   2.436  24.859  0.00  0.00    +0.022 C 
ATOM      7  C   UNL     1      -4.136   2.732  24.826  0.00  0.00    +0.095 C 
ATOM      8  N   UNL     1      -3.495   2.224  24.935  0.00  0.00    -0.263 N 
ATOM      9  C   UNL     1      -3.623   1.422  25.077  0.00  0.00    +0.095 C 
ATOM     10  C   UNL     1      -4.393   1.126  25.110  0.00  0.00    +0.022 C 
ATOM     27  C   UNL     1      -2.725   2.519  24.902  0.00  0.00    +0.323 C 
ATOM     28  O   UNL     1      -2.083   2.012  25.010  0.00  0.00    -0.251 OA
ATOM     29  N   UNL     1      -2.596   3.322  24.760  0.00  0.00    -0.190 NA
ENDROOT
BRANCH  29  30
ATOM     30  C   UNL     1      -1.827   3.616  24.727  0.00  0.00    +0.097 C 
ATOM     31  C   UNL     1      -1.626   4.293  25.154  0.00  0.00    +0.022 C 
ATOM     32  C   UNL     1      -0.856   4.588  25.121  0.00  0.00    +0.002 C 
ATOM     33  C   UNL     1      -0.287   4.207  24.662  0.00  0.00    +0.000 C 
ATOM     34  C   UNL     1      -0.488   3.530  24.234  0.00  0.00    +0.002 C 
ATOM     35  C   UNL     1      -1.257   3.235  24.267  0.00  0.00    +0.022 C 
ENDBRANCH  29  30
BRANCH   5   4
ATOM      4  C   UNL     1      -5.804   1.339  25.034  0.00  0.00    +0.114 C 
BRANCH   4   2
ATOM      1  O   UNL     1      -6.562   2.103  25.973  0.00  0.00    -0.246 OA
ATOM      2  C   UNL     1      -6.432   1.846  25.201  0.00  0.00    +0.365 C 
ATOM      3  O   UNL     1      -6.932   2.096  24.594  0.00  0.00    -0.246 OA
ENDBRANCH   4   2
ENDBRANCH   5   4
BRANCH  10  11
ATOM     11  C   UNL     1      -4.521   0.324  25.252  0.00  0.00    +0.019 C 
BRANCH  11  12
ATOM     12  C   UNL     1      -3.959  -0.232  25.019  0.00  0.00    +0.072 C 
BRANCH  12  13
ATOM     13  N   UNL     1      -4.109  -0.727  24.376  0.00  0.00    -0.272 NA
ATOM     14  C   UNL     1      -4.369  -0.962  23.618  0.00  0.00    +0.074 C 
ATOM     15  C   UNL     1      -4.130  -1.920  23.651  0.00  0.00    +0.039 C 
ATOM     16  C   UNL     1      -3.997  -2.714  23.520  0.00  0.00    +0.011 C 
ATOM     17  C   UNL     1      -3.893  -2.248  24.035  0.00  0.00    +0.054 C 
ATOM     18  C   UNL     1      -4.130  -1.324  23.988  0.00  0.00    +0.078 C 
ATOM     19  C   UNL     1      -3.556  -2.179  24.887  0.00  0.00    +0.041 A 
ATOM     20  C   UNL     1      -3.204  -2.637  25.476  0.00  0.00    +0.013 A 
ATOM     21  C   UNL     1      -2.987  -2.291  26.193  0.00  0.00    +0.006 A 
ATOM     22  C   UNL     1      -3.123  -1.487  26.321  0.00  0.00    +0.061 A 
ATOM     23  C   UNL     1      -3.475  -1.029  25.733  0.00  0.00    +0.261 A 
ATOM     24  O   UNL     1      -3.610  -0.226  25.861  0.00  0.00    -0.267 OA
ATOM     25  N   UNL     1      -3.691  -1.375  25.016  0.00  0.00    -0.299 N 
ATOM     26  C   UNL     1      -3.779  -1.838  24.541  0.00  0.00    +0.110 C 
ENDBRANCH  12  13
ENDBRANCH  11  12
ENDBRANCH  10  11
TORSDOF 6
ENDMDL
MODEL 2
REMARK VINA RESULT:     -13.0      1.175      4.831
REMARK  Name = 
REMARK  6 active torsions:
REMARK  status: ('A' for Active; 'I' for Inactive)
REMARK    1  A    between atoms: C_2  and  C_4
REMARK    2  A    between atoms: C_4  and  C_5
REMARK    3  A    between atoms: C_10  and  C_11
REMARK    4  A    between atoms: C_11  and  C_12
REMARK    5  A    between atoms: C_12  and  N_13
REMARK    6  A    between atoms: N_29  and  C_30
REMARK                            x       y       z     vdW  Elec       q    Type
REMARK                         _______ _______ _______ _____ _____    ______ ____
ROOT
ATOM      5  C   UNL     1      -4.362   2.298  25.131  0.00  0.00    +0.015 C 
ATOM      6  C   UNL     1      -4.938   1.709  25.130  0.00  0.00    +0.022 C 
ATOM      7  C   UNL     1      -4.726   0.925  24.981  0.00  0.00    +0.095 C 
ATOM      8  N   UNL     1      -3.938   0.733  24.833  0.00  0.00    -0.263 N 
ATOM      9  C   UNL     1      -3.362   1.322  24.834  0.00  0.00    +0.095 C 
ATOM     10  C   UNL     1      -3.574   2.106  24.983  0.00  0.00    +0.022 C 
ATOM     27  C   UNL     1      -3.726  -0.051  24.684  0.00  0.00    +0.323 C 
ATOM     28  O   UNL     1      -2.937  -0.244  24.536  0.00  0.00    -0.251 OA
ATOM     29  N   UNL     1      -4.302  -0.642  24.684  0.00  0.00    -0.190 NA
ENDROOT
BRANCH  29  30
ATOM     30  C   UNL     1      -4.089  -1.425  24.535  0.00  0.00    +0.097 C 
ATOM     31  C   UNL     1      -4.297  -1.779  23.819  0.00  0.00    +0.022 C 
ATOM     32  C   UNL     1      -4.084  -2.562  23.670  0.00  0.00    +0.002 C 
ATOM     33  C   UNL     1      -3.664  -2.991  24.235  0.00  0.00    +0.000 C 
ATOM     34  C   UNL     1      -3.457  -2.636  24.951  0.00  0.00    +0.002 C 
ATOM     35  C   UNL     1      -3.669  -1.854  25.101  0.00  0.00    +0.022 C 
ENDBRANCH  29  30
BRANCH   5   4
ATOM      4  C   UNL     1      -4.574   3.082  25.280  0.00  0.00    +0.114 C 
BRANCH   4   2
ATOM      1  O   UNL     1      -5.394   3.130  26.449  0.00  0.00    -0.246 OA
ATOM      2  C   UNL     1      -5.297   3.252  25.640  0.00  0.00    +0.365 C 
ATOM      3  O   UNL     1      -5.923   3.544  25.189  0.00  0.00    -0.246 OA
ENDBRANCH   4   2
ENDBRANCH   5   4
BRANCH  10  11
ATOM     11  C   UNL     1      -2.998   2.697  24.983  0.00  0.00    +0.019 C 
BRANCH  11  12
ATOM     12  C   UNL     1      -2.201   2.496  24.917  0.00  0.00    +0.072 C 
BRANCH  12  13
ATOM     13  N   UNL     1      -1.712   2.522  25.582  0.00  0.00    -0.272 NA
ATOM     14  C   UNL     1      -1.489   2.492  26.386  0.00  0.00    +0.074 C 
ATOM     15  C   UNL     1      -0.520   2.663  26.296  0.00  0.00    +0.039 C 
ATOM     16  C   UNL     1       0.279   2.790  26.390  0.00  0.00    +0.011 C 
ATOM     17  C   UNL     1      -0.182   2.757  25.862  0.00  0.00    +0.054 C 
ATOM     18  C   UNL     1      -1.117   2.590  25.966  0.00  0.00    +0.078 C 
ATOM     19  C   UNL     1      -0.236   2.825  24.947  0.00  0.00    +0.041 A 
ATOM     20  C   UNL     1       0.238   2.961  24.286  0.00  0.00    +0.013 A 
ATOM     21  C   UNL     1      -0.098   2.969  23.533  0.00  0.00    +0.006 A 
ATOM     22  C   UNL     1      -0.908   2.840  23.441  0.00  0.00    +0.061 A 
ATOM     23  C   UNL     1      -1.382   2.704  24.102  0.00  0.00    +0.261 A 
ATOM     24  O   UNL     1      -2.192   2.575  24.009  0.00  0.00    -0.267 OA
ATOM     25  N   UNL     1      -1.046   2.696  24.855  0.00  0.00    -0.299 N 
ATOM     26  C   UNL     1      -0.586   2.733  25.340  0.00  0.00    +0.110 C 
ENDBRANCH  12  13
ENDBRANCH  11  12
ENDBRANCH  10  11
TORSDOF 6
ENDMDL
MODEL 3
REMARK VINA RESULT:     -12.4      1.944      5.672
REMARK  Name = 
REMARK  6 active torsions:
REMARK  status: ('A' for Active; 'I' for Inactive)
REMARK    1  A    between atoms: C_2  and  C_4
REMARK    2  A    between atoms: C_4  and  C_5
REMARK    3  A    between atoms: C_10  and  C_11
REMARK    4  A    between atoms: C_11  and  C_12
REMARK    5  A    between atoms: C_12  and  N_13
REMARK    6  A    between atoms: N_29  and  C_30
REMARK                            x       y       z     vdW  Elec       q    Type
REMARK                         _______ _______ _______ _____ _____    ______ ____
ROOT
ATOM      5  C   UNL     1      -0.494   1.197  24.040  0.00  0.00    +0.015 C 
ATOM      6  C   UNL     1      -0.277   0.403  24.088  0.00  0.00    +0.022 C 
ATOM      7  C   UNL     1      -0.849  -0.173  24.236  0.00  0.00    +0.095 C 
ATOM      8  N   UNL     1      -1.638   0.047  24.335  0.00  0.00    -0.263 N 
ATOM      9  C   UNL     1      -1.855   0.840  24.287  0.00  0.00    +0.095 C 
ATOM     10  C   UNL     1      -1.282   1.416  24.139  0.00  0.00    +0.022 C 
ATOM     27  C   UNL     1      -2.211  -0.529  24.483  0.00  0.00    +0.323 C 
ATOM     28  O   UNL     1      -3.000  -0.310  24.583  0.00  0.00    -0.251 OA
ATOM     29  N   UNL     1      -1.994  -1.325  24.531  0.00  0.00    -0.190 NA
ENDROOT
BRANCH  29  30
ATOM     30  C   UNL     1      -2.566  -1.899  24.679  0.00  0.00    +0.097 C 
ATOM     31  C   UNL     1      -2.945  -2.275  24.049  0.00  0.00    +0.022 C 
ATOM     32  C   UNL     1      -3.517  -2.850  24.197  0.00  0.00    +0.002 C 
ATOM     33  C   UNL     1      -3.712  -3.049  24.972  0.00  0.00    +0.000 C 
ATOM     34  C   UNL     1      -3.334  -2.673  25.602  0.00  0.00    +0.002 C 
ATOM     35  C   UNL     1      -2.761  -2.099  25.456  0.00  0.00    +0.022 C 
ENDBRANCH  29  30
BRANCH   5   4
ATOM      4  C   UNL     1       0.079   1.773  23.892  0.00  0.00    +0.114 C 
BRANCH   4   2
ATOM      1  O   UNL     1       1.345   1.257  23.475  0.00  0.00    -0.246 OA
ATOM      2  C   UNL     1       0.873   1.614  24.049  0.00  0.00    +0.365 C 
ATOM      3  O   UNL     1       1.196   1.812  24.783  0.00  0.00    -0.246 OA
ENDBRANCH   4   2
ENDBRANCH   5   4
BRANCH  10  11
ATOM     11  C   UNL     1      -1.499   2.211  24.091  0.00  0.00    +0.019 C 
BRANCH  11  12
ATOM     12  C   UNL     1      -2.199   2.470  24.440  0.00  0.00    +0.072 C 
BRANCH  12  13
ATOM     13  N   UNL     1      -2.174   2.915  25.135  0.00  0.00    -0.272 NA
ATOM     14  C   UNL     1      -1.896   3.195  25.871  0.00  0.00    +0.074 C 
ATOM     15  C   UNL     1      -2.595   3.864  26.069  0.00  0.00    +0.039 C 
ATOM     16  C   UNL     1      -3.082   4.442  26.374  0.00  0.00    +0.011 C 
ATOM     17  C   UNL     1      -3.053   4.037  25.802  0.00  0.00    +0.054 C 
ATOM     18  C   UNL     1      -2.370   3.394  25.625  0.00  0.00    +0.078 C 
ATOM     19  C   UNL     1      -3.504   3.859  25.021  0.00  0.00    +0.041 A 
ATOM     20  C   UNL     1      -4.174   4.093  24.601  0.00  0.00    +0.013 A 
ATOM     21  C   UNL     1      -4.350   3.742  23.875  0.00  0.00    +0.006 A 
ATOM     22  C   UNL     1      -3.855   3.157  23.570  0.00  0.00    +0.061 A 
ATOM     23  C   UNL     1      -3.184   2.923  23.989  0.00  0.00    +0.261 A 
ATOM     24  O   UNL     1      -2.689   2.338  23.683  0.00  0.00    -0.267 OA
ATOM     25  N   UNL     1      -3.009   3.275  24.715  0.00  0.00    -0.299 N 
ATOM     26  C   UNL     1      -3.059   3.672  25.251  0.00  0.00    +0.110 C 
ENDBRANCH  12  13
ENDBRANCH  11  12
ENDBRANCH  10  11
TORSDOF 6
ENDMDL
MODEL 4
REMARK VINA RESULT:     -12.0      2.078      3.453
REMARK  Name = 
REMARK  6 active torsions:
REMARK  status: ('A' for Active; 'I' for Inactive)
REMARK    1  A    between atoms: C_2  and  C_4
REMARK    2  A    between atoms: C_4  and  C_5
REMARK    3  A    between atoms: C_10  and  C_11
REMARK    4  A    between atoms: C_11  and  C_12
REMARK    5  A    between atoms: C_12  and  N_13
REMARK    6  A    between atoms: N_29  and  C_30
REMARK                            x       y       z     vdW  Elec       q    Type
REMARK                         _______ _______ _______ _____ _____    ______ ____
ROOT
ATOM      5  C   UNL     1      -0.050   0.516  23.889  0.00  0.00    +0.015 C 
ATOM      6  C   UNL     1       0.364   1.226  23.833  0.00  0.00    +0.022 C 
ATOM      7  C   UNL     1       0.013   1.929  24.086  0.00  0.00    +0.095 C 
ATOM      8  N   UNL     1      -0.751   1.920  24.395  0.00  0.00    -0.263 N 
ATOM      9  C   UNL     1      -1.166   1.210  24.451  0.00  0.00    +0.095 C 
ATOM     10  C   UNL     1      -0.815   0.507  24.197  0.00  0.00    +0.022 C 
ATOM     27  C   UNL     1      -1.102   2.623  24.649  0.00  0.00    +0.323 C 
ATOM     28  O   UNL     1      -1.867   2.615  24.958  0.00  0.00    -0.251 OA
ATOM     29  N   UNL     1      -0.687   3.335  24.593  0.00  0.00    -0.190 NA
ENDROOT
BRANCH  29  30
ATOM     30  C   UNL     1      -1.038   4.037  24.846  0.00  0.00    +0.097 C 
ATOM     31  C   UNL     1      -0.750   4.762  24.578  0.00  0.00    +0.022 C 
ATOM     32  C   UNL     1      -1.101   5.464  24.831  0.00  0.00    +0.002 C 
ATOM     33  C   UNL     1      -1.739   5.442  25.352  0.00  0.00    +0.000 C 
ATOM     34  C   UNL     1      -2.028   4.717  25.621  0.00  0.00    +0.002 C 
ATOM     35  C   UNL     1      -1.677   4.014  25.368  0.00  0.00    +0.022 C 
ENDBRANCH  29  30
BRANCH   5   4
ATOM      4  C   UNL     1       0.300  -0.187  23.635  0.00  0.00    +0.114 C 
BRANCH   4   2
ATOM      1  O   UNL     1       1.697  -0.132  23.340  0.00  0.00    -0.246 OA
ATOM      2  C   UNL     1       0.914  -0.166  23.085  0.00  0.00    +0.365 C 
ATOM      3  O   UNL     1       0.744  -0.179  22.277  0.00  0.00    -0.246 OA
ENDBRANCH   4   2
ENDBRANCH   5   4
BRANCH  10  11
ATOM     11  C   UNL     1      -1.229  -0.204  24.253  0.00  0.00    +0.019 C 
BRANCH  11  12
ATOM     12  C   UNL     1      -1.967  -0.225  24.620  0.00  0.00    +0.072 C 
BRANCH  12  13
ATOM     13  N   UNL     1      -2.647  -0.357  24.172  0.00  0.00    -0.272 NA
ATOM     14  C   UNL     1      -3.174  -0.316  23.525  0.00  0.00    +0.074 C 
ATOM     15  C   UNL     1      -3.916  -0.863  23.880  0.00  0.00    +0.039 C 
ATOM     16  C   UNL     1      -4.601  -1.279  24.024  0.00  0.00    +0.011 C 
ATOM     17  C   UNL     1      -4.002  -1.135  24.359  0.00  0.00    +0.054 C 
ATOM     18  C   UNL     1      -3.293  -0.604  24.002  0.00  0.00    +0.078 C 
ATOM     19  C   UNL     1      -3.565  -1.290  25.152  0.00  0.00    +0.041 A 
ATOM     20  C   UNL     1      -3.662  -1.683  25.871  0.00  0.00    +0.013 A 
ATOM     21  C   UNL     1      -3.066  -1.652  26.442  0.00  0.00    +0.006 A 
ATOM     22  C   UNL     1      -2.374  -1.229  26.293  0.00  0.00    +0.061 A 
ATOM     23  C   UNL     1      -2.276  -0.837  25.574  0.00  0.00    +0.261 A 
ATOM     24  O   UNL     1      -1.584  -0.414  25.425  0.00  0.00    -0.267 OA
ATOM     25  N   UNL     1      -2.872  -0.868  25.004  0.00  0.00    -0.299 N 
ATOM     26  C   UNL     1      -3.451  -1.020  24.705  0.00  0.00    +0.110 C 
ENDBRANCH  12  13
ENDBRANCH  11  12
ENDBRANCH  10  11
TORSDOF 6
ENDMDL
MODEL 5
REMARK VINA RESULT:     -11.9      2.506      4.633
REMARK  Name = 
REMARK  6 active torsions:
REMARK  status: ('A' for Active; 'I' for Inactive)
REMARK    1  A    between atoms: C_2  and  C_4
REMARK    2  A    between atoms: C_4  and  C_5
REMARK    3  A    between atoms: C_10  and  C_11
REMARK    4  A    between atoms: C_11  and  C_12
REMARK    5  A    between atoms: C_12  and  N_13
REMARK    6  A    between atoms: N_29  and  C_30
REMARK                            x       y       z     vdW  Elec       q    Type
REMARK                         _______ _______ _______ _____ _____    ______ ____
ROOT
ATOM      5  C   UNL     1      -2.259  -0.330  25.013  0.00  0.00    +0.015 C 
ATOM      6  C   UNL     1      -1.783  -0.940  24.731  0.00  0.00    +0.022 C 
ATOM      7  C   UNL     1      -1.093  -0.766  24.313  0.00  0.00    +0.095 C 
ATOM      8  N   UNL     1      -0.881   0.019  24.178  0.00  0.00    -0.263 N 
ATOM      9  C   UNL     1      -1.357   0.630  24.460  0.00  0.00    +0.095 C 
ATOM     10  C   UNL     1      -2.047   0.456  24.878  0.00  0.00    +0.022 C 
ATOM     27  C   UNL     1      -0.190   0.193  23.760  0.00  0.00    +0.323 C 
ATOM     28  O   UNL     1       0.023   0.979  23.624  0.00  0.00    -0.251 OA
ATOM     29  N   UNL     1       0.287  -0.418  23.478  0.00  0.00    -0.190 NA
ENDROOT
BRANCH  29  30
ATOM     30  C   UNL     1       0.976  -0.243  23.060  0.00  0.00    +0.097 C 
ATOM     31  C   UNL     1       1.018  -0.397  22.250  0.00  0.00    +0.022 C 
ATOM     32  C   UNL     1       1.707  -0.222  21.833  0.00  0.00    +0.002 C 
ATOM     33  C   UNL     1       2.355   0.106  22.223  0.00  0.00    +0.000 C 
ATOM     34  C   UNL     1       2.313   0.259  23.034  0.00  0.00    +0.002 C 
ATOM     35  C   UNL     1       1.624   0.085  23.452  0.00  0.00    +0.022 C 
ENDBRANCH  29  30
BRANCH   5   4
ATOM      4  C   UNL     1      -2.950  -0.504  25.431  0.00  0.00    +0.114 C 
BRANCH   4   2
ATOM      1  O   UNL     1      -3.759  -1.475  24.766  0.00  0.00    -0.246 OA
ATOM      2  C   UNL     1      -3.272  -1.262  25.395  0.00  0.00    +0.365 C 
ATOM      3  O   UNL     1      -3.106  -1.808  25.992  0.00  0.00    -0.246 OA
ENDBRANCH   4   2
ENDBRANCH   5   4
BRANCH  10  11
ATOM     11  C   UNL     1      -2.524   1.067  25.160  0.00  0.00    +0.019 C 
BRANCH  11  12
ATOM     12  C   UNL     1      -2.454   1.825  24.844  0.00  0.00    +0.072 C 
BRANCH  12  13
ATOM     13  N   UNL     1      -3.042   2.122  24.347  0.00  0.00    -0.272 NA
ATOM     14  C   UNL     1      -3.634   2.128  23.758  0.00  0.00    +0.074 C 
ATOM     15  C   UNL     1      -3.893   3.081  23.792  0.00  0.00    +0.039 C 
ATOM     16  C   UNL     1      -4.215   3.823  23.698  0.00  0.00    +0.011 C 
ATOM     17  C   UNL     1      -3.724   3.517  24.095  0.00  0.00    +0.054 C 
ATOM     18  C   UNL     1      -3.485   2.594  24.050  0.00  0.00    +0.078 C 
ATOM     19  C   UNL     1      -3.116   3.703  24.759  0.00  0.00    +0.041 A 
ATOM     20  C   UNL     1      -2.844   4.329  25.222  0.00  0.00    +0.013 A 
ATOM     21  C   UNL     1      -2.248   4.202  25.778  0.00  0.00    +0.006 A 
ATOM     22  C   UNL     1      -1.924   3.449  25.871  0.00  0.00    +0.061 A 
ATOM     23  C   UNL     1      -2.196   2.823  25.408  0.00  0.00    +0.261 A 
ATOM     24  O   UNL     1      -1.871   2.070  25.501  0.00  0.00    -0.267 OA
ATOM     25  N   UNL     1      -2.791   2.950  24.852  0.00  0.00    -0.299 N 
ATOM     26  C   UNL     1      -3.255   3.265  24.486  0.00  0.00    +0.110 C 
ENDBRANCH  12  13
ENDBRANCH  11  12
ENDBRANCH  10  11
TORSDOF 6
ENDMDL
MODEL 6
REMARK VINA RESULT:     -11.4      2.349      4.192
REMARK  Name = 
REMARK  6 active torsions:
REMARK  status: ('A' for Active; 'I' for Inactive)
REMARK    1  A    between atoms: C_2  and  C_4
REMARK    2  A    between atoms: C_4  and  C_5
REMARK    3  A    between atoms: C_10  and  C_11
REMARK    4  A    between atoms: C_11  and  C_12
REMARK    5  A    between atoms: C_12  and  N_13
REMARK    6  A    between atoms: N_29  and  C_30
REMARK                            x       y       z     vdW  Elec       q    Type
REMARK                         _______ _______ _______ _____ _____    ______ ____
ROOT
ATOM      5  C   UNL     1      -1.452   3.345  25.136  0.00  0.00    +0.015 C 
ATOM      6  C   UNL     1      -2.115   3.834  25.104  0.00  0.00    +0.022 C 
ATOM      7  C   UNL     1      -2.872   3.506  25.142  0.00  0.00    +0.095 C 
ATOM      8  N   UNL     1      -2.964   2.689  25.211  0.00  0.00    -0.263 N 
ATOM      9  C   UNL     1      -2.301   2.200  25.243  0.00  0.00    +0.095 C 
ATOM     10  C   UNL     1      -1.544   2.528  25.205  0.00  0.00    +0.022 C 
ATOM     27  C   UNL     1      -3.720   2.361  25.249  0.00  0.00    +0.323 C 
ATOM     28  O   UNL     1      -3.813   1.544  25.318  0.00  0.00    -0.251 OA
ATOM     29  N   UNL     1      -4.385   2.851  25.217  0.00  0.00    -0.190 NA
ENDROOT
BRANCH  29  30
ATOM     30  C   UNL     1      -5.140   2.523  25.254  0.00  0.00    +0.097 C 
ATOM     31  C   UNL     1      -5.570   2.558  25.958  0.00  0.00    +0.022 C 
ATOM     32  C   UNL     1      -6.326   2.229  25.995  0.00  0.00    +0.002 C 
ATOM     33  C   UNL     1      -6.652   1.866  25.331  0.00  0.00    +0.000 C 
ATOM     34  C   UNL     1      -6.222   1.831  24.627  0.00  0.00    +0.002 C 
ATOM     35  C   UNL     1      -5.466   2.159  24.589  0.00  0.00    +0.022 C 
ENDBRANCH  29  30
BRANCH   5   4
ATOM      4  C   UNL     1      -0.696   3.673  25.098  0.00  0.00    +0.114 C 
BRANCH   4   2
ATOM      1  O   UNL     1      -0.738   5.086  25.306  0.00  0.00    -0.246 OA
ATOM      2  C   UNL     1      -0.593   4.440  24.814  0.00  0.00    +0.365 C 
ATOM      3  O   UNL     1      -0.345   4.562  24.036  0.00  0.00    -0.246 OA
ENDBRANCH   4   2
ENDBRANCH   5   4
BRANCH  10  11
ATOM     11  C   UNL     1      -0.881   2.040  25.237  0.00  0.00    +0.019 C 
BRANCH  11  12
ATOM     12  C   UNL     1      -0.925   1.265  24.959  0.00  0.00    +0.072 C 
BRANCH  12  13
ATOM     13  N   UNL     1      -0.532   1.052  24.265  0.00  0.00    -0.272 NA
ATOM     14  C   UNL     1      -0.178   1.137  23.513  0.00  0.00    +0.074 C 
ATOM     15  C   UNL     1       0.112   0.204  23.361  0.00  0.00    +0.039 C 
ATOM     16  C   UNL     1       0.409  -0.503  23.088  0.00  0.00    +0.011 C 
ATOM     17  C   UNL     1       0.073  -0.267  23.657  0.00  0.00    +0.054 C 
ATOM     18  C   UNL     1      -0.200   0.638  23.789  0.00  0.00    +0.078 C 
ATOM     19  C   UNL     1      -0.264  -0.549  24.464  0.00  0.00    +0.041 A 
ATOM     20  C   UNL     1      -0.337  -1.229  24.925  0.00  0.00    +0.013 A 
ATOM     21  C   UNL     1      -0.710  -1.190  25.660  0.00  0.00    +0.006 A 
ATOM     22  C   UNL     1      -1.010  -0.472  25.933  0.00  0.00    +0.061 A 
ATOM     23  C   UNL     1      -0.937   0.208  25.472  0.00  0.00    +0.261 A 
ATOM     24  O   UNL     1      -1.237   0.926  25.746  0.00  0.00    -0.267 OA
ATOM     25  N   UNL     1      -0.564   0.170  24.738  0.00  0.00    -0.299 N 
ATOM     26  C   UNL     1      -0.243  -0.081  24.206  0.00  0.00    +0.110 C 
ENDBRANCH  12  13
ENDBRANCH  11  12
ENDBRANCH  10  11
TORSDOF 6
ENDMDL
