MODEL 1
REMARK VINA RESULT:     -11.9      0.000      0.000
REMARK  Name = 
REMARK  3 active torsions:
REMARK  status: ('A' for Active; 'I' for Inactive)
REMARK    1  A    between atoms: C_12  and  C_13
REMARK    2  A    between atoms: C_13  and  C_15
REMARK    3  A    between atoms: N_17  and  C_18
REMARK                            x       y       z     vdW  Elec       q    Type
REMARK                         _______ _______ _______ _____ _____    ______ ____
ROOT
ATOM      1  C   UNL     1      -3.594  -3.099  24.641  0.00  0.00    +0.138 C 
ATOM      2  N   UNL     1      -3.126  -2.538  24.259  0.00  0.00    -0.213 NA
ATOM      3  C   UNL     1      -3.314  -1.737  24.313  0.00  0.00    +0.179 A 
ATOM      4  N   UNL     1      -2.898  -1.117  23.962  0.00  0.00    -0.228 NA
ATOM      5  C   UNL     1      -3.278  -0.411  24.160  0.00  0.00    +0.063 A 
ATOM      6  C   UNL     1      -3.928  -0.596  24.633  0.00  0.00    +0.023 A 
ATOM      7  C   UNL     1      -4.416   0.006  24.917  0.00  0.00    +0.034 C 
ATOM      8  C   UNL     1      -4.254   0.792  24.728  0.00  0.00    +0.007 C 
ATOM      9  C   UNL     1      -4.904   0.607  25.201  0.00  0.00    +0.000 C 
ATOM     10  C   UNL     1      -4.742   1.393  25.011  0.00  0.00    +0.001 C 
ATOM     11  C   UNL     1      -4.581   2.180  24.822  0.00  0.00    +0.003 C 
ATOM     12  C   UNL     1      -3.931   2.365  24.349  0.00  0.00    +0.039 C 
ATOM     21  C   UNL     1      -3.442   1.763  24.065  0.00  0.00    +0.153 C 
ATOM     22  O   UNL     1      -2.793   1.948  23.592  0.00  0.00    -0.223 OA
ATOM     23  C   UNL     1      -3.605   0.977  24.254  0.00  0.00    +0.036 C 
ATOM     24  C   UNL     1      -3.116   0.376  23.970  0.00  0.00    +0.043 C 
ATOM     25  C   UNL     1      -2.467   0.560  23.498  0.00  0.00    +0.006 C 
ATOM     26  S   UNL     1      -3.950  -1.416  24.728  0.00  0.00    -0.055 S 
ENDROOT
BRANCH  12  13
ATOM     13  C   UNL     1      -3.768   3.152  24.159  0.00  0.00    +0.081 C 
ATOM     14  C   UNL     1      -3.983   3.450  23.421  0.00  0.00    +0.010 C 
BRANCH  13  15
ATOM     15  C   UNL     1      -3.392   3.639  24.707  0.00  0.00    +0.241 C 
ATOM     16  O   UNL     1      -3.797   3.892  25.381  0.00  0.00    -0.273 OA
ATOM     17  N   UNL     1      -2.611   3.873  24.583  0.00  0.00    -0.207 NA
BRANCH  17  18
ATOM     18  C   UNL     1      -2.234   4.361  25.132  0.00  0.00    +0.095 C 
ATOM     19  C   UNL     1      -2.106   4.591  25.913  0.00  0.00    +0.023 C 
ATOM     20  C   UNL     1      -1.710   4.975  25.300  0.00  0.00    +0.023 C 
ENDBRANCH  17  18
ENDBRANCH  13  15
ENDBRANCH  12  13
TORSDOF 3
ENDMDL
MODEL 2
REMARK VINA RESULT:     -11.5      1.655      4.836
REMARK  Name = 
REMARK  3 active torsions:
REMARK  status: ('A' for Active; 'I' for Inactive)
REMARK    1  A    between atoms: C_12  and  C_13
REMARK    2  A    between atoms: C_13  and  C_15
REMARK    3  A    between atoms: N_17  and  C_18
REMARK                            x       y       z     vdW  Elec       q    Type
REMARK                         _______ _______ _______ _____ _____    ______ ____
ROOT
ATOM      1  C   UNL     1      -0.968   5.413  24.961  0.00  0.00    +0.138 C 
ATOM      2  N   UNL     1      -1.685   5.141  25.264  0.00  0.00    -0.213 NA
ATOM      3  C   UNL     1      -1.944   4.377  25.089  0.00  0.00    +0.179 A 
ATOM      4  N   UNL     1      -2.645   4.032  25.352  0.00  0.00    -0.228 NA
ATOM      5  C   UNL     1      -2.682   3.266  25.045  0.00  0.00    +0.063 A 
ATOM      6  C   UNL     1      -2.003   3.140  24.594  0.00  0.00    +0.023 A 
ATOM      7  C   UNL     1      -1.889   2.415  24.217  0.00  0.00    +0.034 C 
ATOM      8  C   UNL     1      -2.452   1.817  24.290  0.00  0.00    +0.007 C 
ATOM      9  C   UNL     1      -1.773   1.691  23.839  0.00  0.00    +0.000 C 
ATOM     10  C   UNL     1      -2.337   1.093  23.913  0.00  0.00    +0.001 C 
ATOM     11  C   UNL     1      -2.901   0.495  23.987  0.00  0.00    +0.003 C 
ATOM     12  C   UNL     1      -3.579   0.622  24.439  0.00  0.00    +0.039 C 
ATOM     21  C   UNL     1      -3.695   1.347  24.817  0.00  0.00    +0.153 C 
ATOM     22  O   UNL     1      -4.373   1.473  25.268  0.00  0.00    -0.223 OA
ATOM     23  C   UNL     1      -3.131   1.944  24.742  0.00  0.00    +0.036 C 
ATOM     24  C   UNL     1      -3.246   2.668  25.120  0.00  0.00    +0.043 C 
ATOM     25  C   UNL     1      -3.924   2.795  25.571  0.00  0.00    +0.006 C 
ATOM     26  S   UNL     1      -1.547   3.827  24.621  0.00  0.00    -0.055 S 
ENDROOT
BRANCH  12  13
ATOM     13  C   UNL     1      -4.144   0.023  24.513  0.00  0.00    +0.081 C 
ATOM     14  C   UNL     1      -4.935   0.180  24.342  0.00  0.00    +0.010 C 
BRANCH  13  15
ATOM     15  C   UNL     1      -3.916  -0.730  24.758  0.00  0.00    +0.241 C 
ATOM     16  O   UNL     1      -3.627  -0.846  25.523  0.00  0.00    -0.273 OA
ATOM     17  N   UNL     1      -3.976  -1.369  24.240  0.00  0.00    -0.207 NA
BRANCH  17  18
ATOM     18  C   UNL     1      -3.749  -2.123  24.485  0.00  0.00    +0.095 C 
ATOM     19  C   UNL     1      -3.489  -2.632  25.078  0.00  0.00    +0.023 C 
ATOM     20  C   UNL     1      -3.614  -2.918  24.315  0.00  0.00    +0.023 C 
ENDBRANCH  17  18
ENDBRANCH  13  15
ENDBRANCH  12  13
TORSDOF 3
ENDMDL
MODEL 3
REMARK VINA RESULT:     -11.3      1.526      1.959
REMARK  Name = 
REMARK  3 active torsions:
REMARK  status: ('A' for Active; 'I' for Inactive)
REMARK    1  A    between atoms: C_12  and  C_13
REMARK    2  A    between atoms: C_13  and  C_15
REMARK    3  A    between atoms: N_17  and  C_18
REMARK                            x       y       z     vdW  Elec       q    Type
REMARK                         _______ _______ _______ _____ _____    ______ ____
ROOT
ATOM      1  C   UNL     1      -4.333  -2.684  23.910  0.00  0.00    +0.138 C 
ATOM      2  N   UNL     1      -3.549  -2.537  24.118  0.00  0.00    -0.213 NA
ATOM      3  C   UNL     1      -3.305  -1.769  24.295  0.00  0.00    +0.179 A 
ATOM      4  N   UNL     1      -2.542  -1.541  24.510  0.00  0.00    -0.228 NA
ATOM      5  C   UNL     1      -2.547  -0.725  24.636  0.00  0.00    +0.063 A 
ATOM      6  C   UNL     1      -3.312  -0.451  24.497  0.00  0.00    +0.023 A 
ATOM      7  C   UNL     1      -3.484   0.352  24.582  0.00  0.00    +0.034 C 
ATOM      8  C   UNL     1      -2.890   0.880  24.804  0.00  0.00    +0.007 C 
ATOM      9  C   UNL     1      -3.656   1.155  24.665  0.00  0.00    +0.000 C 
ATOM     10  C   UNL     1      -3.062   1.682  24.888  0.00  0.00    +0.001 C 
ATOM     11  C   UNL     1      -2.468   2.210  25.110  0.00  0.00    +0.003 C 
ATOM     12  C   UNL     1      -1.703   1.936  25.248  0.00  0.00    +0.039 C 
ATOM     21  C   UNL     1      -1.531   1.132  25.164  0.00  0.00    +0.153 C 
ATOM     22  O   UNL     1      -0.766   0.858  25.303  0.00  0.00    -0.223 OA
ATOM     23  C   UNL     1      -2.125   0.605  24.942  0.00  0.00    +0.036 C 
ATOM     24  C   UNL     1      -1.952  -0.197  24.858  0.00  0.00    +0.043 C 
ATOM     25  C   UNL     1      -1.188  -0.471  24.996  0.00  0.00    +0.006 C 
ATOM     26  S   UNL     1      -3.781  -1.097  24.286  0.00  0.00    -0.055 S 
ENDROOT
BRANCH  12  13
ATOM     13  C   UNL     1      -1.108   2.464  25.471  0.00  0.00    +0.081 C 
ATOM     14  C   UNL     1      -0.576   2.257  26.066  0.00  0.00    +0.010 C 
BRANCH  13  15
ATOM     15  C   UNL     1      -1.047   3.196  25.099  0.00  0.00    +0.241 C 
ATOM     16  O   UNL     1      -0.873   3.237  24.293  0.00  0.00    -0.273 OA
ATOM     17  N   UNL     1      -1.161   3.890  25.531  0.00  0.00    -0.207 NA
BRANCH  17  18
ATOM     18  C   UNL     1      -1.100   4.623  25.158  0.00  0.00    +0.095 C 
ATOM     19  C   UNL     1      -0.682   5.149  24.680  0.00  0.00    +0.023 C 
ATOM     20  C   UNL     1      -1.414   5.368  24.991  0.00  0.00    +0.023 C 
ENDBRANCH  17  18
ENDBRANCH  13  15
ENDBRANCH  12  13
TORSDOF 3
ENDMDL
MODEL 4
REMARK VINA RESULT:     -11.2      1.998      4.921
REMARK  Name = 
REMARK  3 active torsions:
REMARK  status: ('A' for Active; 'I' for Inactive)
REMARK    1  A    between atoms: C_12  and  C_13
REMARK    2  A    between atoms: C_13  and  C_15
REMARK    3  A    between atoms: N_17  and  C_18
REMARK                            x       y       z     vdW  Elec       q    Type
REMARK                         _______ _______ _______ _____ _____    ______ ____
ROOT
ATOM      1  C   UNL     1      -1.259   5.366  24.867  0.00  0.00    +0.138 C 
ATOM      2  N   UNL     1      -0.830   4.687  25.053  0.00  0.00    -0.213 NA
ATOM      3  C   UNL     1      -1.204   3.952  25.067  0.00  0.00    +0.179 A 
ATOM      4  N   UNL     1      -0.847   3.230  25.243  0.00  0.00    -0.228 NA
ATOM      5  C   UNL     1      -1.424   2.642  25.193  0.00  0.00    +0.063 A 
ATOM      6  C   UNL     1      -2.137   3.001  24.986  0.00  0.00    +0.023 A 
ATOM      7  C   UNL     1      -2.817   2.544  24.895  0.00  0.00    +0.034 C 
ATOM      8  C   UNL     1      -2.786   1.729  25.010  0.00  0.00    +0.007 C 
ATOM      9  C   UNL     1      -3.499   2.088  24.803  0.00  0.00    +0.000 C 
ATOM     10  C   UNL     1      -3.466   1.272  24.919  0.00  0.00    +0.001 C 
ATOM     11  C   UNL     1      -3.435   0.456  25.035  0.00  0.00    +0.003 C 
ATOM     12  C   UNL     1      -2.722   0.096  25.242  0.00  0.00    +0.039 C 
ATOM     21  C   UNL     1      -2.040   0.553  25.333  0.00  0.00    +0.153 C 
ATOM     22  O   UNL     1      -1.328   0.194  25.540  0.00  0.00    -0.223 OA
ATOM     23  C   UNL     1      -2.073   1.369  25.217  0.00  0.00    +0.036 C 
ATOM     24  C   UNL     1      -1.391   1.825  25.309  0.00  0.00    +0.043 C 
ATOM     25  C   UNL     1      -0.679   1.466  25.516  0.00  0.00    +0.006 C 
ATOM     26  S   UNL     1      -2.001   3.812  24.908  0.00  0.00    -0.055 S 
ENDROOT
BRANCH  12  13
ATOM     13  C   UNL     1      -2.689  -0.721  25.358  0.00  0.00    +0.081 C 
ATOM     14  C   UNL     1      -2.395  -1.025  26.066  0.00  0.00    +0.010 C 
BRANCH  13  15
ATOM     15  C   UNL     1      -2.951  -1.232  24.767  0.00  0.00    +0.241 C 
ATOM     16  O   UNL     1      -2.578  -1.237  24.030  0.00  0.00    -0.273 OA
ATOM     17  N   UNL     1      -3.586  -1.738  24.910  0.00  0.00    -0.207 NA
BRANCH  17  18
ATOM     18  C   UNL     1      -3.848  -2.250  24.318  0.00  0.00    +0.095 C 
ATOM     19  C   UNL     1      -4.323  -2.398  23.661  0.00  0.00    +0.023 C 
ATOM     20  C   UNL     1      -3.825  -2.988  23.950  0.00  0.00    +0.023 C 
ENDBRANCH  17  18
ENDBRANCH  13  15
ENDBRANCH  12  13
TORSDOF 3
ENDMDL
MODEL 5
REMARK VINA RESULT:     -11.0      2.076      4.611
REMARK  Name = 
REMARK  3 active torsions:
REMARK  status: ('A' for Active; 'I' for Inactive)
REMARK    1  A    between atoms: C_12  and  C_13
REMARK    2  A    between atoms: C_13  and  C_15
REMARK    3  A    between atoms: N_17  and  C_18
REMARK                            x       y       z     vdW  Elec       q    Type
REMARK                         _______ _______ _______ _____ _____    ______ ____
ROOT
ATOM      1  C   UNL     1      -5.633   4.896  25.493  0.00  0.00    +0.138 C 
ATOM      2  N   UNL     1      -5.852   4.144  25.751  0.00  0.00    -0.213 NA
ATOM      3  C   UNL     1      -5.453   3.479  25.470  0.00  0.00    +0.179 A 
ATOM      4  N   UNL     1      -5.610   2.696  25.679  0.00  0.00    -0.228 NA
ATOM      5  C   UNL     1      -5.080   2.213  25.270  0.00  0.00    +0.063 A 
ATOM      6  C   UNL     1      -4.597   2.697  24.809  0.00  0.00    +0.023 A 
ATOM      7  C   UNL     1      -4.009   2.363  24.337  0.00  0.00    +0.034 C 
ATOM      8  C   UNL     1      -3.905   1.545  24.324  0.00  0.00    +0.007 C 
ATOM      9  C   UNL     1      -3.421   2.029  23.863  0.00  0.00    +0.000 C 
ATOM     10  C   UNL     1      -3.318   1.211  23.851  0.00  0.00    +0.001 C 
ATOM     11  C   UNL     1      -3.213   0.393  23.838  0.00  0.00    +0.003 C 
ATOM     12  C   UNL     1      -3.697  -0.092  24.299  0.00  0.00    +0.039 C 
ATOM     21  C   UNL     1      -4.285   0.242  24.772  0.00  0.00    +0.153 C 
ATOM     22  O   UNL     1      -4.768  -0.242  25.232  0.00  0.00    -0.223 OA
ATOM     23  C   UNL     1      -4.389   1.061  24.784  0.00  0.00    +0.036 C 
ATOM     24  C   UNL     1      -4.976   1.394  25.257  0.00  0.00    +0.043 C 
ATOM     25  C   UNL     1      -5.460   0.910  25.717  0.00  0.00    +0.006 C 
ATOM     26  S   UNL     1      -4.827   3.480  24.934  0.00  0.00    -0.055 S 
ENDROOT
BRANCH  12  13
ATOM     13  C   UNL     1      -3.593  -0.911  24.286  0.00  0.00    +0.081 C 
ATOM     14  C   UNL     1      -4.141  -1.390  23.899  0.00  0.00    +0.010 C 
BRANCH  13  15
ATOM     15  C   UNL     1      -2.942  -1.249  24.661  0.00  0.00    +0.241 C 
ATOM     16  O   UNL     1      -2.934  -1.332  25.482  0.00  0.00    -0.273 OA
ATOM     17  N   UNL     1      -2.297  -1.506  24.215  0.00  0.00    -0.207 NA
BRANCH  17  18
ATOM     18  C   UNL     1      -1.644  -1.845  24.590  0.00  0.00    +0.095 C 
ATOM     19  C   UNL     1      -0.910  -1.766  24.956  0.00  0.00    +0.023 C 
ATOM     20  C   UNL     1      -1.250  -2.512  24.873  0.00  0.00    +0.023 C 
ENDBRANCH  17  18
ENDBRANCH  13  15
ENDBRANCH  12  13
TORSDOF 3
ENDMDL
MODEL 6
REMARK VINA RESULT:     -10.8      1.803      2.248
REMARK  Name = 
REMARK  3 active torsions:
REMARK  status: ('A' for Active; 'I' for Inactive)
REMARK    1  A    between atoms: C_12  and  C_13
REMARK    2  A    between atoms: C_13  and  C_15
REMARK    3  A    between atoms: N_17  and  C_18
REMARK                            x       y       z     vdW  Elec       q    Type
REMARK                         _______ _______ _______ _____ _____    ______ ____
ROOT
ATOM      1  C   UNL     1      -0.171  -2.598  25.377  0.00  0.00    +0.138 C 
ATOM      2  N   UNL     1      -0.065  -1.785  25.289  0.00  0.00    -0.213 NA
ATOM      3  C   UNL     1      -0.706  -1.303  25.096  0.00  0.00    +0.179 A 
ATOM      4  N   UNL     1      -0.682  -0.485  24.990  0.00  0.00    -0.228 NA
ATOM      5  C   UNL     1      -1.445  -0.231  24.804  0.00  0.00    +0.063 A 
ATOM      6  C   UNL     1      -1.939  -0.892  24.794  0.00  0.00    +0.023 A 
ATOM      7  C   UNL     1      -2.741  -0.805  24.622  0.00  0.00    +0.034 C 
ATOM      8  C   UNL     1      -3.050  -0.058  24.460  0.00  0.00    +0.007 C 
ATOM      9  C   UNL     1      -3.543  -0.719  24.450  0.00  0.00    +0.000 C 
ATOM     10  C   UNL     1      -3.851   0.029  24.288  0.00  0.00    +0.001 C 
ATOM     11  C   UNL     1      -4.160   0.777  24.126  0.00  0.00    +0.003 C 
ATOM     12  C   UNL     1      -3.667   1.438  24.135  0.00  0.00    +0.039 C 
ATOM     21  C   UNL     1      -2.864   1.351  24.307  0.00  0.00    +0.153 C 
ATOM     22  O   UNL     1      -2.371   2.011  24.317  0.00  0.00    -0.223 OA
ATOM     23  C   UNL     1      -2.556   0.603  24.469  0.00  0.00    +0.036 C 
ATOM     24  C   UNL     1      -1.754   0.517  24.641  0.00  0.00    +0.043 C 
ATOM     25  C   UNL     1      -1.261   1.177  24.651  0.00  0.00    +0.006 C 
ATOM     26  S   UNL     1      -1.481  -1.555  24.975  0.00  0.00    -0.055 S 
ENDROOT
BRANCH  12  13
ATOM     13  C   UNL     1      -3.975   2.186  23.973  0.00  0.00    +0.081 C 
ATOM     14  C   UNL     1      -3.671   2.630  23.348  0.00  0.00    +0.010 C 
BRANCH  13  15
ATOM     15  C   UNL     1      -4.587   2.489  24.435  0.00  0.00    +0.241 C 
ATOM     16  O   UNL     1      -5.364   2.242  24.304  0.00  0.00    -0.273 OA
ATOM     17  N   UNL     1      -4.424   3.039  25.027  0.00  0.00    -0.207 NA
BRANCH  17  18
ATOM     18  C   UNL     1      -5.036   3.342  25.489  0.00  0.00    +0.095 C 
ATOM     19  C   UNL     1      -5.569   3.947  25.661  0.00  0.00    +0.023 C 
ATOM     20  C   UNL     1      -5.564   3.260  26.118  0.00  0.00    +0.023 C 
ENDBRANCH  17  18
ENDBRANCH  13  15
ENDBRANCH  12  13
TORSDOF 3
ENDMDL
MODEL 7
REMARK VINA RESULT:     -10.2      2.447      3.306
REMARK  Name = 
REMARK  3 active torsions:
REMARK  status: ('A' for Active; 'I' for Inactive)
REMARK    1  A    between atoms: C_12  and  C_13
REMARK    2  A    between atoms: C_13  and  C_15
REMARK    3  A    between atoms: N_17  and  C_18
REMARK                            x       y       z     vdW  Elec       q    Type
REMARK                         _______ _______ _______ _____ _____    ______ ____
ROOT
ATOM      1  C   UNL     1       1.380  -0.003  23.519  0.00  0.00    +0.138 C 
ATOM      2  N   UNL     1       0.661   0.131  23.137  0.00  0.00    -0.213 NA
ATOM      3  C   UNL     1       0.107   0.644  23.468  0.00  0.00    +0.179 A 
ATOM      4  N   UNL     1      -0.632   0.830  23.150  0.00  0.00    -0.228 NA
ATOM      5  C   UNL     1      -1.001   1.363  23.661  0.00  0.00    +0.063 A 
ATOM      6  C   UNL     1      -0.491   1.505  24.294  0.00  0.00    +0.023 A 
ATOM      7  C   UNL     1      -0.717   2.021  24.897  0.00  0.00    +0.034 C 
ATOM      8  C   UNL     1      -1.451   2.395  24.867  0.00  0.00    +0.007 C 
ATOM      9  C   UNL     1      -0.941   2.537  25.500  0.00  0.00    +0.000 C 
ATOM     10  C   UNL     1      -1.676   2.910  25.470  0.00  0.00    +0.001 C 
ATOM     11  C   UNL     1      -2.411   3.284  25.441  0.00  0.00    +0.003 C 
ATOM     12  C   UNL     1      -2.922   3.142  24.809  0.00  0.00    +0.039 C 
ATOM     21  C   UNL     1      -2.696   2.625  24.205  0.00  0.00    +0.153 C 
ATOM     22  O   UNL     1      -3.206   2.483  23.573  0.00  0.00    -0.223 OA
ATOM     23  C   UNL     1      -1.961   2.252  24.235  0.00  0.00    +0.036 C 
ATOM     24  C   UNL     1      -1.737   1.736  23.631  0.00  0.00    +0.043 C 
ATOM     25  C   UNL     1      -2.246   1.594  23.000  0.00  0.00    +0.006 C 
ATOM     26  S   UNL     1       0.194   1.061  24.174  0.00  0.00    -0.055 S 
ENDROOT
BRANCH  12  13
ATOM     13  C   UNL     1      -3.657   3.515  24.779  0.00  0.00    +0.081 C 
ATOM     14  C   UNL     1      -3.784   4.134  24.249  0.00  0.00    +0.010 C 
BRANCH  13  15
ATOM     15  C   UNL     1      -4.265   3.270  25.279  0.00  0.00    +0.241 C 
ATOM     16  O   UNL     1      -4.250   3.476  26.078  0.00  0.00    -0.273 OA
ATOM     17  N   UNL     1      -4.888   2.819  24.981  0.00  0.00    -0.207 NA
BRANCH  17  18
ATOM     18  C   UNL     1      -5.496   2.573  25.482  0.00  0.00    +0.095 C 
ATOM     19  C   UNL     1      -5.878   1.975  25.900  0.00  0.00    +0.023 C 
ATOM     20  C   UNL     1      -6.166   2.747  25.930  0.00  0.00    +0.023 C 
ENDBRANCH  17  18
ENDBRANCH  13  15
ENDBRANCH  12  13
TORSDOF 3
ENDMDL
MODEL 8
REMARK VINA RESULT:      -9.8      2.301      3.930
REMARK  Name = 
REMARK  3 active torsions:
REMARK  status: ('A' for Active; 'I' for Inactive)
REMARK    1  A    between atoms: C_12  and  C_13
REMARK    2  A    between atoms: C_13  and  C_15
REMARK    3  A    between atoms: N_17  and  C_18
REMARK                            x       y       z     vdW  Elec       q    Type
REMARK                         _______ _______ _______ _____ _____    ______ ____
ROOT
ATOM      1  C   UNL     1      -6.728   1.844  24.925  0.00  0.00    +0.138 C 
ATOM      2  N   UNL     1      -6.057   2.314  24.829  0.00  0.00    -0.213 NA
ATOM      3  C   UNL     1      -5.307   1.972  24.846  0.00  0.00    +0.179 A 
ATOM      4  N   UNL     1      -4.591   2.372  24.759  0.00  0.00    -0.228 NA
ATOM      5  C   UNL     1      -3.982   1.817  24.812  0.00  0.00    +0.063 A 
ATOM      6  C   UNL     1      -4.323   1.075  24.932  0.00  0.00    +0.023 A 
ATOM      7  C   UNL     1      -3.843   0.408  25.006  0.00  0.00    +0.034 C 
ATOM      8  C   UNL     1      -3.023   0.482  24.961  0.00  0.00    +0.007 C 
ATOM      9  C   UNL     1      -3.364  -0.260  25.080  0.00  0.00    +0.000 C 
ATOM     10  C   UNL     1      -2.544  -0.184  25.035  0.00  0.00    +0.001 C 
ATOM     11  C   UNL     1      -1.723  -0.111  24.990  0.00  0.00    +0.003 C 
ATOM     12  C   UNL     1      -1.382   0.631  24.870  0.00  0.00    +0.039 C 
ATOM     21  C   UNL     1      -1.862   1.299  24.796  0.00  0.00    +0.153 C 
ATOM     22  O   UNL     1      -1.521   2.040  24.676  0.00  0.00    -0.223 OA
ATOM     23  C   UNL     1      -2.682   1.224  24.841  0.00  0.00    +0.036 C 
ATOM     24  C   UNL     1      -3.161   1.891  24.767  0.00  0.00    +0.043 C 
ATOM     25  C   UNL     1      -2.820   2.632  24.647  0.00  0.00    +0.006 C 
ATOM     26  S   UNL     1      -5.142   1.171  24.953  0.00  0.00    -0.055 S 
ENDROOT
BRANCH  12  13
ATOM     13  C   UNL     1      -0.561   0.706  24.825  0.00  0.00    +0.081 C 
ATOM     14  C   UNL     1      -0.167   1.232  25.323  0.00  0.00    +0.010 C 
BRANCH  13  15
ATOM     15  C   UNL     1      -0.136   0.255  24.282  0.00  0.00    +0.241 C 
ATOM     16  O   UNL     1      -0.072  -0.562  24.384  0.00  0.00    -0.273 OA
ATOM     17  N   UNL     1       0.227   0.619  23.636  0.00  0.00    -0.207 NA
BRANCH  17  18
ATOM     18  C   UNL     1       0.653   0.167  23.093  0.00  0.00    +0.095 C 
ATOM     19  C   UNL     1       0.684  -0.261  22.389  0.00  0.00    +0.023 C 
ATOM     20  C   UNL     1       1.360  -0.187  22.857  0.00  0.00    +0.023 C 
ENDBRANCH  17  18
ENDBRANCH  13  15
ENDBRANCH  12  13
TORSDOF 3
ENDMDL
MODEL 9
REMARK VINA RESULT:      -9.2     18.007     19.830
REMARK  Name = 
REMARK  3 active torsions:
REMARK  status: ('A' for Active; 'I' for Inactive)
REMARK    1  A    between atoms: C_12  and  C_13
REMARK    2  A    between atoms: C_13  and  C_15
REMARK    3  A    between atoms: N_17  and  C_18
REMARK                            x       y       z     vdW  Elec       q    Type
REMARK                         _______ _______ _______ _____ _____    ______ ____
ROOT
ATOM      1  C   UNL     1      10.504   8.822  16.114  0.00  0.00    +0.138 C 
ATOM      2  N   UNL     1      10.608   8.274  16.721  0.00  0.00    -0.213 NA
ATOM      3  C   UNL     1      11.320   8.248  17.137  0.00  0.00    +0.179 A 
ATOM      4  N   UNL     1      11.502   7.731  17.754  0.00  0.00    -0.228 NA
ATOM      5  C   UNL     1      12.270   7.898  18.006  0.00  0.00    +0.063 A 
ATOM      6  C   UNL     1      12.562   8.516  17.544  0.00  0.00    +0.023 A 
ATOM      7  C   UNL     1      13.325   8.803  17.674  0.00  0.00    +0.034 C 
ATOM      8  C   UNL     1      13.796   8.471  18.263  0.00  0.00    +0.007 C 
ATOM      9  C   UNL     1      14.088   9.090  17.802  0.00  0.00    +0.000 C 
ATOM     10  C   UNL     1      14.558   8.757  18.392  0.00  0.00    +0.001 C 
ATOM     11  C   UNL     1      15.030   8.426  18.982  0.00  0.00    +0.003 C 
ATOM     12  C   UNL     1      14.739   7.807  19.444  0.00  0.00    +0.039 C 
ATOM     21  C   UNL     1      13.975   7.520  19.315  0.00  0.00    +0.153 C 
ATOM     22  O   UNL     1      13.684   6.902  19.776  0.00  0.00    -0.223 OA
ATOM     23  C   UNL     1      13.505   7.852  18.725  0.00  0.00    +0.036 C 
ATOM     24  C   UNL     1      12.742   7.565  18.597  0.00  0.00    +0.043 C 
ATOM     25  C   UNL     1      12.451   6.948  19.058  0.00  0.00    +0.006 C 
ATOM     26  S   UNL     1      11.974   8.732  17.007  0.00  0.00    -0.055 S 
ENDROOT
BRANCH  12  13
ATOM     13  C   UNL     1      15.210   7.475  20.034  0.00  0.00    +0.081 C 
ATOM     14  C   UNL     1      14.950   7.473  20.817  0.00  0.00    +0.010 C 
BRANCH  13  15
ATOM     15  C   UNL     1      15.941   7.146  19.842  0.00  0.00    +0.241 C 
ATOM     16  O   UNL     1      16.614   7.622  19.814  0.00  0.00    -0.273 OA
ATOM     17  N   UNL     1      16.000   6.340  19.677  0.00  0.00    -0.207 NA
BRANCH  17  18
ATOM     18  C   UNL     1      16.731   6.010  19.485  0.00  0.00    +0.095 C 
ATOM     19  C   UNL     1      17.323   5.860  18.931  0.00  0.00    +0.023 C 
ATOM     20  C   UNL     1      17.405   5.589  19.706  0.00  0.00    +0.023 C 
ENDBRANCH  17  18
ENDBRANCH  13  15
ENDBRANCH  12  13
TORSDOF 3
ENDMDL
MODEL 10
REMARK VINA RESULT:      -8.8     16.431     18.631
REMARK  Name = 
REMARK  3 active torsions:
REMARK  status: ('A' for Active; 'I' for Inactive)
REMARK    1  A    between atoms: C_12  and  C_13
REMARK    2  A    between atoms: C_13  and  C_15
REMARK    3  A    between atoms: N_17  and  C_18
REMARK                            x       y       z     vdW  Elec       q    Type
REMARK                         _______ _______ _______ _____ _____    ______ ____
ROOT
ATOM      1  C   UNL     1      14.516   8.890  15.036  0.00  0.00    +0.138 C 
ATOM      2  N   UNL     1      13.723   8.833  15.255  0.00  0.00    -0.213 NA
ATOM      3  C   UNL     1      13.519   8.757  16.051  0.00  0.00    +0.179 A 
ATOM      4  N   UNL     1      12.753   8.694  16.350  0.00  0.00    -0.228 NA
ATOM      5  C   UNL     1      12.805   8.630  17.172  0.00  0.00    +0.063 A 
ATOM      6  C   UNL     1      13.603   8.653  17.379  0.00  0.00    +0.023 A 
ATOM      7  C   UNL     1      13.825   8.600  18.172  0.00  0.00    +0.034 C 
ATOM      8  C   UNL     1      13.249   8.523  18.757  0.00  0.00    +0.007 C 
ATOM      9  C   UNL     1      14.048   8.546  18.964  0.00  0.00    +0.000 C 
ATOM     10  C   UNL     1      13.471   8.470  19.549  0.00  0.00    +0.001 C 
ATOM     11  C   UNL     1      12.896   8.393  20.135  0.00  0.00    +0.003 C 
ATOM     12  C   UNL     1      12.097   8.370  19.928  0.00  0.00    +0.039 C 
ATOM     21  C   UNL     1      11.875   8.423  19.135  0.00  0.00    +0.153 C 
ATOM     22  O   UNL     1      11.078   8.400  18.928  0.00  0.00    -0.223 OA
ATOM     23  C   UNL     1      12.451   8.500  18.550  0.00  0.00    +0.036 C 
ATOM     24  C   UNL     1      12.228   8.553  17.758  0.00  0.00    +0.043 C 
ATOM     25  C   UNL     1      11.431   8.530  17.551  0.00  0.00    +0.006 C 
ATOM     26  S   UNL     1      14.044   8.732  16.686  0.00  0.00    -0.055 S 
ENDROOT
BRANCH  12  13
ATOM     13  C   UNL     1      11.521   8.293  20.514  0.00  0.00    +0.081 C 
ATOM     14  C   UNL     1      10.939   8.871  20.598  0.00  0.00    +0.010 C 
BRANCH  13  15
ATOM     15  C   UNL     1      11.527   7.638  21.015  0.00  0.00    +0.241 C 
ATOM     16  O   UNL     1      12.023   7.628  21.675  0.00  0.00    -0.273 OA
ATOM     17  N   UNL     1      11.037   6.994  20.858  0.00  0.00    -0.207 NA
BRANCH  17  18
ATOM     18  C   UNL     1      11.043   6.339  21.360  0.00  0.00    +0.095 C 
ATOM     19  C   UNL     1      11.384   5.628  21.603  0.00  0.00    +0.023 C 
ATOM     20  C   UNL     1      10.712   5.915  21.986  0.00  0.00    +0.023 C 
ENDBRANCH  17  18
ENDBRANCH  13  15
ENDBRANCH  12  13
TORSDOF 3
ENDMDL
