MODEL 1
REMARK VINA RESULT:     -11.5      0.000      0.000
REMARK  Name = 
REMARK  9 active torsions:
REMARK  status: ('A' for Active; 'I' for Inactive)
REMARK    1  A    between atoms: O_2  and  C_3
REMARK    2  A    between atoms: C_6  and  C_7
REMARK    3  A    between atoms: C_7  and  C_8
REMARK    4  A    between atoms: C_13  and  C_14
REMARK    5  A    between atoms: C_14  and  C_15
REMARK    6  A    between atoms: C_18  and  C_19
REMARK    7  A    between atoms: C_19  and  C_20
REMARK    8  A    between atoms: C_20  and  N_21
REMARK    9  A    between atoms: C_25  and  C_26
REMARK                            x       y       z     vdW  Elec       q    Type
REMARK                         _______ _______ _______ _____ _____    ______ ____
ROOT
ATOM      8  C   UNL     1      -3.816   0.607  24.567  0.00  0.00    +0.230 C 
ATOM      9  O   UNL     1      -3.040   0.465  24.329  0.00  0.00    -0.275 OA
ATOM     10  N   UNL     1      -4.049   1.368  24.786  0.00  0.00    -0.279 N 
ATOM     11  C   UNL     1      -4.825   1.511  25.024  0.00  0.00    +0.093 C 
ATOM     12  C   UNL     1      -5.058   2.272  25.242  0.00  0.00    +0.022 C 
ATOM     13  C   UNL     1      -4.513   2.890  25.223  0.00  0.00    +0.015 C 
ATOM     18  C   UNL     1      -3.735   2.748  24.985  0.00  0.00    +0.022 C 
ATOM     29  C   UNL     1      -3.504   1.987  24.766  0.00  0.00    +0.093 C 
ENDROOT
BRANCH   8   7
ATOM      7  C   UNL     1      -4.361  -0.011  24.586  0.00  0.00    +0.112 C 
BRANCH   7   6
ATOM      3  C   UNL     1      -3.575  -2.358  24.557  0.00  0.00    +0.139 A 
ATOM      4  C   UNL     1      -3.471  -1.897  25.233  0.00  0.00    +0.037 A 
ATOM      5  C   UNL     1      -3.733  -1.114  25.243  0.00  0.00    -0.001 A 
ATOM      6  C   UNL     1      -4.099  -0.793  24.577  0.00  0.00    -0.013 A 
ATOM     30  C   UNL     1      -4.203  -1.255  23.901  0.00  0.00    -0.001 A 
ATOM     31  C   UNL     1      -3.941  -2.037  23.891  0.00  0.00    +0.037 A 
BRANCH   3   2
ATOM      1  C   UNL     1      -2.521  -3.309  24.390  0.00  0.00    +0.252 C 
ATOM      2  O   UNL     1      -3.313  -3.140  24.547  0.00  0.00    -0.471 OA
ENDBRANCH   3   2
ENDBRANCH   7   6
ENDBRANCH   8   7
BRANCH  13  14
ATOM     14  C   UNL     1      -4.744   3.651  25.441  0.00  0.00    +0.114 C 
BRANCH  14  15
ATOM     15  C   UNL     1      -5.483   3.774  25.789  0.00  0.00    +0.365 C 
ATOM     16  O   UNL     1      -6.055   4.219  25.395  0.00  0.00    -0.246 OA
ATOM     17  O   UNL     1      -5.648   3.451  26.529  0.00  0.00    -0.246 OA
ENDBRANCH  14  15
ENDBRANCH  13  14
BRANCH  18  19
ATOM     19  C   UNL     1      -3.190   3.367  24.965  0.00  0.00    +0.019 C 
BRANCH  19  20
ATOM     20  C   UNL     1      -2.384   3.209  25.045  0.00  0.00    +0.073 C 
BRANCH  20  21
ATOM     21  N   UNL     1      -1.841   3.830  25.051  0.00  0.00    -0.266 NA
ATOM     22  C   UNL     1      -2.024   4.635  25.029  0.00  0.00    +0.073 C 
ATOM     23  C   UNL     1      -1.315   5.058  25.044  0.00  0.00    +0.019 C 
ATOM     24  C   UNL     1      -0.695   4.515  25.075  0.00  0.00    +0.027 C 
ATOM     25  C   UNL     1      -1.020   3.756  25.079  0.00  0.00    +0.138 C 
BRANCH  25  26
ATOM     26  C   UNL     1      -0.597   3.047  25.107  0.00  0.00    +0.275 C 
ATOM     27  N   UNL     1      -0.388   2.720  25.834  0.00  0.00    -0.087 NA
ATOM     28  O   UNL     1      -0.385   2.667  24.406  0.00  0.00    -0.270 OA
ENDBRANCH  25  26
ENDBRANCH  20  21
ENDBRANCH  19  20
ENDBRANCH  18  19
TORSDOF 9
ENDMDL
MODEL 2
REMARK VINA RESULT:      -9.2      1.723      4.714
REMARK  Name = 
REMARK  9 active torsions:
REMARK  status: ('A' for Active; 'I' for Inactive)
REMARK    1  A    between atoms: O_2  and  C_3
REMARK    2  A    between atoms: C_6  and  C_7
REMARK    3  A    between atoms: C_7  and  C_8
REMARK    4  A    between atoms: C_13  and  C_14
REMARK    5  A    between atoms: C_14  and  C_15
REMARK    6  A    between atoms: C_18  and  C_19
REMARK    7  A    between atoms: C_19  and  C_20
REMARK    8  A    between atoms: C_20  and  N_21
REMARK    9  A    between atoms: C_25  and  C_26
REMARK                            x       y       z     vdW  Elec       q    Type
REMARK                         _______ _______ _______ _____ _____    ______ ____
ROOT
ATOM      8  C   UNL     1      -4.073   1.094  24.739  0.00  0.00    +0.230 C 
ATOM      9  O   UNL     1      -3.578   1.749  24.660  0.00  0.00    -0.275 OA
ATOM     10  N   UNL     1      -3.759   0.332  24.702  0.00  0.00    -0.279 N 
ATOM     11  C   UNL     1      -4.254  -0.323  24.781  0.00  0.00    +0.093 C 
ATOM     12  C   UNL     1      -3.941  -1.085  24.744  0.00  0.00    +0.022 C 
ATOM     13  C   UNL     1      -3.131  -1.192  24.627  0.00  0.00    +0.015 C 
ATOM     18  C   UNL     1      -2.635  -0.537  24.548  0.00  0.00    +0.022 C 
ATOM     29  C   UNL     1      -2.950   0.225  24.585  0.00  0.00    +0.093 C 
ENDROOT
BRANCH   8   7
ATOM      7  C   UNL     1      -4.882   1.201  24.856  0.00  0.00    +0.112 C 
BRANCH   7   6
ATOM      3  C   UNL     1      -5.742   3.379  25.658  0.00  0.00    +0.139 A 
ATOM      4  C   UNL     1      -5.256   3.348  24.993  0.00  0.00    +0.037 A 
ATOM      5  C   UNL     1      -4.969   2.622  24.725  0.00  0.00    -0.001 A 
ATOM      6  C   UNL     1      -5.169   1.927  25.123  0.00  0.00    -0.013 A 
ATOM     30  C   UNL     1      -5.655   1.959  25.789  0.00  0.00    -0.001 A 
ATOM     31  C   UNL     1      -5.942   2.685  26.056  0.00  0.00    +0.037 A 
BRANCH   3   2
ATOM      1  C   UNL     1      -5.921   4.785  25.472  0.00  0.00    +0.252 C 
ATOM      2  O   UNL     1      -6.029   4.105  25.926  0.00  0.00    -0.471 OA
ENDBRANCH   3   2
ENDBRANCH   7   6
ENDBRANCH   8   7
BRANCH  13  14
ATOM     14  C   UNL     1      -2.817  -1.954  24.590  0.00  0.00    +0.114 C 
BRANCH  14  15
ATOM     15  C   UNL     1      -3.306  -2.608  24.709  0.00  0.00    +0.365 C 
ATOM     16  O   UNL     1      -3.419  -2.906  25.470  0.00  0.00    -0.246 OA
ATOM     17  O   UNL     1      -3.682  -2.964  24.066  0.00  0.00    -0.246 OA
ENDBRANCH  14  15
ENDBRANCH  13  14
BRANCH  18  19
ATOM     19  C   UNL     1      -1.825  -0.644  24.431  0.00  0.00    +0.019 C 
BRANCH  19  20
ATOM     20  C   UNL     1      -1.319   0.007  24.434  0.00  0.00    +0.073 C 
BRANCH  20  21
ATOM     21  N   UNL     1      -0.560  -0.060  24.117  0.00  0.00    -0.266 NA
ATOM     22  C   UNL     1      -0.218  -0.749  23.818  0.00  0.00    +0.073 C 
ATOM     23  C   UNL     1       0.544  -0.565  23.560  0.00  0.00    +0.019 C 
ATOM     24  C   UNL     1       0.673   0.238  23.700  0.00  0.00    +0.027 C 
ATOM     25  C   UNL     1      -0.010   0.550  24.044  0.00  0.00    +0.138 C 
BRANCH  25  26
ATOM     26  C   UNL     1      -0.121   1.335  24.274  0.00  0.00    +0.275 C 
ATOM     27  N   UNL     1       0.066   1.570  25.043  0.00  0.00    -0.087 NA
ATOM     28  O   UNL     1      -0.420   1.883  23.736  0.00  0.00    -0.270 OA
ENDBRANCH  25  26
ENDBRANCH  20  21
ENDBRANCH  19  20
ENDBRANCH  18  19
TORSDOF 9
ENDMDL
MODEL 3
REMARK VINA RESULT:      -9.1      1.362      5.085
REMARK  Name = 
REMARK  9 active torsions:
REMARK  status: ('A' for Active; 'I' for Inactive)
REMARK    1  A    between atoms: O_2  and  C_3
REMARK    2  A    between atoms: C_6  and  C_7
REMARK    3  A    between atoms: C_7  and  C_8
REMARK    4  A    between atoms: C_13  and  C_14
REMARK    5  A    between atoms: C_14  and  C_15
REMARK    6  A    between atoms: C_18  and  C_19
REMARK    7  A    between atoms: C_19  and  C_20
REMARK    8  A    between atoms: C_20  and  N_21
REMARK    9  A    between atoms: C_25  and  C_26
REMARK                            x       y       z     vdW  Elec       q    Type
REMARK                         _______ _______ _______ _____ _____    ______ ____
ROOT
ATOM      8  C   UNL     1      -2.885   2.660  25.334  0.00  0.00    +0.230 C 
ATOM      9  O   UNL     1      -2.198   2.256  25.122  0.00  0.00    -0.275 OA
ATOM     10  N   UNL     1      -3.620   2.293  25.259  0.00  0.00    -0.279 N 
ATOM     11  C   UNL     1      -4.307   2.698  25.471  0.00  0.00    +0.093 C 
ATOM     12  C   UNL     1      -5.042   2.331  25.396  0.00  0.00    +0.022 C 
ATOM     13  C   UNL     1      -5.090   1.558  25.110  0.00  0.00    +0.015 C 
ATOM     18  C   UNL     1      -4.402   1.153  24.898  0.00  0.00    +0.022 C 
ATOM     29  C   UNL     1      -3.668   1.521  24.973  0.00  0.00    +0.093 C 
ENDROOT
BRANCH   8   7
ATOM      7  C   UNL     1      -2.837   3.433  25.620  0.00  0.00    +0.112 C 
BRANCH   7   6
ATOM      3  C   UNL     1      -0.939   4.881  24.967  0.00  0.00    +0.139 A 
ATOM      4  C   UNL     1      -1.713   5.151  24.880  0.00  0.00    +0.037 A 
ATOM      5  C   UNL     1      -2.347   4.669  25.098  0.00  0.00    -0.001 A 
ATOM      6  C   UNL     1      -2.205   3.915  25.402  0.00  0.00    -0.013 A 
ATOM     30  C   UNL     1      -1.430   3.644  25.489  0.00  0.00    -0.001 A 
ATOM     31  C   UNL     1      -0.798   4.127  25.272  0.00  0.00    +0.037 A 
BRANCH   3   2
ATOM      1  C   UNL     1       0.088   5.231  24.037  0.00  0.00    +0.252 C 
ATOM      2  O   UNL     1      -0.306   5.363  24.749  0.00  0.00    -0.471 OA
ENDBRANCH   3   2
ENDBRANCH   7   6
ENDBRANCH   8   7
BRANCH  13  14
ATOM     14  C   UNL     1      -5.824   1.190  25.035  0.00  0.00    +0.114 C 
BRANCH  14  15
ATOM     15  C   UNL     1      -6.515   1.610  25.204  0.00  0.00    +0.365 C 
ATOM     16  O   UNL     1      -6.940   1.968  24.594  0.00  0.00    -0.246 OA
ATOM     17  O   UNL     1      -6.779   1.672  25.982  0.00  0.00    -0.246 OA
ENDBRANCH  14  15
ENDBRANCH  13  14
BRANCH  18  19
ATOM     19  C   UNL     1      -4.450   0.381  24.611  0.00  0.00    +0.019 C 
BRANCH  19  20
ATOM     20  C   UNL     1      -3.903  -0.185  24.859  0.00  0.00    +0.073 C 
BRANCH  20  21
ATOM     21  N   UNL     1      -3.928  -0.947  24.545  0.00  0.00    -0.266 NA
ATOM     22  C   UNL     1      -4.366  -1.187  23.887  0.00  0.00    +0.073 C 
ATOM     23  C   UNL     1      -4.228  -1.992  23.768  0.00  0.00    +0.019 C 
ATOM     24  C   UNL     1      -3.706  -2.250  24.353  0.00  0.00    +0.027 C 
ATOM     25  C   UNL     1      -3.521  -1.604  24.833  0.00  0.00    +0.138 C 
BRANCH  25  26
ATOM     26  C   UNL     1      -3.017  -1.614  25.486  0.00  0.00    +0.275 C 
ATOM     27  N   UNL     1      -2.201  -1.559  25.379  0.00  0.00    -0.087 NA
ATOM     28  O   UNL     1      -3.330  -1.679  26.247  0.00  0.00    -0.270 OA
ENDBRANCH  25  26
ENDBRANCH  20  21
ENDBRANCH  19  20
ENDBRANCH  18  19
TORSDOF 9
ENDMDL
MODEL 4
REMARK VINA RESULT:      -8.8      2.657      4.452
REMARK  Name = 
REMARK  9 active torsions:
REMARK  status: ('A' for Active; 'I' for Inactive)
REMARK    1  A    between atoms: O_2  and  C_3
REMARK    2  A    between atoms: C_6  and  C_7
REMARK    3  A    between atoms: C_7  and  C_8
REMARK    4  A    between atoms: C_13  and  C_14
REMARK    5  A    between atoms: C_14  and  C_15
REMARK    6  A    between atoms: C_18  and  C_19
REMARK    7  A    between atoms: C_19  and  C_20
REMARK    8  A    between atoms: C_20  and  N_21
REMARK    9  A    between atoms: C_25  and  C_26
REMARK                            x       y       z     vdW  Elec       q    Type
REMARK                         _______ _______ _______ _____ _____    ______ ____
ROOT
ATOM      8  C   UNL     1      -0.611   0.410  23.921  0.00  0.00    +0.230 C 
ATOM      9  O   UNL     1      -0.495   1.164  23.609  0.00  0.00    -0.275 OA
ATOM     10  N   UNL     1      -1.336   0.211  24.262  0.00  0.00    -0.279 N 
ATOM     11  C   UNL     1      -1.452  -0.543  24.574  0.00  0.00    +0.093 C 
ATOM     12  C   UNL     1      -2.176  -0.743  24.915  0.00  0.00    +0.022 C 
ATOM     13  C   UNL     1      -2.785  -0.187  24.943  0.00  0.00    +0.015 C 
ATOM     18  C   UNL     1      -2.670   0.568  24.630  0.00  0.00    +0.022 C 
ATOM     29  C   UNL     1      -1.945   0.767  24.290  0.00  0.00    +0.093 C 
ENDROOT
BRANCH   8   7
ATOM      7  C   UNL     1      -0.002  -0.146  23.893  0.00  0.00    +0.112 C 
BRANCH   7   6
ATOM      3  C   UNL     1       2.089   0.368  22.673  0.00  0.00    +0.139 A 
ATOM      4  C   UNL     1       1.584  -0.221  22.396  0.00  0.00    +0.037 A 
ATOM      5  C   UNL     1       0.887  -0.393  22.802  0.00  0.00    -0.001 A 
ATOM      6  C   UNL     1       0.695   0.025  23.486  0.00  0.00    -0.013 A 
ATOM     30  C   UNL     1       1.200   0.616  23.765  0.00  0.00    -0.001 A 
ATOM     31  C   UNL     1       1.897   0.787  23.358  0.00  0.00    +0.037 A 
BRANCH   3   2
ATOM      1  C   UNL     1       3.516   0.446  22.640  0.00  0.00    +0.252 C 
ATOM      2  O   UNL     1       2.786   0.540  22.267  0.00  0.00    -0.471 OA
ENDBRANCH   3   2
ENDBRANCH   7   6
ENDBRANCH   8   7
BRANCH  13  14
ATOM     14  C   UNL     1      -3.510  -0.385  25.283  0.00  0.00    +0.114 C 
BRANCH  14  15
ATOM     15  C   UNL     1      -3.655  -1.163  25.521  0.00  0.00    +0.365 C 
ATOM     16  O   UNL     1      -3.946  -1.713  24.980  0.00  0.00    -0.246 OA
ATOM     17  O   UNL     1      -3.508  -1.388  26.301  0.00  0.00    -0.246 OA
ENDBRANCH  14  15
ENDBRANCH  13  14
BRANCH  18  19
ATOM     19  C   UNL     1      -3.279   1.124  24.658  0.00  0.00    +0.019 C 
BRANCH  19  20
ATOM     20  C   UNL     1      -3.106   1.918  24.802  0.00  0.00    +0.073 C 
BRANCH  20  21
ATOM     21  N   UNL     1      -3.716   2.471  24.846  0.00  0.00    -0.266 NA
ATOM     22  C   UNL     1      -4.511   2.331  24.675  0.00  0.00    +0.073 C 
ATOM     23  C   UNL     1      -4.926   3.035  24.793  0.00  0.00    +0.019 C 
ATOM     24  C   UNL     1      -4.387   3.610  25.037  0.00  0.00    +0.027 C 
ATOM     25  C   UNL     1      -3.639   3.261  25.070  0.00  0.00    +0.138 C 
BRANCH  25  26
ATOM     26  C   UNL     1      -2.938   3.637  25.289  0.00  0.00    +0.275 C 
ATOM     27  N   UNL     1      -2.743   3.714  26.087  0.00  0.00    -0.087 NA
ATOM     28  O   UNL     1      -2.433   3.937  24.710  0.00  0.00    -0.270 OA
ENDBRANCH  25  26
ENDBRANCH  20  21
ENDBRANCH  19  20
ENDBRANCH  18  19
TORSDOF 9
ENDMDL
MODEL 5
REMARK VINA RESULT:      -8.5      1.374      3.232
REMARK  Name = 
REMARK  9 active torsions:
REMARK  status: ('A' for Active; 'I' for Inactive)
REMARK    1  A    between atoms: O_2  and  C_3
REMARK    2  A    between atoms: C_6  and  C_7
REMARK    3  A    between atoms: C_7  and  C_8
REMARK    4  A    between atoms: C_13  and  C_14
REMARK    5  A    between atoms: C_14  and  C_15
REMARK    6  A    between atoms: C_18  and  C_19
REMARK    7  A    between atoms: C_19  and  C_20
REMARK    8  A    between atoms: C_20  and  N_21
REMARK    9  A    between atoms: C_25  and  C_26
REMARK                            x       y       z     vdW  Elec       q    Type
REMARK                         _______ _______ _______ _____ _____    ______ ____
ROOT
ATOM      8  C   UNL     1      -2.403  -0.082  25.161  0.00  0.00    +0.230 C 
ATOM      9  O   UNL     1      -3.182  -0.023  24.898  0.00  0.00    -0.275 OA
ATOM     10  N   UNL     1      -1.957   0.600  25.291  0.00  0.00    -0.279 N 
ATOM     11  C   UNL     1      -1.178   0.540  25.555  0.00  0.00    +0.093 C 
ATOM     12  C   UNL     1      -0.732   1.222  25.685  0.00  0.00    +0.022 C 
ATOM     13  C   UNL     1      -1.067   1.964  25.551  0.00  0.00    +0.015 C 
ATOM     18  C   UNL     1      -1.847   2.025  25.287  0.00  0.00    +0.022 C 
ATOM     29  C   UNL     1      -2.291   1.342  25.157  0.00  0.00    +0.093 C 
ENDROOT
BRANCH   8   7
ATOM      7  C   UNL     1      -2.068  -0.825  25.295  0.00  0.00    +0.112 C 
BRANCH   7   6
ATOM      3  C   UNL     1      -3.248  -2.869  24.550  0.00  0.00    +0.139 A 
ATOM      4  C   UNL     1      -3.567  -2.405  25.152  0.00  0.00    +0.037 A 
ATOM      5  C   UNL     1      -3.175  -1.723  25.401  0.00  0.00    -0.001 A 
ATOM      6  C   UNL     1      -2.462  -1.506  25.047  0.00  0.00    -0.013 A 
ATOM     30  C   UNL     1      -2.142  -1.970  24.444  0.00  0.00    -0.001 A 
ATOM     31  C   UNL     1      -2.536  -2.651  24.196  0.00  0.00    +0.037 A 
BRANCH   3   2
ATOM      1  C   UNL     1      -4.278  -3.493  23.780  0.00  0.00    +0.252 C 
ATOM      2  O   UNL     1      -3.641  -3.550  24.301  0.00  0.00    -0.471 OA
ENDBRANCH   3   2
ENDBRANCH   7   6
ENDBRANCH   8   7
BRANCH  13  14
ATOM     14  C   UNL     1      -0.622   2.647  25.680  0.00  0.00    +0.114 C 
BRANCH  14  15
ATOM     15  C   UNL     1       0.192   2.591  25.808  0.00  0.00    +0.365 C 
ATOM     16  O   UNL     1       0.704   2.492  25.169  0.00  0.00    -0.246 OA
ATOM     17  O   UNL     1       0.492   2.634  26.575  0.00  0.00    -0.246 OA
ENDBRANCH  14  15
ENDBRANCH  13  14
BRANCH  18  19
ATOM     19  C   UNL     1      -2.181   2.767  25.153  0.00  0.00    +0.019 C 
BRANCH  19  20
ATOM     20  C   UNL     1      -2.982   2.891  25.305  0.00  0.00    +0.073 C 
BRANCH  20  21
ATOM     21  N   UNL     1      -3.382   3.507  24.928  0.00  0.00    -0.266 NA
ATOM     22  C   UNL     1      -3.068   4.010  24.354  0.00  0.00    +0.073 C 
ATOM     23  C   UNL     1      -3.659   4.542  24.131  0.00  0.00    +0.019 C 
ATOM     24  C   UNL     1      -4.337   4.367  24.567  0.00  0.00    +0.027 C 
ATOM     25  C   UNL     1      -4.166   3.728  25.060  0.00  0.00    +0.138 C 
BRANCH  25  26
ATOM     26  C   UNL     1      -4.688   3.372  25.591  0.00  0.00    +0.275 C 
ATOM     27  N   UNL     1      -5.229   2.809  25.324  0.00  0.00    -0.087 NA
ATOM     28  O   UNL     1      -4.668   3.579  26.389  0.00  0.00    -0.270 OA
ENDBRANCH  25  26
ENDBRANCH  20  21
ENDBRANCH  19  20
ENDBRANCH  18  19
TORSDOF 9
ENDMDL
MODEL 6
REMARK VINA RESULT:      -8.4      1.833      3.533
REMARK  Name = 
REMARK  9 active torsions:
REMARK  status: ('A' for Active; 'I' for Inactive)
REMARK    1  A    between atoms: O_2  and  C_3
REMARK    2  A    between atoms: C_6  and  C_7
REMARK    3  A    between atoms: C_7  and  C_8
REMARK    4  A    between atoms: C_13  and  C_14
REMARK    5  A    between atoms: C_14  and  C_15
REMARK    6  A    between atoms: C_18  and  C_19
REMARK    7  A    between atoms: C_19  and  C_20
REMARK    8  A    between atoms: C_20  and  N_21
REMARK    9  A    between atoms: C_25  and  C_26
REMARK                            x       y       z     vdW  Elec       q    Type
REMARK                         _______ _______ _______ _____ _____    ______ ____
ROOT
ATOM      8  C   UNL     1      -1.758   1.246  25.171  0.00  0.00    +0.230 C 
ATOM      9  O   UNL     1      -2.447   0.794  25.150  0.00  0.00    -0.275 OA
ATOM     10  N   UNL     1      -1.805   2.068  25.227  0.00  0.00    -0.279 N 
ATOM     11  C   UNL     1      -1.116   2.520  25.248  0.00  0.00    +0.093 C 
ATOM     12  C   UNL     1      -1.162   3.342  25.303  0.00  0.00    +0.022 C 
ATOM     13  C   UNL     1      -1.899   3.711  25.338  0.00  0.00    +0.015 C 
ATOM     18  C   UNL     1      -2.590   3.259  25.317  0.00  0.00    +0.022 C 
ATOM     29  C   UNL     1      -2.542   2.437  25.261  0.00  0.00    +0.093 C 
ENDROOT
BRANCH   8   7
ATOM      7  C   UNL     1      -1.021   0.876  25.137  0.00  0.00    +0.112 C 
BRANCH   7   6
ATOM      3  C   UNL     1      -0.877  -1.585  24.920  0.00  0.00    +0.139 A 
ATOM      4  C   UNL     1      -1.058  -1.245  25.649  0.00  0.00    +0.037 A 
ATOM      5  C   UNL     1      -1.106  -0.425  25.722  0.00  0.00    -0.001 A 
ATOM      6  C   UNL     1      -0.973   0.056  25.065  0.00  0.00    -0.013 A 
ATOM     30  C   UNL     1      -0.793  -0.284  24.334  0.00  0.00    -0.001 A 
ATOM     31  C   UNL     1      -0.745  -1.104  24.262  0.00  0.00    +0.037 A 
BRANCH   3   2
ATOM      1  C   UNL     1      -1.459  -2.829  24.524  0.00  0.00    +0.252 C 
ATOM      2  O   UNL     1      -0.829  -2.405  24.846  0.00  0.00    -0.471 OA
ENDBRANCH   3   2
ENDBRANCH   7   6
ENDBRANCH   8   7
BRANCH  13  14
ATOM     14  C   UNL     1      -1.947   4.533  25.393  0.00  0.00    +0.114 C 
BRANCH  14  15
ATOM     15  C   UNL     1      -1.372   5.005  25.035  0.00  0.00    +0.365 C 
ATOM     16  O   UNL     1      -0.623   5.070  25.374  0.00  0.00    -0.246 OA
ATOM     17  O   UNL     1      -1.547   5.410  24.339  0.00  0.00    -0.246 OA
ENDBRANCH  14  15
ENDBRANCH  13  14
BRANCH  18  19
ATOM     19  C   UNL     1      -3.326   3.628  25.351  0.00  0.00    +0.019 C 
BRANCH  19  20
ATOM     20  C   UNL     1      -4.016   3.174  25.343  0.00  0.00    +0.073 C 
BRANCH  20  21
ATOM     21  N   UNL     1      -4.751   3.540  25.424  0.00  0.00    -0.266 NA
ATOM     22  C   UNL     1      -4.882   4.349  25.523  0.00  0.00    +0.073 C 
ATOM     23  C   UNL     1      -5.696   4.470  25.580  0.00  0.00    +0.019 C 
ATOM     24  C   UNL     1      -6.068   3.737  25.516  0.00  0.00    +0.027 C 
ATOM     25  C   UNL     1      -5.484   3.162  25.420  0.00  0.00    +0.138 C 
BRANCH  25  26
ATOM     26  C   UNL     1      -5.610   2.351  25.335  0.00  0.00    +0.275 C 
ATOM     27  N   UNL     1      -5.736   1.881  26.001  0.00  0.00    -0.087 NA
ATOM     28  O   UNL     1      -5.612   2.011  24.583  0.00  0.00    -0.270 OA
ENDBRANCH  25  26
ENDBRANCH  20  21
ENDBRANCH  19  20
ENDBRANCH  18  19
TORSDOF 9
ENDMDL
MODEL 7
REMARK VINA RESULT:      -8.3      2.249      6.187
REMARK  Name = 
REMARK  9 active torsions:
REMARK  status: ('A' for Active; 'I' for Inactive)
REMARK    1  A    between atoms: O_2  and  C_3
REMARK    2  A    between atoms: C_6  and  C_7
REMARK    3  A    between atoms: C_7  and  C_8
REMARK    4  A    between atoms: C_13  and  C_14
REMARK    5  A    between atoms: C_14  and  C_15
REMARK    6  A    between atoms: C_18  and  C_19
REMARK    7  A    between atoms: C_19  and  C_20
REMARK    8  A    between atoms: C_20  and  N_21
REMARK    9  A    between atoms: C_25  and  C_26
REMARK                            x       y       z     vdW  Elec       q    Type
REMARK                         _______ _______ _______ _____ _____    ______ ____
ROOT
ATOM      8  C   UNL     1      -0.895   1.967  25.403  0.00  0.00    +0.230 C 
ATOM      9  O   UNL     1      -1.583   1.870  25.846  0.00  0.00    -0.275 OA
ATOM     10  N   UNL     1      -0.617   1.350  24.931  0.00  0.00    -0.279 N 
ATOM     11  C   UNL     1       0.072   1.447  24.488  0.00  0.00    +0.093 C 
ATOM     12  C   UNL     1       0.350   0.829  24.016  0.00  0.00    +0.022 C 
ATOM     13  C   UNL     1      -0.062   0.115  23.988  0.00  0.00    +0.015 C 
ATOM     18  C   UNL     1      -0.751   0.017  24.432  0.00  0.00    +0.022 C 
ATOM     29  C   UNL     1      -1.028   0.635  24.903  0.00  0.00    +0.093 C 
ENDROOT
BRANCH   8   7
ATOM      7  C   UNL     1      -0.484   2.682  25.431  0.00  0.00    +0.112 C 
BRANCH   7   6
ATOM      3  C   UNL     1      -1.718   4.826  25.373  0.00  0.00    +0.139 A 
ATOM      4  C   UNL     1      -2.007   4.196  25.820  0.00  0.00    +0.037 A 
ATOM      5  C   UNL     1      -1.596   3.481  25.839  0.00  0.00    -0.001 A 
ATOM      6  C   UNL     1      -0.895   3.396  25.412  0.00  0.00    -0.013 A 
ATOM     30  C   UNL     1      -0.606   4.027  24.964  0.00  0.00    -0.001 A 
ATOM     31  C   UNL     1      -1.018   4.741  24.945  0.00  0.00    +0.037 A 
BRANCH   3   2
ATOM      1  C   UNL     1      -1.853   6.163  24.888  0.00  0.00    +0.252 C 
ATOM      2  O   UNL     1      -2.129   5.541  25.353  0.00  0.00    -0.471 OA
ENDBRANCH   3   2
ENDBRANCH   7   6
ENDBRANCH   8   7
BRANCH  13  14
ATOM     14  C   UNL     1       0.215  -0.503  23.517  0.00  0.00    +0.114 C 
BRANCH  14  15
ATOM     15  C   UNL     1       0.850  -0.378  23.004  0.00  0.00    +0.365 C 
ATOM     16  O   UNL     1       1.624  -0.477  23.273  0.00  0.00    -0.246 OA
ATOM     17  O   UNL     1       0.711  -0.152  22.223  0.00  0.00    -0.246 OA
ENDBRANCH  14  15
ENDBRANCH  13  14
BRANCH  18  19
ATOM     19  C   UNL     1      -1.162  -0.697  24.404  0.00  0.00    +0.019 C 
BRANCH  19  20
ATOM     20  C   UNL     1      -1.958  -0.723  24.619  0.00  0.00    +0.073 C 
BRANCH  20  21
ATOM     21  N   UNL     1      -2.361  -1.443  24.624  0.00  0.00    -0.266 NA
ATOM     22  C   UNL     1      -2.019  -2.190  24.539  0.00  0.00    +0.073 C 
ATOM     23  C   UNL     1      -2.623  -2.752  24.577  0.00  0.00    +0.019 C 
ATOM     24  C   UNL     1      -3.336  -2.353  24.685  0.00  0.00    +0.027 C 
ATOM     25  C   UNL     1      -3.174  -1.544  24.714  0.00  0.00    +0.138 C 
BRANCH  25  26
ATOM     26  C   UNL     1      -3.729  -0.941  24.815  0.00  0.00    +0.275 C 
ATOM     27  N   UNL     1      -4.116  -0.622  24.160  0.00  0.00    -0.087 NA
ATOM     28  O   UNL     1      -3.897  -0.659  25.572  0.00  0.00    -0.270 OA
ENDBRANCH  25  26
ENDBRANCH  20  21
ENDBRANCH  19  20
ENDBRANCH  18  19
TORSDOF 9
ENDMDL
MODEL 8
REMARK VINA RESULT:      -8.3      1.938      5.754
REMARK  Name = 
REMARK  9 active torsions:
REMARK  status: ('A' for Active; 'I' for Inactive)
REMARK    1  A    between atoms: O_2  and  C_3
REMARK    2  A    between atoms: C_6  and  C_7
REMARK    3  A    between atoms: C_7  and  C_8
REMARK    4  A    between atoms: C_13  and  C_14
REMARK    5  A    between atoms: C_14  and  C_15
REMARK    6  A    between atoms: C_18  and  C_19
REMARK    7  A    between atoms: C_19  and  C_20
REMARK    8  A    between atoms: C_20  and  N_21
REMARK    9  A    between atoms: C_25  and  C_26
REMARK                            x       y       z     vdW  Elec       q    Type
REMARK                         _______ _______ _______ _____ _____    ______ ____
ROOT
ATOM      8  C   UNL     1      -2.589   1.852  24.763  0.00  0.00    +0.230 C 
ATOM      9  O   UNL     1      -3.279   1.488  25.028  0.00  0.00    -0.275 OA
ATOM     10  N   UNL     1      -1.935   1.395  24.552  0.00  0.00    -0.279 N 
ATOM     11  C   UNL     1      -1.245   1.759  24.287  0.00  0.00    +0.093 C 
ATOM     12  C   UNL     1      -0.591   1.302  24.075  0.00  0.00    +0.022 C 
ATOM     13  C   UNL     1      -0.629   0.479  24.130  0.00  0.00    +0.015 C 
ATOM     18  C   UNL     1      -1.320   0.114  24.395  0.00  0.00    +0.022 C 
ATOM     29  C   UNL     1      -1.973   0.573  24.606  0.00  0.00    +0.093 C 
ENDROOT
BRANCH   8   7
ATOM      7  C   UNL     1      -2.551   2.675  24.708  0.00  0.00    +0.112 C 
BRANCH   7   6
ATOM      3  C   UNL     1      -4.550   4.043  25.215  0.00  0.00    +0.139 A 
ATOM      4  C   UNL     1      -4.427   3.760  24.450  0.00  0.00    +0.037 A 
ATOM      5  C   UNL     1      -3.761   3.304  24.281  0.00  0.00    -0.001 A 
ATOM      6  C   UNL     1      -3.218   3.131  24.877  0.00  0.00    -0.013 A 
ATOM     30  C   UNL     1      -3.341   3.414  25.643  0.00  0.00    -0.001 A 
ATOM     31  C   UNL     1      -4.007   3.870  25.811  0.00  0.00    +0.037 A 
BRANCH   3   2
ATOM      1  C   UNL     1      -5.908   4.138  25.651  0.00  0.00    +0.252 C 
ATOM      2  O   UNL     1      -5.217   4.499  25.385  0.00  0.00    -0.471 OA
ENDBRANCH   3   2
ENDBRANCH   7   6
ENDBRANCH   8   7
BRANCH  13  14
ATOM     14  C   UNL     1       0.024   0.021  23.919  0.00  0.00    +0.114 C 
BRANCH  14  15
ATOM     15  C   UNL     1       0.611   0.339  23.434  0.00  0.00    +0.365 C 
ATOM     16  O   UNL     1       0.653   0.121  22.639  0.00  0.00    -0.246 OA
ATOM     17  O   UNL     1       1.156   0.875  23.744  0.00  0.00    -0.246 OA
ENDBRANCH  14  15
ENDBRANCH  13  14
BRANCH  18  19
ATOM     19  C   UNL     1      -1.358  -0.708  24.450  0.00  0.00    +0.019 C 
BRANCH  19  20
ATOM     20  C   UNL     1      -2.077  -1.077  24.617  0.00  0.00    +0.073 C 
BRANCH  20  21
ATOM     21  N   UNL     1      -2.144  -1.897  24.552  0.00  0.00    -0.266 NA
ATOM     22  C   UNL     1      -1.525  -2.424  24.405  0.00  0.00    +0.073 C 
ATOM     23  C   UNL     1      -1.840  -3.187  24.385  0.00  0.00    +0.019 C 
ATOM     24  C   UNL     1      -2.652  -3.131  24.519  0.00  0.00    +0.027 C 
ATOM     25  C   UNL     1      -2.839  -2.334  24.623  0.00  0.00    +0.138 C 
BRANCH  25  26
ATOM     26  C   UNL     1      -3.591  -2.028  24.771  0.00  0.00    +0.275 C 
ATOM     27  N   UNL     1      -4.124  -1.923  24.149  0.00  0.00    -0.087 NA
ATOM     28  O   UNL     1      -3.810  -1.826  25.540  0.00  0.00    -0.270 OA
ENDBRANCH  25  26
ENDBRANCH  20  21
ENDBRANCH  19  20
ENDBRANCH  18  19
TORSDOF 9
ENDMDL
