MODEL 1
REMARK VINA RESULT:     -11.8      0.000      0.000
REMARK  Name = 
REMARK  5 active torsions:
REMARK  status: ('A' for Active; 'I' for Inactive)
REMARK    1  A    between atoms: C_2  and  C_4
REMARK    2  A    between atoms: C_5  and  C_28
REMARK    3  A    between atoms: N_6  and  C_9
REMARK    4  A    between atoms: CA_18  and  CB_19
REMARK    5  A    between atoms: CB_19  and  CG_20
REMARK                            x       y       z     vdW  Elec       q    Type
REMARK                         _______ _______ _______ _____ _____    ______ ____
ROOT
ATOM      9  C   UNK A   1      -1.648  -0.462  24.945  0.00  0.00    +0.111 C 
ATOM     10  C   UNK A   1      -1.302  -0.388  25.691  0.00  0.00    +0.046 C 
ATOM     11  C   UNK A   1      -0.988   0.337  25.930  0.00  0.00    +0.096 C 
ATOM     12  N   UNK A   1      -1.020   0.988  25.424  0.00  0.00    -0.271 N 
ATOM     13  C   UNK A   1      -1.365   0.914  24.678  0.00  0.00    +0.155 C 
ATOM     14  C   UNK A   1      -1.679   0.189  24.439  0.00  0.00    +0.054 C 
ATOM     15  C   UNK A   1      -1.396   1.564  24.172  0.00  0.00    +0.260 C 
ATOM     16  O   UNK A   1      -1.741   1.491  23.426  0.00  0.00    -0.272 OA
ATOM     17  N   PHE A   2      -1.083   2.288  24.411  0.00  0.00    -0.196 NA
ATOM     18  CA  PHE A   2      -0.737   2.362  25.158  0.00  0.00    +0.176 C 
ATOM     26  C   PHE A   2      -0.706   1.712  25.664  0.00  0.00    +0.246 C 
ATOM     27  O   PHE A   2      -0.361   1.786  26.409  0.00  0.00    -0.273 OA
ENDROOT
BRANCH   9   6
ATOM      4  C   UNK A   1      -2.800  -2.208  24.525  0.00  0.00    +0.183 A 
ATOM      5  C   UNK A   1      -2.722  -1.462  24.868  0.00  0.00    +0.160 A 
ATOM      6  N   UNK A   1      -1.961  -1.186  24.706  0.00  0.00    -0.229 N 
ATOM      7  N   UNK A   1      -1.569  -1.762  24.263  0.00  0.00    -0.064 NA
ATOM      8  N   UNK A   1      -2.089  -2.394  24.151  0.00  0.00    -0.124 NA
BRANCH   4   2
ATOM      1  N   UNK A   1      -4.023  -2.657  23.937  0.00  0.00    -0.082 NA
ATOM      2  C   UNK A   1      -3.473  -2.686  24.551  0.00  0.00    +0.305 C 
ATOM      3  O   UNK A   1      -3.594  -3.192  25.190  0.00  0.00    -0.265 OA
ENDBRANCH   4   2
BRANCH   5  28
ATOM     28  C   UNK A   1      -3.302  -1.062  25.297  0.00  0.00    +0.303 C 
ATOM     29  N   UNK A   1      -3.861  -0.599  24.903  0.00  0.00    -0.082 NA
ATOM     30  O   UNK A   1      -3.324  -1.125  26.118  0.00  0.00    -0.265 OA
ENDBRANCH   5  28
ENDBRANCH   9   6
BRANCH  18  19
ATOM     19  CB  PHE A   2      -0.424   3.087  25.397  0.00  0.00    +0.057 C 
BRANCH  19  20
ATOM     20  CG  PHE A   2      -0.867   3.777  25.308  0.00  0.00    -0.020 A 
ATOM     21  CD1 PHE A   2      -1.575   3.869  25.721  0.00  0.00    -0.004 A 
ATOM     22  CE1 PHE A   2      -2.018   4.558  25.632  0.00  0.00    -0.000 A 
ATOM     23  CZ  PHE A   2      -1.754   5.157  25.130  0.00  0.00    -0.000 A 
ATOM     24  CE2 PHE A   2      -1.045   5.065  24.716  0.00  0.00    -0.000 A 
ATOM     25  CD2 PHE A   2      -0.602   4.376  24.805  0.00  0.00    -0.004 A 
ENDBRANCH  19  20
ENDBRANCH  18  19
TORSDOF 5
ENDMDL
MODEL 2
REMARK VINA RESULT:     -11.4      1.605      2.220
REMARK  Name = 
REMARK  5 active torsions:
REMARK  status: ('A' for Active; 'I' for Inactive)
REMARK    1  A    between atoms: C_2  and  C_4
REMARK    2  A    between atoms: C_5  and  C_28
REMARK    3  A    between atoms: N_6  and  C_9
REMARK    4  A    between atoms: CA_18  and  CB_19
REMARK    5  A    between atoms: CB_19  and  CG_20
REMARK                            x       y       z     vdW  Elec       q    Type
REMARK                         _______ _______ _______ _____ _____    ______ ____
ROOT
ATOM      9  C   UNK A   1      -3.983  -0.037  24.462  0.00  0.00    +0.111 C 
ATOM     10  C   UNK A   1      -4.532   0.253  25.007  0.00  0.00    +0.046 C 
ATOM     11  C   UNK A   1      -4.559   1.061  25.173  0.00  0.00    +0.096 C 
ATOM     12  N   UNK A   1      -4.040   1.579  24.795  0.00  0.00    -0.271 N 
ATOM     13  C   UNK A   1      -3.491   1.289  24.251  0.00  0.00    +0.155 C 
ATOM     14  C   UNK A   1      -3.463   0.481  24.084  0.00  0.00    +0.054 C 
ATOM     15  C   UNK A   1      -2.972   1.806  23.873  0.00  0.00    +0.260 C 
ATOM     16  O   UNK A   1      -2.424   1.516  23.329  0.00  0.00    -0.272 OA
ATOM     17  N   PHE A   2      -3.000   2.613  24.040  0.00  0.00    -0.196 NA
ATOM     18  CA  PHE A   2      -3.548   2.904  24.585  0.00  0.00    +0.176 C 
ATOM     26  C   PHE A   2      -4.068   2.386  24.962  0.00  0.00    +0.246 C 
ATOM     27  O   PHE A   2      -4.616   2.676  25.506  0.00  0.00    -0.273 OA
ENDROOT
BRANCH   9   6
ATOM      4  C   UNK A   1      -3.660  -2.144  24.361  0.00  0.00    +0.183 A 
ATOM      5  C   UNK A   1      -3.531  -1.412  24.718  0.00  0.00    +0.160 A 
ATOM      6  N   UNK A   1      -3.955  -0.844  24.295  0.00  0.00    -0.229 N 
ATOM      7  N   UNK A   1      -4.346  -1.226  23.677  0.00  0.00    -0.064 NA
ATOM      8  N   UNK A   1      -4.163  -2.030  23.718  0.00  0.00    -0.124 NA
BRANCH   4   2
ATOM      1  N   UNK A   1      -2.655  -3.154  24.249  0.00  0.00    -0.082 NA
ATOM      2  C   UNK A   1      -3.341  -2.865  24.604  0.00  0.00    +0.305 C 
ATOM      3  O   UNK A   1      -3.709  -3.297  25.203  0.00  0.00    -0.265 OA
ENDBRANCH   4   2
BRANCH   5  28
ATOM     28  C   UNK A   1      -3.060  -1.271  25.381  0.00  0.00    +0.303 C 
ATOM     29  N   UNK A   1      -2.248  -1.153  25.293  0.00  0.00    -0.082 NA
ATOM     30  O   UNK A   1      -3.401  -1.250  26.131  0.00  0.00    -0.265 OA
ENDBRANCH   5  28
ENDBRANCH   9   6
BRANCH  18  19
ATOM     19  CB  PHE A   2      -3.576   3.711  24.751  0.00  0.00    +0.057 C 
BRANCH  19  20
ATOM     20  CG  PHE A   2      -2.885   4.114  24.953  0.00  0.00    -0.020 A 
ATOM     21  CD1 PHE A   2      -2.494   4.573  24.390  0.00  0.00    -0.004 A 
ATOM     22  CE1 PHE A   2      -1.804   4.975  24.592  0.00  0.00    -0.000 A 
ATOM     23  CZ  PHE A   2      -1.503   4.920  25.357  0.00  0.00    -0.000 A 
ATOM     24  CE2 PHE A   2      -1.893   4.460  25.922  0.00  0.00    -0.000 A 
ATOM     25  CD2 PHE A   2      -2.583   4.058  25.720  0.00  0.00    -0.004 A 
ENDBRANCH  19  20
ENDBRANCH  18  19
TORSDOF 5
ENDMDL
MODEL 3
REMARK VINA RESULT:     -11.1      1.630      5.510
REMARK  Name = 
REMARK  5 active torsions:
REMARK  status: ('A' for Active; 'I' for Inactive)
REMARK    1  A    between atoms: C_2  and  C_4
REMARK    2  A    between atoms: C_5  and  C_28
REMARK    3  A    between atoms: N_6  and  C_9
REMARK    4  A    between atoms: CA_18  and  CB_19
REMARK    5  A    between atoms: CB_19  and  CG_20
REMARK                            x       y       z     vdW  Elec       q    Type
REMARK                         _______ _______ _______ _____ _____    ______ ____
ROOT
ATOM      9  C   UNK A   1      -2.381   2.380  24.557  0.00  0.00    +0.111 C 
ATOM     10  C   UNK A   1      -3.197   2.470  24.467  0.00  0.00    +0.046 C 
ATOM     11  C   UNK A   1      -3.698   1.825  24.583  0.00  0.00    +0.096 C 
ATOM     12  N   UNK A   1      -3.385   1.089  24.788  0.00  0.00    -0.271 N 
ATOM     13  C   UNK A   1      -2.569   0.999  24.878  0.00  0.00    +0.155 C 
ATOM     14  C   UNK A   1      -2.068   1.644  24.762  0.00  0.00    +0.054 C 
ATOM     15  C   UNK A   1      -2.255   0.265  25.084  0.00  0.00    +0.260 C 
ATOM     16  O   UNK A   1      -1.440   0.175  25.173  0.00  0.00    -0.272 OA
ATOM     17  N   PHE A   2      -2.756  -0.380  25.199  0.00  0.00    -0.196 NA
ATOM     18  CA  PHE A   2      -3.572  -0.290  25.109  0.00  0.00    +0.176 C 
ATOM     26  C   PHE A   2      -3.886   0.445  24.904  0.00  0.00    +0.246 C 
ATOM     27  O   PHE A   2      -4.701   0.535  24.814  0.00  0.00    -0.273 OA
ENDROOT
BRANCH   9   6
ATOM      4  C   UNK A   1      -1.197   4.153  24.642  0.00  0.00    +0.183 A 
ATOM      5  C   UNK A   1      -1.729   3.625  24.987  0.00  0.00    +0.160 A 
ATOM      6  N   UNK A   1      -1.880   3.024  24.441  0.00  0.00    -0.229 N 
ATOM      7  N   UNK A   1      -1.441   3.182  23.760  0.00  0.00    -0.064 NA
ATOM      8  N   UNK A   1      -1.019   3.880  23.885  0.00  0.00    -0.124 NA
BRANCH   4   2
ATOM      1  N   UNK A   1      -1.346   5.527  25.007  0.00  0.00    -0.082 NA
ATOM      2  C   UNK A   1      -0.896   4.836  24.994  0.00  0.00    +0.305 C 
ATOM      3  O   UNK A   1      -0.144   4.828  25.333  0.00  0.00    -0.265 OA
ENDBRANCH   4   2
BRANCH   5  28
ATOM     28  C   UNK A   1      -2.052   3.686  25.743  0.00  0.00    +0.303 C 
ATOM     29  N   UNK A   1      -2.759   4.097  25.858  0.00  0.00    -0.082 NA
ATOM     30  O   UNK A   1      -1.670   3.336  26.384  0.00  0.00    -0.265 OA
ENDBRANCH   5  28
ENDBRANCH   9   6
BRANCH  18  19
ATOM     19  CB  PHE A   2      -4.074  -0.935  25.225  0.00  0.00    +0.057 C 
BRANCH  19  20
ATOM     20  CG  PHE A   2      -3.924  -1.647  24.837  0.00  0.00    -0.020 A 
ATOM     21  CD1 PHE A   2      -3.494  -2.241  25.214  0.00  0.00    -0.004 A 
ATOM     22  CE1 PHE A   2      -3.345  -2.953  24.826  0.00  0.00    -0.000 A 
ATOM     23  CZ  PHE A   2      -3.626  -3.072  24.060  0.00  0.00    -0.000 A 
ATOM     24  CE2 PHE A   2      -4.056  -2.478  23.681  0.00  0.00    -0.000 A 
ATOM     25  CD2 PHE A   2      -4.206  -1.766  24.069  0.00  0.00    -0.004 A 
ENDBRANCH  19  20
ENDBRANCH  18  19
TORSDOF 5
ENDMDL
MODEL 4
REMARK VINA RESULT:     -10.3      1.388      5.311
REMARK  Name = 
REMARK  5 active torsions:
REMARK  status: ('A' for Active; 'I' for Inactive)
REMARK    1  A    between atoms: C_2  and  C_4
REMARK    2  A    between atoms: C_5  and  C_28
REMARK    3  A    between atoms: N_6  and  C_9
REMARK    4  A    between atoms: CA_18  and  CB_19
REMARK    5  A    between atoms: CB_19  and  CG_20
REMARK                            x       y       z     vdW  Elec       q    Type
REMARK                         _______ _______ _______ _____ _____    ______ ____
ROOT
ATOM      9  C   UNK A   1      -1.354   1.999  24.915  0.00  0.00    +0.111 C 
ATOM     10  C   UNK A   1      -0.876   1.570  25.434  0.00  0.00    +0.046 C 
ATOM     11  C   UNK A   1      -1.094   0.808  25.661  0.00  0.00    +0.096 C 
ATOM     12  N   UNK A   1      -1.791   0.473  25.372  0.00  0.00    -0.271 N 
ATOM     13  C   UNK A   1      -2.270   0.902  24.853  0.00  0.00    +0.155 C 
ATOM     14  C   UNK A   1      -2.051   1.665  24.625  0.00  0.00    +0.054 C 
ATOM     15  C   UNK A   1      -2.965   0.568  24.563  0.00  0.00    +0.260 C 
ATOM     16  O   UNK A   1      -3.444   0.996  24.045  0.00  0.00    -0.272 OA
ATOM     17  N   PHE A   2      -3.183  -0.193  24.791  0.00  0.00    -0.196 NA
ATOM     18  CA  PHE A   2      -2.705  -0.622  25.310  0.00  0.00    +0.176 C 
ATOM     26  C   PHE A   2      -2.009  -0.288  25.599  0.00  0.00    +0.246 C 
ATOM     27  O   PHE A   2      -1.531  -0.717  26.118  0.00  0.00    -0.273 OA
ENDROOT
BRANCH   9   6
ATOM      4  C   UNK A   1      -0.985   4.087  24.672  0.00  0.00    +0.183 A 
ATOM      5  C   UNK A   1      -1.307   3.457  25.097  0.00  0.00    +0.160 A 
ATOM      6  N   UNK A   1      -1.136   2.761  24.687  0.00  0.00    -0.229 N 
ATOM      7  N   UNK A   1      -0.709   2.961  24.010  0.00  0.00    -0.064 NA
ATOM      8  N   UNK A   1      -0.616   3.781  24.001  0.00  0.00    -0.124 NA
BRANCH   4   2
ATOM      1  N   UNK A   1      -0.336   5.298  25.064  0.00  0.00    -0.082 NA
ATOM      2  C   UNK A   1      -1.026   4.884  24.882  0.00  0.00    +0.305 C 
ATOM      3  O   UNK A   1      -1.756   5.266  24.910  0.00  0.00    -0.265 OA
ENDBRANCH   4   2
BRANCH   5  28
ATOM     28  C   UNK A   1      -1.726   3.513  25.805  0.00  0.00    +0.303 C 
ATOM     29  N   UNK A   1      -2.533   3.685  25.796  0.00  0.00    -0.082 NA
ATOM     30  O   UNK A   1      -1.337   3.396  26.523  0.00  0.00    -0.265 OA
ENDBRANCH   5  28
ENDBRANCH   9   6
BRANCH  18  19
ATOM     19  CB  PHE A   2      -2.923  -1.385  25.537  0.00  0.00    +0.057 C 
BRANCH  19  20
ATOM     20  CG  PHE A   2      -3.171  -1.929  24.969  0.00  0.00    -0.020 A 
ATOM     21  CD1 PHE A   2      -3.965  -1.965  24.750  0.00  0.00    -0.004 A 
ATOM     22  CE1 PHE A   2      -4.212  -2.509  24.182  0.00  0.00    -0.000 A 
ATOM     23  CZ  PHE A   2      -3.666  -3.018  23.833  0.00  0.00    -0.000 A 
ATOM     24  CE2 PHE A   2      -2.870  -2.983  24.052  0.00  0.00    -0.000 A 
ATOM     25  CD2 PHE A   2      -2.623  -2.439  24.620  0.00  0.00    -0.004 A 
ENDBRANCH  19  20
ENDBRANCH  18  19
TORSDOF 5
ENDMDL
