MODEL 1
REMARK VINA RESULT:      -8.3      0.000      0.000
REMARK  Name = 
REMARK  6 active torsions:
REMARK  status: ('A' for Active; 'I' for Inactive)
REMARK    1  A    between atoms: C_2  and  N_3
REMARK    2  A    between atoms: N_6  and  C_7
REMARK    3  A    between atoms: C_7  and  C_8
REMARK    4  A    between atoms: C_12  and  C_13
REMARK    5  A    between atoms: C_13  and  C_14
REMARK    6  A    between atoms: C_26  and  C_27
REMARK                            x       y       z     vdW  Elec       q    Type
REMARK                         _______ _______ _______ _____ _____    ______ ____
ROOT
ATOM      8  C   UNL     1      -0.381   0.472  23.809  0.00  0.00    +0.043 C 
ATOM      9  C   UNL     1      -0.498   1.241  23.532  0.00  0.00    -0.033 C 
ATOM     10  C   UNL     1      -1.191   1.646  23.722  0.00  0.00    -0.048 C 
ATOM     11  C   UNL     1      -1.308   2.415  23.445  0.00  0.00    +0.026 C 
ATOM     12  C   UNL     1      -1.766   1.283  24.187  0.00  0.00    +0.027 C 
ATOM     25  C   UNL     1      -1.650   0.515  24.464  0.00  0.00    +0.005 C 
ATOM     26  C   UNL     1      -0.956   0.109  24.274  0.00  0.00    +0.006 C 
ENDROOT
BRANCH  26  27
ATOM     27  C   UNL     1      -0.840  -0.659  24.551  0.00  0.00    +0.000 C 
ATOM     28  C   UNL     1      -0.560  -0.783  25.318  0.00  0.00    +0.000 C 
ATOM     29  C   UNL     1      -1.003  -1.303  24.062  0.00  0.00    +0.000 C 
ENDBRANCH  26  27
BRANCH   8   7
ATOM      7  C   UNL     1       0.313   0.067  23.619  0.00  0.00    +0.121 C 
BRANCH   7   6
ATOM      3  N   UNL     1       2.336   0.587  22.984  0.00  0.00    -0.187 NA
ATOM      4  C   UNL     1       1.627   0.172  23.068  0.00  0.00    +0.339 C 
ATOM      5  O   UNL     1       1.523  -0.550  22.683  0.00  0.00    -0.249 OA
ATOM      6  N   UNL     1       1.022   0.481  23.536  0.00  0.00    -0.187 NA
BRANCH   3   2
ATOM      1  C   UNL     1       3.686   0.632  22.519  0.00  0.00    +0.025 C 
ATOM      2  C   UNL     1       2.941   0.278  22.516  0.00  0.00    +0.117 C 
ENDBRANCH   3   2
ENDBRANCH   7   6
ENDBRANCH   8   7
BRANCH  12  13
ATOM     13  C   UNL     1      -2.460   1.689  24.377  0.00  0.00    +0.089 C 
BRANCH  13  14
ATOM     14  C   UNL     1      -3.193   1.339  24.233  0.00  0.00    +0.226 C 
ATOM     15  O   UNL     1      -3.258   0.724  23.689  0.00  0.00    -0.275 OA
ATOM     16  N   UNL     1      -3.863   1.606  24.636  0.00  0.00    -0.276 N 
ATOM     17  C   UNL     1      -4.596   1.257  24.493  0.00  0.00    +0.115 C 
ATOM     18  C   UNL     1      -5.265   1.524  24.896  0.00  0.00    +0.115 C 
ATOM     19  N   UNL     1      -5.200   2.139  25.441  0.00  0.00    -0.276 N 
ATOM     20  C   UNL     1      -4.467   2.488  25.584  0.00  0.00    +0.115 C 
ATOM     21  C   UNL     1      -3.798   2.222  25.182  0.00  0.00    +0.115 C 
ATOM     22  C   UNL     1      -5.869   2.405  25.844  0.00  0.00    +0.226 C 
ATOM     23  C   UNL     1      -6.604   2.057  25.701  0.00  0.00    +0.095 C 
ATOM     24  O   UNL     1      -5.805   3.021  26.389  0.00  0.00    -0.275 OA
ENDBRANCH  13  14
ENDBRANCH  12  13
TORSDOF 6
ENDMDL
MODEL 2
REMARK VINA RESULT:      -7.8      1.088      6.199
REMARK  Name = 
REMARK  6 active torsions:
REMARK  status: ('A' for Active; 'I' for Inactive)
REMARK    1  A    between atoms: C_2  and  N_3
REMARK    2  A    between atoms: N_6  and  C_7
REMARK    3  A    between atoms: C_7  and  C_8
REMARK    4  A    between atoms: C_12  and  C_13
REMARK    5  A    between atoms: C_13  and  C_14
REMARK    6  A    between atoms: C_26  and  C_27
REMARK                            x       y       z     vdW  Elec       q    Type
REMARK                         _______ _______ _______ _____ _____    ______ ____
ROOT
ATOM      8  C   UNL     1      -3.045   1.272  24.263  0.00  0.00    +0.043 C 
ATOM      9  C   UNL     1      -2.839   0.611  24.713  0.00  0.00    -0.033 C 
ATOM     10  C   UNL     1      -2.084   0.287  24.646  0.00  0.00    -0.048 C 
ATOM     11  C   UNL     1      -1.878  -0.374  25.096  0.00  0.00    +0.026 C 
ATOM     12  C   UNL     1      -1.534   0.623  24.132  0.00  0.00    +0.027 C 
ATOM     25  C   UNL     1      -1.740   1.283  23.683  0.00  0.00    +0.005 C 
ATOM     26  C   UNL     1      -2.496   1.608  23.749  0.00  0.00    +0.006 C 
ENDROOT
BRANCH  26  27
ATOM     27  C   UNL     1      -2.701   2.268  23.299  0.00  0.00    +0.000 C 
ATOM     28  C   UNL     1      -2.648   3.024  23.629  0.00  0.00    +0.000 C 
ATOM     29  C   UNL     1      -2.959   2.175  22.521  0.00  0.00    +0.000 C 
ENDBRANCH  26  27
BRANCH   8   7
ATOM      7  C   UNL     1      -3.801   1.596  24.329  0.00  0.00    +0.121 C 
BRANCH   7   6
ATOM      3  N   UNL     1      -5.492   1.567  25.710  0.00  0.00    -0.187 NA
ATOM      4  C   UNL     1      -5.026   1.739  25.050  0.00  0.00    +0.339 C 
ATOM      5  O   UNL     1      -5.321   2.225  24.452  0.00  0.00    -0.249 OA
ATOM      6  N   UNL     1      -4.266   1.424  24.989  0.00  0.00    -0.187 NA
BRANCH   3   2
ATOM      1  C   UNL     1      -6.632   1.903  26.503  0.00  0.00    +0.025 C 
ATOM      2  C   UNL     1      -6.252   1.882  25.770  0.00  0.00    +0.117 C 
ENDBRANCH   3   2
ENDBRANCH   7   6
ENDBRANCH   8   7
BRANCH  12  13
ATOM     13  C   UNL     1      -0.778   0.298  24.066  0.00  0.00    +0.089 C 
BRANCH  13  14
ATOM     14  C   UNL     1      -0.114   0.774  24.182  0.00  0.00    +0.226 C 
ATOM     15  O   UNL     1      -0.135   1.383  24.736  0.00  0.00    -0.275 OA
ATOM     16  N   UNL     1       0.571   0.638  23.742  0.00  0.00    -0.276 N 
ATOM     17  C   UNL     1       1.235   1.114  23.858  0.00  0.00    +0.115 C 
ATOM     18  C   UNL     1       1.920   0.979  23.418  0.00  0.00    +0.115 C 
ATOM     19  N   UNL     1       1.941   0.369  22.863  0.00  0.00    -0.276 N 
ATOM     20  C   UNL     1       1.277  -0.107  22.748  0.00  0.00    +0.115 C 
ATOM     21  C   UNL     1       0.592   0.028  23.187  0.00  0.00    +0.115 C 
ATOM     22  C   UNL     1       2.626   0.234  22.424  0.00  0.00    +0.226 C 
ATOM     23  C   UNL     1       3.291   0.709  22.539  0.00  0.00    +0.095 C 
ATOM     24  O   UNL     1       2.647  -0.376  21.870  0.00  0.00    -0.275 OA
ENDBRANCH  13  14
ENDBRANCH  12  13
TORSDOF 6
ENDMDL
