MODEL 1
REMARK VINA RESULT:      -7.7      0.000      0.000
REMARK  Name = 
REMARK  5 active torsions:
REMARK  status: ('A' for Active; 'I' for Inactive)
REMARK    1  A    between atoms: S_2  and  N_5
REMARK    2  A    between atoms: N_5  and  C_6
REMARK    3  A    between atoms: C_6  and  C_7
REMARK    4  A    between atoms: C_10  and  N_11
REMARK    5  A    between atoms: N_11  and  C_12
REMARK                            x       y       z     vdW  Elec       q    Type
REMARK                         _______ _______ _______ _____ _____    ______ ____
ROOT
ATOM      7  C   UNL     1      -3.470   1.521  24.651  0.00  0.00    +0.166 C 
ATOM      8  O   UNL     1      -2.959   1.093  24.166  0.00  0.00    -0.350 OA
ATOM      9  C   UNL     1      -3.264   0.331  24.081  0.00  0.00    +0.162 C 
ATOM     10  C   UNL     1      -3.965   0.288  24.514  0.00  0.00    +0.135 C 
ATOM     18  C   UNL     1      -4.093   1.023  24.866  0.00  0.00    +0.199 C 
ATOM     19  O   UNL     1      -4.730   1.226  25.349  0.00  0.00    -0.219 OA
ENDROOT
BRANCH   7   6
ATOM      6  C   UNL     1      -3.377   2.308  24.880  0.00  0.00    +0.147 C 
BRANCH   6   5
ATOM      5  N   UNL     1      -2.657   2.690  24.758  0.00  0.00    -0.079 NA
BRANCH   5   2
ATOM      1  C   UNL     1      -2.420   4.212  25.349  0.00  0.00    +0.197 C 
ATOM      2  S   UNL     1      -2.538   3.451  25.053  0.00  0.00    +0.059 S 
ATOM      3  O   UNL     1      -2.060   3.144  25.651  0.00  0.00    -0.156 OA
ATOM      4  O   UNL     1      -3.016   3.758  24.455  0.00  0.00    -0.156 OA
ENDBRANCH   5   2
ENDBRANCH   6   5
ENDBRANCH   7   6
BRANCH  10  11
ATOM     11  N   UNL     1      -4.453  -0.374  24.583  0.00  0.00    -0.215 NA
BRANCH  11  12
ATOM     12  C   UNL     1      -4.126  -1.130  24.579  0.00  0.00    +0.078 C 
ATOM     13  C   UNL     1      -3.727  -1.411  25.245  0.00  0.00    +0.050 C 
ATOM     14  C   UNL     1      -3.399  -2.168  25.241  0.00  0.00    +0.144 C 
ATOM     15  O   UNL     1      -3.470  -2.644  24.571  0.00  0.00    -0.354 OA
ATOM     16  C   UNL     1      -3.869  -2.364  23.905  0.00  0.00    +0.144 C 
ATOM     17  C   UNL     1      -4.196  -1.607  23.909  0.00  0.00    +0.050 C 
ENDBRANCH  11  12
ENDBRANCH  10  11
TORSDOF 5
ENDMDL
MODEL 2
REMARK VINA RESULT:      -7.6      1.740      4.510
REMARK  Name = 
REMARK  5 active torsions:
REMARK  status: ('A' for Active; 'I' for Inactive)
REMARK    1  A    between atoms: S_2  and  N_5
REMARK    2  A    between atoms: N_5  and  C_6
REMARK    3  A    between atoms: C_6  and  C_7
REMARK    4  A    between atoms: C_10  and  N_11
REMARK    5  A    between atoms: N_11  and  C_12
REMARK                            x       y       z     vdW  Elec       q    Type
REMARK                         _______ _______ _______ _____ _____    ______ ____
ROOT
ATOM      7  C   UNL     1      -3.953   0.057  24.457  0.00  0.00    +0.166 C 
ATOM      8  O   UNL     1      -4.485   0.256  25.055  0.00  0.00    -0.350 OA
ATOM      9  C   UNL     1      -4.606   1.072  25.027  0.00  0.00    +0.162 C 
ATOM     10  C   UNL     1      -4.149   1.377  24.412  0.00  0.00    +0.135 C 
ATOM     18  C   UNL     1      -3.745   0.750  24.059  0.00  0.00    +0.199 C 
ATOM     19  O   UNL     1      -3.225   0.806  23.422  0.00  0.00    -0.219 OA
ENDROOT
BRANCH   7   6
ATOM      6  C   UNL     1      -3.676  -0.701  24.286  0.00  0.00    +0.147 C 
BRANCH   6   5
ATOM      5  N   UNL     1      -4.016  -1.356  24.654  0.00  0.00    -0.079 NA
BRANCH   5   2
ATOM      1  C   UNL     1      -3.438  -2.870  24.342  0.00  0.00    +0.197 C 
ATOM      2  S   UNL     1      -3.727  -2.113  24.498  0.00  0.00    +0.059 S 
ATOM      3  O   UNL     1      -4.262  -2.189  23.874  0.00  0.00    -0.156 OA
ATOM      4  O   UNL     1      -3.192  -2.037  25.121  0.00  0.00    -0.156 OA
ENDBRANCH   5   2
ENDBRANCH   6   5
ENDBRANCH   7   6
BRANCH  10  11
ATOM     11  N   UNL     1      -4.104   2.170  24.188  0.00  0.00    -0.215 NA
BRANCH  11  12
ATOM     12  C   UNL     1      -4.177   2.763  24.756  0.00  0.00    +0.078 C 
ATOM     13  C   UNL     1      -3.505   3.068  25.124  0.00  0.00    +0.050 C 
ATOM     14  C   UNL     1      -3.579   3.663  25.692  0.00  0.00    +0.144 C 
ATOM     15  O   UNL     1      -4.325   3.952  25.891  0.00  0.00    -0.354 OA
ATOM     16  C   UNL     1      -4.998   3.647  25.523  0.00  0.00    +0.144 C 
ATOM     17  C   UNL     1      -4.924   3.053  24.956  0.00  0.00    +0.050 C 
ENDBRANCH  11  12
ENDBRANCH  10  11
TORSDOF 5
ENDMDL
MODEL 3
REMARK VINA RESULT:      -7.3      2.741      3.828
REMARK  Name = 
REMARK  5 active torsions:
REMARK  status: ('A' for Active; 'I' for Inactive)
REMARK    1  A    between atoms: S_2  and  N_5
REMARK    2  A    between atoms: N_5  and  C_6
REMARK    3  A    between atoms: C_6  and  C_7
REMARK    4  A    between atoms: C_10  and  N_11
REMARK    5  A    between atoms: N_11  and  C_12
REMARK                            x       y       z     vdW  Elec       q    Type
REMARK                         _______ _______ _______ _____ _____    ______ ____
ROOT
ATOM      7  C   UNL     1      -2.084   1.576  24.055  0.00  0.00    +0.166 C 
ATOM      8  O   UNL     1      -2.200   1.741  24.854  0.00  0.00    -0.350 OA
ATOM      9  C   UNL     1      -2.916   2.144  24.930  0.00  0.00    +0.162 C 
ATOM     10  C   UNL     1      -3.243   2.227  24.177  0.00  0.00    +0.135 C 
ATOM     18  C   UNL     1      -2.729   1.876  23.636  0.00  0.00    +0.199 C 
ATOM     19  O   UNL     1      -2.839   1.833  22.820  0.00  0.00    -0.219 OA
ENDROOT
BRANCH   7   6
ATOM      6  C   UNL     1      -1.437   1.180  23.731  0.00  0.00    +0.147 C 
BRANCH   6   5
ATOM      5  N   UNL     1      -0.850   0.876  24.224  0.00  0.00    -0.079 NA
BRANCH   5   2
ATOM      1  C   UNL     1       0.413   0.033  23.579  0.00  0.00    +0.197 C 
ATOM      2  S   UNL     1      -0.218   0.454  23.902  0.00  0.00    +0.059 S 
ATOM      3  O   UNL     1       0.195   1.159  23.791  0.00  0.00    -0.156 OA
ATOM      4  O   UNL     1      -0.632  -0.251  24.013  0.00  0.00    -0.156 OA
ENDBRANCH   5   2
ENDBRANCH   6   5
ENDBRANCH   7   6
BRANCH  10  11
ATOM     11  N   UNL     1      -3.958   2.596  23.997  0.00  0.00    -0.215 NA
BRANCH  11  12
ATOM     12  C   UNL     1      -4.552   2.646  24.567  0.00  0.00    +0.078 C 
ATOM     13  C   UNL     1      -5.082   2.023  24.666  0.00  0.00    +0.050 C 
ATOM     14  C   UNL     1      -5.677   2.073  25.236  0.00  0.00    +0.144 C 
ATOM     15  O   UNL     1      -5.740   2.747  25.707  0.00  0.00    -0.354 OA
ATOM     16  C   UNL     1      -5.210   3.371  25.608  0.00  0.00    +0.144 C 
ATOM     17  C   UNL     1      -4.616   3.321  25.038  0.00  0.00    +0.050 C 
ENDBRANCH  11  12
ENDBRANCH  10  11
TORSDOF 5
ENDMDL
MODEL 4
REMARK VINA RESULT:      -6.8      2.471      4.894
REMARK  Name = 
REMARK  5 active torsions:
REMARK  status: ('A' for Active; 'I' for Inactive)
REMARK    1  A    between atoms: S_2  and  N_5
REMARK    2  A    between atoms: N_5  and  C_6
REMARK    3  A    between atoms: C_6  and  C_7
REMARK    4  A    between atoms: C_10  and  N_11
REMARK    5  A    between atoms: N_11  and  C_12
REMARK                            x       y       z     vdW  Elec       q    Type
REMARK                         _______ _______ _______ _____ _____    ______ ____
ROOT
ATOM      7  C   UNL     1      -2.034  -0.511  24.881  0.00  0.00    +0.166 C 
ATOM      8  O   UNL     1      -2.447   0.169  25.096  0.00  0.00    -0.350 OA
ATOM      9  C   UNL     1      -1.902   0.782  25.188  0.00  0.00    +0.162 C 
ATOM     10  C   UNL     1      -1.151   0.480  25.030  0.00  0.00    +0.135 C 
ATOM     18  C   UNL     1      -1.232  -0.319  24.840  0.00  0.00    +0.199 C 
ATOM     19  O   UNL     1      -0.620  -0.836  24.643  0.00  0.00    -0.219 OA
ENDROOT
BRANCH   7   6
ATOM      6  C   UNL     1      -2.363  -1.253  24.733  0.00  0.00    +0.147 C 
BRANCH   6   5
ATOM      5  N   UNL     1      -3.180  -1.356  24.773  0.00  0.00    -0.079 NA
BRANCH   5   2
ATOM      1  C   UNL     1      -3.849  -2.804  24.352  0.00  0.00    +0.197 C 
ATOM      2  S   UNL     1      -3.515  -2.080  24.562  0.00  0.00    +0.059 S 
ATOM      3  O   UNL     1      -3.706  -1.776  23.820  0.00  0.00    -0.156 OA
ATOM      4  O   UNL     1      -3.324  -2.384  25.305  0.00  0.00    -0.156 OA
ENDBRANCH   5   2
ENDBRANCH   6   5
ENDBRANCH   7   6
BRANCH  10  11
ATOM     11  N   UNL     1      -0.443   0.902  25.056  0.00  0.00    -0.215 NA
BRANCH  11  12
ATOM     12  C   UNL     1      -0.454   1.722  25.139  0.00  0.00    +0.078 C 
ATOM     13  C   UNL     1      -0.489   2.204  24.470  0.00  0.00    +0.050 C 
ATOM     14  C   UNL     1      -0.500   3.025  24.553  0.00  0.00    +0.144 C 
ATOM     15  O   UNL     1      -0.477   3.364  25.305  0.00  0.00    -0.354 OA
ATOM     16  C   UNL     1      -0.442   2.882  25.973  0.00  0.00    +0.144 C 
ATOM     17  C   UNL     1      -0.431   2.062  25.891  0.00  0.00    +0.050 C 
ENDBRANCH  11  12
ENDBRANCH  10  11
TORSDOF 5
ENDMDL
MODEL 5
REMARK VINA RESULT:      -6.7     16.549     18.432
REMARK  Name = 
REMARK  5 active torsions:
REMARK  status: ('A' for Active; 'I' for Inactive)
REMARK    1  A    between atoms: S_2  and  N_5
REMARK    2  A    between atoms: N_5  and  C_6
REMARK    3  A    between atoms: C_6  and  C_7
REMARK    4  A    between atoms: C_10  and  N_11
REMARK    5  A    between atoms: N_11  and  C_12
REMARK                            x       y       z     vdW  Elec       q    Type
REMARK                         _______ _______ _______ _____ _____    ______ ____
ROOT
ATOM      7  C   UNL     1      13.507   6.899  20.103  0.00  0.00    +0.166 C 
ATOM      8  O   UNL     1      13.522   7.054  20.913  0.00  0.00    -0.350 OA
ATOM      9  C   UNL     1      12.745   7.172  21.164  0.00  0.00    +0.162 C 
ATOM     10  C   UNL     1      12.250   7.091  20.509  0.00  0.00    +0.135 C 
ATOM     18  C   UNL     1      12.721   6.922  19.853  0.00  0.00    +0.199 C 
ATOM     19  O   UNL     1      12.453   6.798  19.083  0.00  0.00    -0.219 OA
ENDROOT
BRANCH   7   6
ATOM      6  C   UNL     1      14.163   6.747  19.626  0.00  0.00    +0.147 C 
BRANCH   6   5
ATOM      5  N   UNL     1      14.923   6.873  19.919  0.00  0.00    -0.079 NA
BRANCH   5   2
ATOM      1  C   UNL     1      16.237   6.496  18.995  0.00  0.00    +0.197 C 
ATOM      2  S   UNL     1      15.580   6.685  19.457  0.00  0.00    +0.059 S 
ATOM      3  O   UNL     1      15.568   7.442  19.131  0.00  0.00    -0.156 OA
ATOM      4  O   UNL     1      15.592   5.927  19.783  0.00  0.00    -0.156 OA
ENDBRANCH   5   2
ENDBRANCH   6   5
ENDBRANCH   7   6
BRANCH  10  11
ATOM     11  N   UNL     1      11.428   7.165  20.510  0.00  0.00    -0.215 NA
BRANCH  11  12
ATOM     12  C   UNL     1      11.055   7.618  21.089  0.00  0.00    +0.078 C 
ATOM     13  C   UNL     1      10.996   8.435  21.000  0.00  0.00    +0.050 C 
ATOM     14  C   UNL     1      10.623   8.888  21.581  0.00  0.00    +0.144 C 
ATOM     15  O   UNL     1      10.309   8.522  22.250  0.00  0.00    -0.354 OA
ATOM     16  C   UNL     1      10.368   7.705  22.339  0.00  0.00    +0.144 C 
ATOM     17  C   UNL     1      10.741   7.252  21.760  0.00  0.00    +0.050 C 
ENDBRANCH  11  12
ENDBRANCH  10  11
TORSDOF 5
ENDMDL
MODEL 6
REMARK VINA RESULT:      -6.5      1.919      2.286
REMARK  Name = 
REMARK  5 active torsions:
REMARK  status: ('A' for Active; 'I' for Inactive)
REMARK    1  A    between atoms: S_2  and  N_5
REMARK    2  A    between atoms: N_5  and  C_6
REMARK    3  A    between atoms: C_6  and  C_7
REMARK    4  A    between atoms: C_10  and  N_11
REMARK    5  A    between atoms: N_11  and  C_12
REMARK                            x       y       z     vdW  Elec       q    Type
REMARK                         _______ _______ _______ _____ _____    ______ ____
ROOT
ATOM      7  C   UNL     1      -3.581   1.431  24.833  0.00  0.00    +0.166 C 
ATOM      8  O   UNL     1      -3.750   0.730  25.232  0.00  0.00    -0.350 OA
ATOM      9  C   UNL     1      -3.167   0.179  25.039  0.00  0.00    +0.162 C 
ATOM     10  C   UNL     1      -2.637   0.540  24.519  0.00  0.00    +0.135 C 
ATOM     18  C   UNL     1      -2.893   1.314  24.391  0.00  0.00    +0.199 C 
ATOM     19  O   UNL     1      -2.527   1.872  23.908  0.00  0.00    -0.219 OA
ENDROOT
BRANCH   7   6
ATOM      6  C   UNL     1      -4.022   2.128  24.867  0.00  0.00    +0.147 C 
BRANCH   6   5
ATOM      5  N   UNL     1      -4.638   2.199  25.410  0.00  0.00    -0.079 NA
BRANCH   5   2
ATOM      1  C   UNL     1      -5.509   3.598  25.491  0.00  0.00    +0.197 C 
ATOM      2  S   UNL     1      -5.074   2.898  25.451  0.00  0.00    +0.059 S 
ATOM      3  O   UNL     1      -4.494   3.231  25.934  0.00  0.00    -0.156 OA
ATOM      4  O   UNL     1      -5.653   2.565  24.967  0.00  0.00    -0.156 OA
ENDBRANCH   5   2
ENDBRANCH   6   5
ENDBRANCH   7   6
BRANCH  10  11
ATOM     11  N   UNL     1      -1.970   0.189  24.186  0.00  0.00    -0.215 NA
BRANCH  11  12
ATOM     12  C   UNL     1      -1.639  -0.482  24.533  0.00  0.00    +0.078 C 
ATOM     13  C   UNL     1      -1.026  -0.405  25.079  0.00  0.00    +0.050 C 
ATOM     14  C   UNL     1      -0.695  -1.076  25.427  0.00  0.00    +0.144 C 
ATOM     15  O   UNL     1      -0.978  -1.825  25.227  0.00  0.00    -0.354 OA
ATOM     16  C   UNL     1      -1.591  -1.902  24.681  0.00  0.00    +0.144 C 
ATOM     17  C   UNL     1      -1.922  -1.231  24.334  0.00  0.00    +0.050 C 
ENDBRANCH  11  12
ENDBRANCH  10  11
TORSDOF 5
ENDMDL
MODEL 7
REMARK VINA RESULT:      -6.4     17.644     19.422
REMARK  Name = 
REMARK  5 active torsions:
REMARK  status: ('A' for Active; 'I' for Inactive)
REMARK    1  A    between atoms: S_2  and  N_5
REMARK    2  A    between atoms: N_5  and  C_6
REMARK    3  A    between atoms: C_6  and  C_7
REMARK    4  A    between atoms: C_10  and  N_11
REMARK    5  A    between atoms: N_11  and  C_12
REMARK                            x       y       z     vdW  Elec       q    Type
REMARK                         _______ _______ _______ _____ _____    ______ ____
ROOT
ATOM      7  C   UNL     1      13.274   6.912  20.405  0.00  0.00    +0.166 C 
ATOM      8  O   UNL     1      13.816   6.485  20.856  0.00  0.00    -0.350 OA
ATOM      9  C   UNL     1      14.546   6.514  20.472  0.00  0.00    +0.162 C 
ATOM     10  C   UNL     1      14.454   6.959  19.783  0.00  0.00    +0.135 C 
ATOM     18  C   UNL     1      13.668   7.205  19.742  0.00  0.00    +0.199 C 
ATOM     19  O   UNL     1      13.334   7.664  19.143  0.00  0.00    -0.219 OA
ENDROOT
BRANCH   7   6
ATOM      6  C   UNL     1      12.477   7.026  20.586  0.00  0.00    +0.147 C 
BRANCH   6   5
ATOM      5  N   UNL     1      12.161   6.708  21.277  0.00  0.00    -0.079 NA
BRANCH   5   2
ATOM      1  C   UNL     1      10.597   7.028  21.693  0.00  0.00    +0.197 C 
ATOM      2  S   UNL     1      11.379   6.868  21.485  0.00  0.00    +0.059 S 
ATOM      3  O   UNL     1      11.127   6.225  21.034  0.00  0.00    -0.156 OA
ATOM      4  O   UNL     1      11.630   7.511  21.936  0.00  0.00    -0.156 OA
ENDBRANCH   5   2
ENDBRANCH   6   5
ENDBRANCH   7   6
BRANCH  10  11
ATOM     11  N   UNL     1      15.045   7.128  19.233  0.00  0.00    -0.215 NA
BRANCH  11  12
ATOM     12  C   UNL     1      15.831   6.948  19.403  0.00  0.00    +0.078 C 
ATOM     13  C   UNL     1      16.272   7.446  19.891  0.00  0.00    +0.050 C 
ATOM     14  C   UNL     1      17.060   7.266  20.061  0.00  0.00    +0.144 C 
ATOM     15  O   UNL     1      17.405   6.588  19.742  0.00  0.00    -0.354 OA
ATOM     16  C   UNL     1      16.964   6.090  19.254  0.00  0.00    +0.144 C 
ATOM     17  C   UNL     1      16.178   6.270  19.085  0.00  0.00    +0.050 C 
ENDBRANCH  11  12
ENDBRANCH  10  11
TORSDOF 5
ENDMDL
MODEL 8
REMARK VINA RESULT:      -4.7     16.461     18.257
REMARK  Name = 
REMARK  5 active torsions:
REMARK  status: ('A' for Active; 'I' for Inactive)
REMARK    1  A    between atoms: S_2  and  N_5
REMARK    2  A    between atoms: N_5  and  C_6
REMARK    3  A    between atoms: C_6  and  C_7
REMARK    4  A    between atoms: C_10  and  N_11
REMARK    5  A    between atoms: N_11  and  C_12
REMARK                            x       y       z     vdW  Elec       q    Type
REMARK                         _______ _______ _______ _____ _____    ______ ____
ROOT
ATOM      7  C   UNL     1      12.266   8.389  18.684  0.00  0.00    +0.166 C 
ATOM      8  O   UNL     1      12.700   8.389  19.385  0.00  0.00    -0.350 OA
ATOM      9  C   UNL     1      12.167   8.395  20.015  0.00  0.00    +0.162 C 
ATOM     10  C   UNL     1      11.403   8.398  19.703  0.00  0.00    +0.135 C 
ATOM     18  C   UNL     1      11.464   8.395  18.880  0.00  0.00    +0.199 C 
ATOM     19  O   UNL     1      10.835   8.396  18.347  0.00  0.00    -0.219 OA
ENDROOT
BRANCH   7   6
ATOM      6  C   UNL     1      12.578   8.384  17.920  0.00  0.00    +0.147 C 
BRANCH   6   5
ATOM      5  N   UNL     1      13.386   8.264  17.806  0.00  0.00    -0.079 NA
BRANCH   5   2
ATOM      1  C   UNL     1      14.023   8.338  16.286  0.00  0.00    +0.197 C 
ATOM      2  S   UNL     1      13.704   8.301  17.046  0.00  0.00    +0.059 S 
ATOM      3  O   UNL     1      13.899   9.094  17.166  0.00  0.00    -0.156 OA
ATOM      4  O   UNL     1      13.510   7.508  16.926  0.00  0.00    -0.156 OA
ENDBRANCH   5   2
ENDBRANCH   6   5
ENDBRANCH   7   6
BRANCH  10  11
ATOM     11  N   UNL     1      10.702   8.404  20.137  0.00  0.00    -0.215 NA
BRANCH  11  12
ATOM     12  C   UNL     1      10.721   8.290  20.953  0.00  0.00    +0.078 C 
ATOM     13  C   UNL     1      10.697   7.527  21.264  0.00  0.00    +0.050 C 
ATOM     14  C   UNL     1      10.716   7.412  22.081  0.00  0.00    +0.144 C 
ATOM     15  O   UNL     1      10.758   8.063  22.587  0.00  0.00    -0.354 OA
ATOM     16  C   UNL     1      10.781   8.826  22.277  0.00  0.00    +0.144 C 
ATOM     17  C   UNL     1      10.763   8.940  21.460  0.00  0.00    +0.050 C 
ENDBRANCH  11  12
ENDBRANCH  10  11
TORSDOF 5
ENDMDL
