MODEL 1
REMARK VINA RESULT:     -13.5      0.000      0.000
REMARK  Name = 
REMARK  4 active torsions:
REMARK  status: ('A' for Active; 'I' for Inactive)
REMARK    1  A    between atoms: C_2  and  C_5
REMARK    2  A    between atoms: C_8  and  C_9
REMARK    3  A    between atoms: C_9  and  N_10
REMARK    4  A    between atoms: C_13  and  C_15
REMARK                            x       y       z     vdW  Elec       q    Type
REMARK                         _______ _______ _______ _____ _____    ______ ____
ROOT
ATOM     10  N   UNL     1      -4.536   2.120  24.678  0.00  0.00    -0.269 NA
ATOM     11  C   UNL     1      -5.102   1.918  25.243  0.00  0.00    +0.073 C 
ATOM     12  C   UNL     1      -5.072   1.101  25.355  0.00  0.00    +0.026 C 
ATOM     13  C   UNL     1      -4.487   0.798  24.858  0.00  0.00    +0.076 C 
ATOM     14  C   UNL     1      -4.156   1.427  24.440  0.00  0.00    +0.080 C 
ENDROOT
BRANCH  13  15
ATOM     15  C   UNL     1      -4.271   0.004  24.791  0.00  0.00    +0.140 A 
ATOM     16  N   UNL     1      -3.831  -0.427  25.340  0.00  0.00    -0.229 NA
ATOM     17  C   UNL     1      -3.746  -1.194  25.051  0.00  0.00    +0.100 A 
ATOM     18  C   UNL     1      -4.133  -1.239  24.324  0.00  0.00    +0.100 A 
ATOM     19  N   UNL     1      -4.457  -0.498  24.163  0.00  0.00    -0.229 NA
ATOM     20  C   UNL     1      -4.139  -1.948  23.903  0.00  0.00    +0.021 A 
ATOM     21  C   UNL     1      -3.759  -2.613  24.209  0.00  0.00    +0.002 A 
ATOM     22  C   UNL     1      -3.372  -2.569  24.936  0.00  0.00    +0.002 A 
ATOM     23  C   UNL     1      -3.365  -1.860  25.358  0.00  0.00    +0.021 A 
ENDBRANCH  13  15
BRANCH  10   9
ATOM      9  C   UNL     1      -4.378   2.880  24.400  0.00  0.00    +0.099 C 
BRANCH   9   8
ATOM      5  C   UNL     1      -2.319   4.054  25.109  0.00  0.00    +0.071 A 
ATOM      6  C   UNL     1      -2.323   3.616  24.410  0.00  0.00    +0.004 A 
ATOM      7  C   UNL     1      -3.010   3.224  24.173  0.00  0.00    -0.003 A 
ATOM      8  C   UNL     1      -3.692   3.271  24.636  0.00  0.00    -0.006 A 
ATOM     24  C   UNL     1      -3.687   3.710  25.335  0.00  0.00    -0.003 A 
ATOM     25  C   UNL     1      -3.000   4.101  25.571  0.00  0.00    +0.004 A 
BRANCH   5   2
ATOM      1  F   UNL     1      -0.944   4.837  25.581  0.00  0.00    -0.166 F 
ATOM      2  C   UNL     1      -1.631   4.446  25.345  0.00  0.00    +0.419 C 
ATOM      3  F   UNL     1      -1.370   3.760  25.723  0.00  0.00    -0.166 F 
ATOM      4  F   UNL     1      -1.892   5.131  24.968  0.00  0.00    -0.166 F 
ENDBRANCH   5   2
ENDBRANCH   9   8
ENDBRANCH  10   9
TORSDOF 4
ENDMDL
MODEL 2
REMARK VINA RESULT:     -13.4      2.726      5.386
REMARK  Name = 
REMARK  4 active torsions:
REMARK  status: ('A' for Active; 'I' for Inactive)
REMARK    1  A    between atoms: C_2  and  C_5
REMARK    2  A    between atoms: C_8  and  C_9
REMARK    3  A    between atoms: C_9  and  N_10
REMARK    4  A    between atoms: C_13  and  C_15
REMARK                            x       y       z     vdW  Elec       q    Type
REMARK                         _______ _______ _______ _____ _____    ______ ____
ROOT
ATOM     10  N   UNL     1      -3.952   1.056  24.615  0.00  0.00    -0.269 NA
ATOM     11  C   UNL     1      -3.893   1.209  23.806  0.00  0.00    +0.073 C 
ATOM     12  C   UNL     1      -3.402   1.864  23.706  0.00  0.00    +0.026 C 
ATOM     13  C   UNL     1      -3.158   2.117  24.453  0.00  0.00    +0.076 C 
ATOM     14  C   UNL     1      -3.498   1.617  25.014  0.00  0.00    +0.080 C 
ENDROOT
BRANCH  13  15
ATOM     15  C   UNL     1      -2.660   2.756  24.610  0.00  0.00    +0.140 A 
ATOM     16  N   UNL     1      -2.896   3.497  24.885  0.00  0.00    -0.229 NA
ATOM     17  C   UNL     1      -2.221   3.965  24.964  0.00  0.00    +0.100 A 
ATOM     18  C   UNL     1      -1.569   3.514  24.737  0.00  0.00    +0.100 A 
ATOM     19  N   UNL     1      -1.840   2.766  24.518  0.00  0.00    -0.229 NA
ATOM     20  C   UNL     1      -0.813   3.842  24.760  0.00  0.00    +0.021 A 
ATOM     21  C   UNL     1      -0.708   4.621  25.009  0.00  0.00    +0.002 A 
ATOM     22  C   UNL     1      -1.360   5.073  25.236  0.00  0.00    +0.002 A 
ATOM     23  C   UNL     1      -2.117   4.745  25.214  0.00  0.00    +0.021 A 
ENDBRANCH  13  15
BRANCH  10   9
ATOM      9  C   UNL     1      -4.389   0.450  24.963  0.00  0.00    +0.099 C 
BRANCH   9   8
ATOM      5  C   UNL     1      -3.596  -1.890  24.815  0.00  0.00    +0.071 A 
ATOM      6  C   UNL     1      -4.052  -1.570  24.207  0.00  0.00    +0.004 A 
ATOM      7  C   UNL     1      -4.317  -0.790  24.256  0.00  0.00    -0.003 A 
ATOM      8  C   UNL     1      -4.125  -0.330  24.914  0.00  0.00    -0.006 A 
ATOM     24  C   UNL     1      -3.669  -0.651  25.522  0.00  0.00    -0.003 A 
ATOM     25  C   UNL     1      -3.404  -1.431  25.472  0.00  0.00    +0.004 A 
BRANCH   5   2
ATOM      1  F   UNL     1      -3.068  -3.451  24.715  0.00  0.00    -0.166 F 
ATOM      2  C   UNL     1      -3.332  -2.670  24.765  0.00  0.00    +0.419 C 
ATOM      3  F   UNL     1      -3.718  -2.846  25.473  0.00  0.00    -0.166 F 
ATOM      4  F   UNL     1      -2.946  -2.495  24.058  0.00  0.00    -0.166 F 
ENDBRANCH   5   2
ENDBRANCH   9   8
ENDBRANCH  10   9
TORSDOF 4
ENDMDL
MODEL 3
REMARK VINA RESULT:     -12.8      1.846      2.535
REMARK  Name = 
REMARK  4 active torsions:
REMARK  status: ('A' for Active; 'I' for Inactive)
REMARK    1  A    between atoms: C_2  and  C_5
REMARK    2  A    between atoms: C_8  and  C_9
REMARK    3  A    between atoms: C_9  and  N_10
REMARK    4  A    between atoms: C_13  and  C_15
REMARK                            x       y       z     vdW  Elec       q    Type
REMARK                         _______ _______ _______ _____ _____    ______ ____
ROOT
ATOM     10  N   UNL     1      -0.772   1.314  25.253  0.00  0.00    -0.269 NA
ATOM     11  C   UNL     1      -0.390   1.060  24.567  0.00  0.00    +0.073 C 
ATOM     12  C   UNL     1      -0.811   0.419  24.263  0.00  0.00    +0.026 C 
ATOM     13  C   UNL     1      -1.454   0.276  24.762  0.00  0.00    +0.076 C 
ATOM     14  C   UNL     1      -1.429   0.830  25.373  0.00  0.00    +0.080 C 
ENDROOT
BRANCH  13  15
ATOM     15  C   UNL     1      -2.021  -0.315  24.666  0.00  0.00    +0.140 A 
ATOM     16  N   UNL     1      -2.805  -0.203  24.439  0.00  0.00    -0.229 NA
ATOM     17  C   UNL     1      -3.171  -0.941  24.413  0.00  0.00    +0.100 A 
ATOM     18  C   UNL     1      -2.613  -1.510  24.623  0.00  0.00    +0.100 A 
ATOM     19  N   UNL     1      -1.901  -1.124  24.779  0.00  0.00    -0.229 NA
ATOM     20  C   UNL     1      -2.825  -2.307  24.644  0.00  0.00    +0.021 A 
ATOM     21  C   UNL     1      -3.595  -2.535  24.456  0.00  0.00    +0.002 A 
ATOM     22  C   UNL     1      -4.153  -1.966  24.246  0.00  0.00    +0.002 A 
ATOM     23  C   UNL     1      -3.942  -1.169  24.224  0.00  0.00    +0.021 A 
ENDBRANCH  13  15
BRANCH  10   9
ATOM      9  C   UNL     1      -0.538   1.942  25.734  0.00  0.00    +0.099 C 
BRANCH   9   8
ATOM      5  C   UNL     1      -1.246   4.250  25.189  0.00  0.00    +0.071 A 
ATOM      6  C   UNL     1      -1.664   3.811  25.749  0.00  0.00    +0.004 A 
ATOM      7  C   UNL     1      -1.428   3.042  25.930  0.00  0.00    -0.003 A 
ATOM      8  C   UNL     1      -0.773   2.711  25.552  0.00  0.00    -0.006 A 
ATOM     24  C   UNL     1      -0.355   3.150  24.993  0.00  0.00    -0.003 A 
ATOM     25  C   UNL     1      -0.591   3.920  24.812  0.00  0.00    +0.004 A 
BRANCH   5   2
ATOM      1  F   UNL     1      -1.719   5.789  24.827  0.00  0.00    -0.166 F 
ATOM      2  C   UNL     1      -1.482   5.020  25.008  0.00  0.00    +0.419 C 
ATOM      3  F   UNL     1      -2.272   4.779  25.017  0.00  0.00    -0.166 F 
ATOM      4  F   UNL     1      -0.694   5.260  24.999  0.00  0.00    -0.166 F 
ENDBRANCH   5   2
ENDBRANCH   9   8
ENDBRANCH  10   9
TORSDOF 4
ENDMDL
