MODEL 1
REMARK VINA RESULT:      -9.3      0.000      0.000
REMARK  Name = 
REMARK  10 active torsions:
REMARK  status: ('A' for Active; 'I' for Inactive)
REMARK    1  A    between atoms: C_2  and  O_5
REMARK    2  A    between atoms: O_5  and  C_6
REMARK    3  A    between atoms: C_6  and  C_8
REMARK    4  A    between atoms: C_8  and  C_9
REMARK    5  A    between atoms: C_14  and  C_15
REMARK    6  A    between atoms: C_15  and  C_16
REMARK    7  A    between atoms: C_16  and  N_17
REMARK    8  A    between atoms: N_31  and  C_32
REMARK    9  A    between atoms: C_35  and  O_36
REMARK   10  A    between atoms: O_36  and  C_37
REMARK                            x       y       z     vdW  Elec       q    Type
REMARK                         _______ _______ _______ _____ _____    ______ ____
ROOT
ATOM      9  C   UNL     1      -1.584  -0.864  24.633  0.00  0.00    +0.014 C 
ATOM     10  C   UNL     1      -0.966  -1.361  24.404  0.00  0.00    +0.022 C 
ATOM     11  C   UNL     1      -0.279  -1.042  24.079  0.00  0.00    +0.095 C 
ATOM     12  N   UNL     1      -0.208  -0.226  23.983  0.00  0.00    -0.263 N 
ATOM     13  C   UNL     1      -0.825   0.271  24.212  0.00  0.00    +0.095 C 
ATOM     14  C   UNL     1      -1.512  -0.048  24.537  0.00  0.00    +0.022 C 
ATOM     29  C   UNL     1       0.481   0.093  23.658  0.00  0.00    +0.327 C 
ATOM     30  O   UNL     1       0.551   0.908  23.562  0.00  0.00    -0.250 OA
ATOM     31  N   UNL     1       1.097  -0.405  23.430  0.00  0.00    -0.162 NA
ENDROOT
BRANCH  31  32
ATOM     32  C   UNL     1       1.786  -0.085  23.104  0.00  0.00    +0.075 A 
ATOM     33  C   UNL     1       2.001  -0.272  22.330  0.00  0.00    +0.020 A 
ATOM     34  C   UNL     1       2.689   0.046  22.005  0.00  0.00    +0.039 A 
ATOM     35  C   UNL     1       3.162   0.552  22.454  0.00  0.00    +0.147 A 
ATOM     41  C   UNL     1       2.946   0.739  23.228  0.00  0.00    +0.039 A 
ATOM     42  C   UNL     1       2.258   0.420  23.553  0.00  0.00    +0.020 A 
BRANCH  35  36
ATOM     36  O   UNL     1       3.849   0.871  22.130  0.00  0.00    -0.404 OA
BRANCH  36  37
ATOM     37  C   UNL     1       4.553   0.859  22.561  0.00  0.00    +0.575 C 
ATOM     38  F   UNL     1       5.257   0.848  22.992  0.00  0.00    -0.133 F 
ATOM     39  F   UNL     1       4.741   0.125  22.235  0.00  0.00    -0.133 F 
ATOM     40  F   UNL     1       4.365   1.593  22.887  0.00  0.00    -0.133 F 
ENDBRANCH  36  37
ENDBRANCH  35  36
ENDBRANCH  31  32
BRANCH   9   8
ATOM      8  C   UNL     1      -2.272  -1.183  24.958  0.00  0.00    +0.110 C 
BRANCH   8   6
ATOM      6  C   UNL     1      -2.625  -1.841  24.610  0.00  0.00    +0.317 C 
ATOM      7  O   UNL     1      -2.157  -2.472  24.351  0.00  0.00    -0.250 OA
BRANCH   6   5
ATOM      5  O   UNL     1      -3.444  -1.872  24.520  0.00  0.00    -0.456 OA
BRANCH   5   2
ATOM      1  C   UNL     1      -4.181  -3.297  24.132  0.00  0.00    +0.044 C 
ATOM      2  C   UNL     1      -3.812  -2.584  24.327  0.00  0.00    +0.136 C 
ATOM      3  C   UNL     1      -3.529  -2.921  25.024  0.00  0.00    +0.044 C 
ATOM      4  C   UNL     1      -4.096  -2.248  23.629  0.00  0.00    +0.044 C 
ENDBRANCH   5   2
ENDBRANCH   6   5
ENDBRANCH   8   6
ENDBRANCH   9   8
BRANCH  14  15
ATOM     15  C   UNL     1      -2.130   0.450  24.766  0.00  0.00    +0.019 C 
BRANCH  15  16
ATOM     16  C   UNL     1      -2.212   1.193  24.416  0.00  0.00    +0.072 C 
BRANCH  16  17
ATOM     17  N   UNL     1      -2.839   1.683  24.634  0.00  0.00    -0.270 NA
ATOM     18  C   UNL     1      -2.698   2.472  24.828  0.00  0.00    +0.094 C 
ATOM     19  C   UNL     1      -3.324   2.962  25.046  0.00  0.00    +0.109 C 
ATOM     20  N   UNL     1      -4.094   2.662  25.071  0.00  0.00    -0.290 N 
ATOM     21  C   UNL     1      -4.235   1.873  24.877  0.00  0.00    +0.109 C 
ATOM     22  C   UNL     1      -3.608   1.384  24.659  0.00  0.00    +0.094 C 
ATOM     23  C   UNL     1      -4.720   3.153  25.289  0.00  0.00    +0.132 A 
ATOM     24  N   UNL     1      -4.579   3.941  25.483  0.00  0.00    -0.229 NA
ATOM     25  C   UNL     1      -5.206   4.432  25.701  0.00  0.00    +0.100 A 
ATOM     26  C   UNL     1      -5.974   4.132  25.725  0.00  0.00    +0.021 A 
ATOM     27  C   UNL     1      -6.116   3.342  25.531  0.00  0.00    +0.004 A 
ATOM     28  C   UNL     1      -5.489   2.853  25.313  0.00  0.00    +0.034 A 
ENDBRANCH  16  17
ENDBRANCH  15  16
ENDBRANCH  14  15
TORSDOF 10
ENDMDL
MODEL 2
REMARK VINA RESULT:      -7.6      3.402      7.291
REMARK  Name = 
REMARK  10 active torsions:
REMARK  status: ('A' for Active; 'I' for Inactive)
REMARK    1  A    between atoms: C_2  and  O_5
REMARK    2  A    between atoms: O_5  and  C_6
REMARK    3  A    between atoms: C_6  and  C_8
REMARK    4  A    between atoms: C_8  and  C_9
REMARK    5  A    between atoms: C_14  and  C_15
REMARK    6  A    between atoms: C_15  and  C_16
REMARK    7  A    between atoms: C_16  and  N_17
REMARK    8  A    between atoms: N_31  and  C_32
REMARK    9  A    between atoms: C_35  and  O_36
REMARK   10  A    between atoms: O_36  and  C_37
REMARK                            x       y       z     vdW  Elec       q    Type
REMARK                         _______ _______ _______ _____ _____    ______ ____
ROOT
ATOM      9  C   UNL     1      -0.791   2.214  24.540  0.00  0.00    +0.014 C 
ATOM     10  C   UNL     1      -1.566   2.167  24.818  0.00  0.00    +0.022 C 
ATOM     11  C   UNL     1      -1.979   1.456  24.772  0.00  0.00    +0.095 C 
ATOM     12  N   UNL     1      -1.618   0.789  24.447  0.00  0.00    -0.263 N 
ATOM     13  C   UNL     1      -0.843   0.836  24.169  0.00  0.00    +0.095 C 
ATOM     14  C   UNL     1      -0.430   1.547  24.215  0.00  0.00    +0.022 C 
ATOM     29  C   UNL     1      -2.031   0.077  24.400  0.00  0.00    +0.327 C 
ATOM     30  O   UNL     1      -1.670  -0.589  24.076  0.00  0.00    -0.250 OA
ATOM     31  N   UNL     1      -2.806   0.031  24.679  0.00  0.00    -0.162 NA
ENDROOT
BRANCH  31  32
ATOM     32  C   UNL     1      -3.220  -0.682  24.632  0.00  0.00    +0.075 A 
ATOM     33  C   UNL     1      -3.118  -1.257  25.216  0.00  0.00    +0.020 A 
ATOM     34  C   UNL     1      -3.531  -1.969  25.169  0.00  0.00    +0.039 A 
ATOM     35  C   UNL     1      -4.047  -2.107  24.539  0.00  0.00    +0.147 A 
ATOM     41  C   UNL     1      -4.148  -1.532  23.957  0.00  0.00    +0.039 A 
ATOM     42  C   UNL     1      -3.735  -0.820  24.003  0.00  0.00    +0.020 A 
BRANCH  35  36
ATOM     36  O   UNL     1      -4.460  -2.819  24.493  0.00  0.00    -0.404 OA
BRANCH  36  37
ATOM     37  C   UNL     1      -4.163  -3.440  24.037  0.00  0.00    +0.575 C 
ATOM     38  F   UNL     1      -3.866  -4.060  23.581  0.00  0.00    -0.133 F 
ATOM     39  F   UNL     1      -3.705  -3.691  24.677  0.00  0.00    -0.133 F 
ATOM     40  F   UNL     1      -4.620  -3.188  23.398  0.00  0.00    -0.133 F 
ENDBRANCH  36  37
ENDBRANCH  35  36
ENDBRANCH  31  32
BRANCH   9   8
ATOM      8  C   UNL     1      -0.378   2.926  24.586  0.00  0.00    +0.110 C 
BRANCH   8   6
ATOM      6  C   UNL     1      -0.702   3.565  24.993  0.00  0.00    +0.317 C 
ATOM      7  O   UNL     1      -0.620   3.618  25.813  0.00  0.00    -0.250 OA
BRANCH   6   5
ATOM      5  O   UNL     1      -1.110   4.153  24.581  0.00  0.00    -0.456 OA
BRANCH   5   2
ATOM      1  C   UNL     1      -0.994   5.728  25.060  0.00  0.00    +0.044 C 
ATOM      2  C   UNL     1      -1.052   4.940  24.820  0.00  0.00    +0.136 C 
ATOM      3  C   UNL     1      -0.328   5.006  24.430  0.00  0.00    +0.044 C 
ATOM      4  C   UNL     1      -1.776   4.875  25.211  0.00  0.00    +0.044 C 
ENDBRANCH   5   2
ENDBRANCH   6   5
ENDBRANCH   8   6
ENDBRANCH   9   8
BRANCH  14  15
ATOM     15  C   UNL     1       0.346   1.593  23.936  0.00  0.00    +0.019 C 
BRANCH  15  16
ATOM     16  C   UNL     1       0.610   1.064  23.361  0.00  0.00    +0.072 C 
BRANCH  16  17
ATOM     17  N   UNL     1       1.408   0.858  23.327  0.00  0.00    -0.270 NA
ATOM     18  C   UNL     1       1.631   0.064  23.345  0.00  0.00    +0.094 C 
ATOM     19  C   UNL     1       2.429  -0.141  23.311  0.00  0.00    +0.109 C 
ATOM     20  N   UNL     1       3.005   0.448  23.257  0.00  0.00    -0.290 N 
ATOM     21  C   UNL     1       2.782   1.241  23.238  0.00  0.00    +0.109 C 
ATOM     22  C   UNL     1       1.985   1.447  23.273  0.00  0.00    +0.094 C 
ATOM     23  C   UNL     1       3.803   0.242  23.223  0.00  0.00    +0.132 A 
ATOM     24  N   UNL     1       4.026  -0.552  23.241  0.00  0.00    -0.229 NA
ATOM     25  C   UNL     1       4.824  -0.758  23.207  0.00  0.00    +0.100 A 
ATOM     26  C   UNL     1       5.400  -0.169  23.153  0.00  0.00    +0.021 A 
ATOM     27  C   UNL     1       5.177   0.625  23.134  0.00  0.00    +0.004 A 
ATOM     28  C   UNL     1       4.379   0.830  23.169  0.00  0.00    +0.034 A 
ENDBRANCH  16  17
ENDBRANCH  15  16
ENDBRANCH  14  15
TORSDOF 10
ENDMDL
MODEL 3
REMARK VINA RESULT:      -7.1      2.152      4.412
REMARK  Name = 
REMARK  10 active torsions:
REMARK  status: ('A' for Active; 'I' for Inactive)
REMARK    1  A    between atoms: C_2  and  O_5
REMARK    2  A    between atoms: O_5  and  C_6
REMARK    3  A    between atoms: C_6  and  C_8
REMARK    4  A    between atoms: C_8  and  C_9
REMARK    5  A    between atoms: C_14  and  C_15
REMARK    6  A    between atoms: C_15  and  C_16
REMARK    7  A    between atoms: C_16  and  N_17
REMARK    8  A    between atoms: N_31  and  C_32
REMARK    9  A    between atoms: C_35  and  O_36
REMARK   10  A    between atoms: O_36  and  C_37
REMARK                            x       y       z     vdW  Elec       q    Type
REMARK                         _______ _______ _______ _____ _____    ______ ____
ROOT
ATOM      9  C   UNL     1      -0.472   2.403  24.347  0.00  0.00    +0.014 C 
ATOM     10  C   UNL     1       0.231   2.796  24.171  0.00  0.00    +0.022 C 
ATOM     11  C   UNL     1       0.894   2.368  23.934  0.00  0.00    +0.095 C 
ATOM     12  N   UNL     1       0.856   1.546  23.874  0.00  0.00    -0.263 N 
ATOM     13  C   UNL     1       0.152   1.154  24.050  0.00  0.00    +0.095 C 
ATOM     14  C   UNL     1      -0.511   1.581  24.287  0.00  0.00    +0.022 C 
ATOM     29  C   UNL     1       1.520   1.118  23.637  0.00  0.00    +0.327 C 
ATOM     30  O   UNL     1       1.481   0.297  23.576  0.00  0.00    -0.250 OA
ATOM     31  N   UNL     1       2.223   1.511  23.460  0.00  0.00    -0.162 NA
ENDROOT
BRANCH  31  32
ATOM     32  C   UNL     1       2.888   1.082  23.223  0.00  0.00    +0.075 A 
ATOM     33  C   UNL     1       3.639   1.318  23.469  0.00  0.00    +0.020 A 
ATOM     34  C   UNL     1       4.303   0.890  23.233  0.00  0.00    +0.039 A 
ATOM     35  C   UNL     1       4.216   0.226  22.750  0.00  0.00    +0.147 A 
ATOM     41  C   UNL     1       3.464  -0.009  22.504  0.00  0.00    +0.039 A 
ATOM     42  C   UNL     1       2.800   0.420  22.741  0.00  0.00    +0.020 A 
BRANCH  35  36
ATOM     36  O   UNL     1       4.879  -0.202  22.513  0.00  0.00    -0.404 OA
BRANCH  36  37
ATOM     37  C   UNL     1       5.480  -0.365  23.055  0.00  0.00    +0.575 C 
ATOM     38  F   UNL     1       6.081  -0.528  23.596  0.00  0.00    -0.133 F 
ATOM     39  F   UNL     1       5.013  -0.953  23.397  0.00  0.00    -0.133 F 
ATOM     40  F   UNL     1       5.947   0.223  22.713  0.00  0.00    -0.133 F 
ENDBRANCH  36  37
ENDBRANCH  35  36
ENDBRANCH  31  32
BRANCH   9   8
ATOM      8  C   UNL     1      -1.136   2.831  24.584  0.00  0.00    +0.110 C 
BRANCH   8   6
ATOM      6  C   UNL     1      -1.090   3.650  24.670  0.00  0.00    +0.317 C 
ATOM      7  O   UNL     1      -0.848   4.119  24.034  0.00  0.00    -0.250 OA
BRANCH   6   5
ATOM      5  O   UNL     1      -1.284   4.002  25.391  0.00  0.00    -0.456 OA
BRANCH   5   2
ATOM      1  C   UNL     1      -2.378   5.235  25.441  0.00  0.00    +0.044 C 
ATOM      2  C   UNL     1      -1.830   4.618  25.416  0.00  0.00    +0.136 C 
ATOM      3  C   UNL     1      -1.260   5.137  25.122  0.00  0.00    +0.044 C 
ATOM      4  C   UNL     1      -2.402   4.100  25.710  0.00  0.00    +0.044 C 
ENDBRANCH   5   2
ENDBRANCH   6   5
ENDBRANCH   8   6
ENDBRANCH   9   8
BRANCH  14  15
ATOM     15  C   UNL     1      -1.215   1.188  24.463  0.00  0.00    +0.019 C 
BRANCH  15  16
ATOM     16  C   UNL     1      -1.203   0.516  24.941  0.00  0.00    +0.072 C 
BRANCH  16  17
ATOM     17  N   UNL     1      -1.728  -0.104  24.794  0.00  0.00    -0.270 NA
ATOM     18  C   UNL     1      -1.514  -0.879  24.978  0.00  0.00    +0.094 C 
ATOM     19  C   UNL     1      -2.038  -1.498  24.831  0.00  0.00    +0.109 C 
ATOM     20  N   UNL     1      -2.778  -1.341  24.499  0.00  0.00    -0.290 N 
ATOM     21  C   UNL     1      -2.992  -0.567  24.314  0.00  0.00    +0.109 C 
ATOM     22  C   UNL     1      -2.467   0.052  24.462  0.00  0.00    +0.094 C 
ATOM     23  C   UNL     1      -3.303  -1.961  24.351  0.00  0.00    +0.132 A 
ATOM     24  N   UNL     1      -3.089  -2.736  24.535  0.00  0.00    -0.229 NA
ATOM     25  C   UNL     1      -3.613  -3.355  24.388  0.00  0.00    +0.100 A 
ATOM     26  C   UNL     1      -4.352  -3.200  24.056  0.00  0.00    +0.021 A 
ATOM     27  C   UNL     1      -4.567  -2.424  23.871  0.00  0.00    +0.004 A 
ATOM     28  C   UNL     1      -4.042  -1.805  24.019  0.00  0.00    +0.034 A 
ENDBRANCH  16  17
ENDBRANCH  15  16
ENDBRANCH  14  15
TORSDOF 10
ENDMDL
MODEL 4
REMARK VINA RESULT:      -6.8      2.719      6.125
REMARK  Name = 
REMARK  10 active torsions:
REMARK  status: ('A' for Active; 'I' for Inactive)
REMARK    1  A    between atoms: C_2  and  O_5
REMARK    2  A    between atoms: O_5  and  C_6
REMARK    3  A    between atoms: C_6  and  C_8
REMARK    4  A    between atoms: C_8  and  C_9
REMARK    5  A    between atoms: C_14  and  C_15
REMARK    6  A    between atoms: C_15  and  C_16
REMARK    7  A    between atoms: C_16  and  N_17
REMARK    8  A    between atoms: N_31  and  C_32
REMARK    9  A    between atoms: C_35  and  O_36
REMARK   10  A    between atoms: O_36  and  C_37
REMARK                            x       y       z     vdW  Elec       q    Type
REMARK                         _______ _______ _______ _____ _____    ______ ____
ROOT
ATOM      9  C   UNL     1      -1.479  -0.658  24.528  0.00  0.00    +0.014 C 
ATOM     10  C   UNL     1      -2.125  -0.272  24.866  0.00  0.00    +0.022 C 
ATOM     11  C   UNL     1      -2.116   0.547  24.956  0.00  0.00    +0.095 C 
ATOM     12  N   UNL     1      -1.462   0.983  24.706  0.00  0.00    -0.263 N 
ATOM     13  C   UNL     1      -0.816   0.597  24.367  0.00  0.00    +0.095 C 
ATOM     14  C   UNL     1      -0.824  -0.222  24.278  0.00  0.00    +0.022 C 
ATOM     29  C   UNL     1      -1.453   1.803  24.796  0.00  0.00    +0.327 C 
ATOM     30  O   UNL     1      -0.799   2.238  24.546  0.00  0.00    -0.250 OA
ATOM     31  N   UNL     1      -2.099   2.187  25.135  0.00  0.00    -0.162 NA
ENDROOT
BRANCH  31  32
ATOM     32  C   UNL     1      -2.091   3.008  25.224  0.00  0.00    +0.075 A 
ATOM     33  C   UNL     1      -2.568   3.480  24.744  0.00  0.00    +0.020 A 
ATOM     34  C   UNL     1      -2.560   4.300  24.833  0.00  0.00    +0.039 A 
ATOM     35  C   UNL     1      -2.074   4.648  25.403  0.00  0.00    +0.147 A 
ATOM     41  C   UNL     1      -1.597   4.175  25.882  0.00  0.00    +0.039 A 
ATOM     42  C   UNL     1      -1.606   3.355  25.793  0.00  0.00    +0.020 A 
BRANCH  35  36
ATOM     36  O   UNL     1      -2.065   5.467  25.492  0.00  0.00    -0.404 OA
BRANCH  36  37
ATOM     37  C   UNL     1      -1.610   5.933  24.985  0.00  0.00    +0.575 C 
ATOM     38  F   UNL     1      -1.154   6.399  24.479  0.00  0.00    -0.133 F 
ATOM     39  F   UNL     1      -0.926   5.697  25.383  0.00  0.00    -0.133 F 
ATOM     40  F   UNL     1      -2.293   6.168  24.588  0.00  0.00    -0.133 F 
ENDBRANCH  36  37
ENDBRANCH  35  36
ENDBRANCH  31  32
BRANCH   9   8
ATOM      8  C   UNL     1      -1.487  -1.478  24.438  0.00  0.00    +0.110 C 
BRANCH   8   6
ATOM      6  C   UNL     1      -2.150  -1.910  24.668  0.00  0.00    +0.317 C 
ATOM      7  O   UNL     1      -2.297  -2.046  25.469  0.00  0.00    -0.250 OA
BRANCH   6   5
ATOM      5  O   UNL     1      -2.668  -2.208  24.098  0.00  0.00    -0.456 OA
BRANCH   5   2
ATOM      1  C   UNL     1      -3.662  -3.472  24.465  0.00  0.00    +0.044 C 
ATOM      2  C   UNL     1      -3.165  -2.840  24.281  0.00  0.00    +0.136 C 
ATOM      3  C   UNL     1      -3.821  -2.344  24.213  0.00  0.00    +0.044 C 
ATOM      4  C   UNL     1      -2.509  -3.336  24.350  0.00  0.00    +0.044 C 
ENDBRANCH   5   2
ENDBRANCH   6   5
ENDBRANCH   8   6
ENDBRANCH   9   8
BRANCH  14  15
ATOM     15  C   UNL     1      -0.178  -0.607  23.939  0.00  0.00    +0.019 C 
BRANCH  15  16
ATOM     16  C   UNL     1       0.166  -0.308  23.251  0.00  0.00    +0.072 C 
BRANCH  16  17
ATOM     17  N   UNL     1       0.985  -0.223  23.203  0.00  0.00    -0.270 NA
ATOM     18  C   UNL     1       1.480  -0.792  23.537  0.00  0.00    +0.094 C 
ATOM     19  C   UNL     1       2.298  -0.706  23.489  0.00  0.00    +0.109 C 
ATOM     20  N   UNL     1       2.623  -0.049  23.106  0.00  0.00    -0.290 N 
ATOM     21  C   UNL     1       2.128   0.519  22.772  0.00  0.00    +0.109 C 
ATOM     22  C   UNL     1       1.310   0.433  22.820  0.00  0.00    +0.094 C 
ATOM     23  C   UNL     1       3.442   0.036  23.058  0.00  0.00    +0.132 A 
ATOM     24  N   UNL     1       3.937  -0.532  23.392  0.00  0.00    -0.229 NA
ATOM     25  C   UNL     1       4.756  -0.447  23.344  0.00  0.00    +0.100 A 
ATOM     26  C   UNL     1       5.080   0.209  22.962  0.00  0.00    +0.021 A 
ATOM     27  C   UNL     1       4.585   0.778  22.628  0.00  0.00    +0.004 A 
ATOM     28  C   UNL     1       3.766   0.692  22.676  0.00  0.00    +0.034 A 
ENDBRANCH  16  17
ENDBRANCH  15  16
ENDBRANCH  14  15
TORSDOF 10
ENDMDL
MODEL 5
REMARK VINA RESULT:      -6.4      3.509      6.825
REMARK  Name = 
REMARK  10 active torsions:
REMARK  status: ('A' for Active; 'I' for Inactive)
REMARK    1  A    between atoms: C_2  and  O_5
REMARK    2  A    between atoms: O_5  and  C_6
REMARK    3  A    between atoms: C_6  and  C_8
REMARK    4  A    between atoms: C_8  and  C_9
REMARK    5  A    between atoms: C_14  and  C_15
REMARK    6  A    between atoms: C_15  and  C_16
REMARK    7  A    between atoms: C_16  and  N_17
REMARK    8  A    between atoms: N_31  and  C_32
REMARK    9  A    between atoms: C_35  and  O_36
REMARK   10  A    between atoms: O_36  and  C_37
REMARK                            x       y       z     vdW  Elec       q    Type
REMARK                         _______ _______ _______ _____ _____    ______ ____
ROOT
ATOM      9  C   UNL     1      -2.476  -0.386  24.827  0.00  0.00    +0.014 C 
ATOM     10  C   UNL     1      -3.238  -0.285  25.124  0.00  0.00    +0.022 C 
ATOM     11  C   UNL     1      -3.550   0.473  25.210  0.00  0.00    +0.095 C 
ATOM     12  N   UNL     1      -3.100   1.131  24.999  0.00  0.00    -0.263 N 
ATOM     13  C   UNL     1      -2.338   1.030  24.702  0.00  0.00    +0.095 C 
ATOM     14  C   UNL     1      -2.026   0.273  24.616  0.00  0.00    +0.022 C 
ATOM     29  C   UNL     1      -3.413   1.890  25.086  0.00  0.00    +0.327 C 
ATOM     30  O   UNL     1      -2.963   2.548  24.875  0.00  0.00    -0.250 OA
ATOM     31  N   UNL     1      -4.175   1.990  25.383  0.00  0.00    -0.162 NA
ENDROOT
BRANCH  31  32
ATOM     32  C   UNL     1      -4.488   2.750  25.469  0.00  0.00    +0.075 A 
ATOM     33  C   UNL     1      -4.195   3.252  26.055  0.00  0.00    +0.020 A 
ATOM     34  C   UNL     1      -4.508   4.010  26.142  0.00  0.00    +0.039 A 
ATOM     35  C   UNL     1      -5.113   4.267  25.642  0.00  0.00    +0.147 A 
ATOM     41  C   UNL     1      -5.405   3.765  25.057  0.00  0.00    +0.039 A 
ATOM     42  C   UNL     1      -5.092   3.006  24.970  0.00  0.00    +0.020 A 
BRANCH  35  36
ATOM     36  O   UNL     1      -5.425   5.025  25.728  0.00  0.00    -0.404 OA
BRANCH  36  37
ATOM     37  C   UNL     1      -6.177   5.198  25.434  0.00  0.00    +0.575 C 
ATOM     38  F   UNL     1      -6.927   5.371  25.139  0.00  0.00    -0.133 F 
ATOM     39  F   UNL     1      -5.835   5.552  24.770  0.00  0.00    -0.133 F 
ATOM     40  F   UNL     1      -6.517   4.845  26.096  0.00  0.00    -0.133 F 
ENDBRANCH  36  37
ENDBRANCH  35  36
ENDBRANCH  31  32
BRANCH   9   8
ATOM      8  C   UNL     1      -2.163  -1.144  24.740  0.00  0.00    +0.110 C 
BRANCH   8   6
ATOM      6  C   UNL     1      -2.655  -1.803  24.807  0.00  0.00    +0.317 C 
ATOM      7  O   UNL     1      -2.948  -2.025  25.547  0.00  0.00    -0.250 OA
BRANCH   6   5
ATOM      5  O   UNL     1      -2.855  -2.239  24.136  0.00  0.00    -0.456 OA
BRANCH   5   2
ATOM      1  C   UNL     1      -3.447  -3.771  24.294  0.00  0.00    +0.044 C 
ATOM      2  C   UNL     1      -3.151  -3.005  24.215  0.00  0.00    +0.136 C 
ATOM      3  C   UNL     1      -3.897  -2.741  23.981  0.00  0.00    +0.044 C 
ATOM      4  C   UNL     1      -2.406  -3.270  24.450  0.00  0.00    +0.044 C 
ENDBRANCH   5   2
ENDBRANCH   6   5
ENDBRANCH   8   6
ENDBRANCH   9   8
BRANCH  14  15
ATOM     15  C   UNL     1      -1.262   0.172  24.319  0.00  0.00    +0.019 C 
BRANCH  15  16
ATOM     16  C   UNL     1      -0.923   0.756  23.844  0.00  0.00    +0.072 C 
BRANCH  16  17
ATOM     17  N   UNL     1      -0.128   0.704  23.632  0.00  0.00    -0.270 NA
ATOM     18  C   UNL     1       0.410   1.266  23.904  0.00  0.00    +0.094 C 
ATOM     19  C   UNL     1       1.205   1.214  23.692  0.00  0.00    +0.109 C 
ATOM     20  N   UNL     1       1.462   0.598  23.205  0.00  0.00    -0.290 N 
ATOM     21  C   UNL     1       0.925   0.036  22.933  0.00  0.00    +0.109 C 
ATOM     22  C   UNL     1       0.130   0.088  23.145  0.00  0.00    +0.094 C 
ATOM     23  C   UNL     1       2.258   0.546  22.993  0.00  0.00    +0.132 A 
ATOM     24  N   UNL     1       2.796   1.108  23.265  0.00  0.00    -0.229 NA
ATOM     25  C   UNL     1       3.591   1.057  23.053  0.00  0.00    +0.100 A 
ATOM     26  C   UNL     1       3.849   0.441  22.567  0.00  0.00    +0.021 A 
ATOM     27  C   UNL     1       3.310  -0.122  22.294  0.00  0.00    +0.004 A 
ATOM     28  C   UNL     1       2.515  -0.069  22.507  0.00  0.00    +0.034 A 
ENDBRANCH  16  17
ENDBRANCH  15  16
ENDBRANCH  14  15
TORSDOF 10
ENDMDL
