MODEL 1
REMARK VINA RESULT:     -11.5      0.000      0.000
REMARK  Name = 
REMARK  6 active torsions:
REMARK  status: ('A' for Active; 'I' for Inactive)
REMARK    1  A    between atoms: C_2  and  C_10
REMARK    2  A    between atoms: N_3  and  C_4
REMARK    3  A    between atoms: C_17  and  C_18
REMARK    4  A    between atoms: C_18  and  N_19
REMARK    5  A    between atoms: C_21  and  C_24
REMARK    6  A    between atoms: C_27  and  C_30
REMARK                            x       y       z     vdW  Elec       q    Type
REMARK                         _______ _______ _______ _____ _____    ______ ____
ROOT
ATOM     18  C   UNL     1      -5.599   2.757  25.097  0.00  0.00    +0.145 C 
ENDROOT
BRANCH  18  17
ATOM     10  C   UNL     1      -3.505   3.857  25.248  0.00  0.00    +0.095 C 
ATOM     11  C   UNL     1      -3.722   3.586  24.552  0.00  0.00    +0.081 C 
ATOM     12  N   UNL     1      -4.154   3.528  25.253  0.00  0.00    -0.272 NA
ATOM     13  C   UNL     1      -3.587   3.990  26.004  0.00  0.00    +0.072 C 
ATOM     14  C   UNL     1      -3.510   4.173  26.627  0.00  0.00    +0.018 C 
ATOM     15  C   UNL     1      -3.934   3.797  25.932  0.00  0.00    +0.013 C 
ATOM     16  C   UNL     1      -4.717   3.439  26.106  0.00  0.00    +0.019 C 
ATOM     17  C   UNL     1      -4.966   3.158  25.442  0.00  0.00    +0.082 C 
BRANCH  10   2
ATOM      1  O   UNL     1      -2.608   4.734  25.933  0.00  0.00    -0.273 OA
ATOM      2  C   UNL     1      -2.775   4.239  25.294  0.00  0.00    +0.246 C 
ATOM      3  N   UNL     1      -2.213   4.126  24.702  0.00  0.00    -0.179 NA
BRANCH   3   4
ATOM      4  C   UNL     1      -1.483   4.508  24.748  0.00  0.00    +0.073 A 
ATOM      5  C   UNL     1      -1.437   5.325  24.641  0.00  0.00    +0.017 A 
ATOM      6  C   UNL     1      -0.708   5.707  24.687  0.00  0.00    +0.001 A 
ATOM      7  C   UNL     1      -0.023   5.273  24.839  0.00  0.00    +0.000 A 
ATOM      8  C   UNL     1      -0.069   4.456  24.945  0.00  0.00    +0.001 A 
ATOM      9  C   UNL     1      -0.799   4.074  24.900  0.00  0.00    +0.017 A 
ENDBRANCH   3   4
ENDBRANCH  10   2
ENDBRANCH  18  17
BRANCH  18  19
ATOM     19  N   UNL     1      -5.594   1.933  25.060  0.00  0.00    -0.229 N 
ATOM     20  C   UNL     1      -4.930   1.456  24.950  0.00  0.00    +0.118 A 
ATOM     21  C   UNL     1      -5.179   0.669  24.949  0.00  0.00    +0.123 A 
ATOM     22  N   UNL     1      -5.996   0.661  25.059  0.00  0.00    -0.129 NA
ATOM     23  N   UNL     1      -6.253   1.441  25.127  0.00  0.00    -0.064 NA
BRANCH  21  24
ATOM     24  C   UNL     1      -4.694   0.008  24.855  0.00  0.00    +0.021 A 
ATOM     25  C   UNL     1      -4.224  -0.252  25.481  0.00  0.00    +0.002 A 
ATOM     26  C   UNL     1      -3.740  -0.913  25.387  0.00  0.00    +0.000 A 
ATOM     27  C   UNL     1      -3.726  -1.314  24.666  0.00  0.00    +0.000 A 
ATOM     28  C   UNL     1      -4.196  -1.055  24.040  0.00  0.00    +0.000 A 
ATOM     29  C   UNL     1      -4.681  -0.394  24.135  0.00  0.00    +0.002 A 
BRANCH  27  30
ATOM     30  C   UNL     1      -3.242  -1.975  24.572  0.00  0.00    +0.000 A 
ATOM     31  C   UNL     1      -2.422  -1.887  24.551  0.00  0.00    +0.000 A 
ATOM     32  C   UNL     1      -1.938  -2.549  24.457  0.00  0.00    +0.000 A 
ATOM     33  C   UNL     1      -2.273  -3.299  24.383  0.00  0.00    +0.000 A 
ATOM     34  C   UNL     1      -3.093  -3.387  24.404  0.00  0.00    +0.000 A 
ATOM     35  C   UNL     1      -3.578  -2.726  24.498  0.00  0.00    +0.000 A 
ENDBRANCH  27  30
ENDBRANCH  21  24
ENDBRANCH  18  19
TORSDOF 6
ENDMDL
MODEL 2
REMARK VINA RESULT:     -10.4     19.221     20.980
REMARK  Name = 
REMARK  6 active torsions:
REMARK  status: ('A' for Active; 'I' for Inactive)
REMARK    1  A    between atoms: C_2  and  C_10
REMARK    2  A    between atoms: N_3  and  C_4
REMARK    3  A    between atoms: C_17  and  C_18
REMARK    4  A    between atoms: C_18  and  N_19
REMARK    5  A    between atoms: C_21  and  C_24
REMARK    6  A    between atoms: C_27  and  C_30
REMARK                            x       y       z     vdW  Elec       q    Type
REMARK                         _______ _______ _______ _____ _____    ______ ____
ROOT
ATOM     18  C   UNL     1      17.405  -5.723  27.477  0.00  0.00    +0.145 C 
ENDROOT
BRANCH  18  17
ATOM     10  C   UNL     1      17.171  -4.536  25.439  0.00  0.00    +0.095 C 
ATOM     11  C   UNL     1      17.300  -4.123  26.086  0.00  0.00    +0.081 C 
ATOM     12  N   UNL     1      17.236  -4.944  26.037  0.00  0.00    -0.272 NA
ATOM     13  C   UNL     1      17.063  -5.182  25.030  0.00  0.00    +0.072 C 
ATOM     14  C   UNL     1      16.960  -5.625  24.561  0.00  0.00    +0.018 C 
ATOM     15  C   UNL     1      17.109  -5.343  25.399  0.00  0.00    +0.013 C 
ATOM     16  C   UNL     1      17.161  -5.967  26.013  0.00  0.00    +0.019 C 
ATOM     17  C   UNL     1      17.288  -5.600  26.670  0.00  0.00    +0.082 C 
BRANCH  10   2
ATOM      1  O   UNL     1      17.280  -4.478  24.014  0.00  0.00    -0.273 OA
ATOM      2  C   UNL     1      17.091  -4.116  24.732  0.00  0.00    +0.246 C 
ATOM      3  N   UNL     1      16.822  -3.337  24.744  0.00  0.00    -0.179 NA
BRANCH   3   4
ATOM      4  C   UNL     1      16.742  -2.919  24.038  0.00  0.00    +0.073 A 
ATOM      5  C   UNL     1      16.005  -2.866  23.670  0.00  0.00    +0.017 A 
ATOM      6  C   UNL     1      15.925  -2.447  22.964  0.00  0.00    +0.001 A 
ATOM      7  C   UNL     1      16.581  -2.080  22.625  0.00  0.00    +0.000 A 
ATOM      8  C   UNL     1      17.318  -2.133  22.993  0.00  0.00    +0.001 A 
ATOM      9  C   UNL     1      17.398  -2.552  23.698  0.00  0.00    +0.017 A 
ENDBRANCH   3   4
ENDBRANCH  10   2
ENDBRANCH  18  17
BRANCH  18  19
ATOM     19  N   UNL     1      16.874  -6.187  27.905  0.00  0.00    -0.229 N 
ATOM     20  C   UNL     1      16.248  -5.909  28.365  0.00  0.00    +0.118 A 
ATOM     21  C   UNL     1      15.863  -6.562  28.692  0.00  0.00    +0.123 A 
ATOM     22  N   UNL     1      16.251  -7.242  28.433  0.00  0.00    -0.129 NA
ATOM     23  N   UNL     1      16.875  -7.011  27.947  0.00  0.00    -0.064 NA
BRANCH  21  24
ATOM     24  C   UNL     1      15.206  -6.537  29.190  0.00  0.00    +0.021 A 
ATOM     25  C   UNL     1      14.695  -7.184  29.232  0.00  0.00    +0.002 A 
ATOM     26  C   UNL     1      14.038  -7.160  29.730  0.00  0.00    +0.000 A 
ATOM     27  C   UNL     1      13.892  -6.488  30.187  0.00  0.00    +0.000 A 
ATOM     28  C   UNL     1      14.402  -5.842  30.145  0.00  0.00    +0.000 A 
ATOM     29  C   UNL     1      15.059  -5.866  29.647  0.00  0.00    +0.002 A 
BRANCH  27  30
ATOM     30  C   UNL     1      13.235  -6.464  30.685  0.00  0.00    +0.000 A 
ATOM     31  C   UNL     1      13.296  -6.119  31.432  0.00  0.00    +0.000 A 
ATOM     32  C   UNL     1      12.638  -6.095  31.930  0.00  0.00    +0.000 A 
ATOM     33  C   UNL     1      11.920  -6.415  31.682  0.00  0.00    +0.000 A 
ATOM     34  C   UNL     1      11.859  -6.760  30.934  0.00  0.00    +0.000 A 
ATOM     35  C   UNL     1      12.516  -6.784  30.436  0.00  0.00    +0.000 A 
ENDBRANCH  27  30
ENDBRANCH  21  24
ENDBRANCH  18  19
TORSDOF 6
ENDMDL
MODEL 3
REMARK VINA RESULT:     -10.1      4.492      6.304
REMARK  Name = 
REMARK  6 active torsions:
REMARK  status: ('A' for Active; 'I' for Inactive)
REMARK    1  A    between atoms: C_2  and  C_10
REMARK    2  A    between atoms: N_3  and  C_4
REMARK    3  A    between atoms: C_17  and  C_18
REMARK    4  A    between atoms: C_18  and  N_19
REMARK    5  A    between atoms: C_21  and  C_24
REMARK    6  A    between atoms: C_27  and  C_30
REMARK                            x       y       z     vdW  Elec       q    Type
REMARK                         _______ _______ _______ _____ _____    ______ ____
ROOT
ATOM     18  C   UNL     1      -0.570  -0.035  23.810  0.00  0.00    +0.145 C 
ENDROOT
BRANCH  18  17
ATOM     10  C   UNL     1      -2.551   1.222  24.149  0.00  0.00    +0.095 C 
ATOM     11  C   UNL     1      -2.503   0.523  24.487  0.00  0.00    +0.081 C 
ATOM     12  N   UNL     1      -1.925   0.876  24.016  0.00  0.00    -0.272 NA
ATOM     13  C   UNL     1      -2.297   1.810  23.718  0.00  0.00    +0.072 C 
ATOM     14  C   UNL     1      -2.227   2.372  23.392  0.00  0.00    +0.018 C 
ATOM     15  C   UNL     1      -1.979   1.562  23.687  0.00  0.00    +0.013 C 
ATOM     16  C   UNL     1      -1.186   1.285  23.434  0.00  0.00    +0.019 C 
ATOM     17  C   UNL     1      -1.099   0.595  23.749  0.00  0.00    +0.082 C 
BRANCH  10   2
ATOM      1  O   UNL     1      -3.522   2.162  23.683  0.00  0.00    -0.273 OA
ATOM      2  C   UNL     1      -3.244   1.655  24.271  0.00  0.00    +0.246 C 
ATOM      3  N   UNL     1      -3.657   1.580  24.980  0.00  0.00    -0.179 NA
BRANCH   3   4
ATOM      4  C   UNL     1      -4.349   2.012  25.102  0.00  0.00    +0.073 A 
ATOM      5  C   UNL     1      -4.312   2.765  25.436  0.00  0.00    +0.017 A 
ATOM      6  C   UNL     1      -5.004   3.197  25.558  0.00  0.00    +0.001 A 
ATOM      7  C   UNL     1      -5.733   2.877  25.346  0.00  0.00    +0.000 A 
ATOM      8  C   UNL     1      -5.770   2.123  25.012  0.00  0.00    +0.001 A 
ATOM      9  C   UNL     1      -5.078   1.691  24.890  0.00  0.00    +0.017 A 
ENDBRANCH   3   4
ENDBRANCH  10   2
ENDBRANCH  18  17
BRANCH  18  19
ATOM     19  N   UNL     1       0.131  -0.029  23.376  0.00  0.00    -0.229 N 
ATOM     20  C   UNL     1       0.893   0.013  23.687  0.00  0.00    +0.118 A 
ATOM     21  C   UNL     1       1.426   0.003  23.056  0.00  0.00    +0.123 A 
ATOM     22  N   UNL     1       0.992  -0.044  22.357  0.00  0.00    -0.129 NA
ATOM     23  N   UNL     1       0.192  -0.064  22.554  0.00  0.00    -0.064 NA
BRANCH  21  24
ATOM     24  C   UNL     1       2.248   0.035  23.116  0.00  0.00    +0.021 A 
ATOM     25  C   UNL     1       2.676  -0.646  23.300  0.00  0.00    +0.002 A 
ATOM     26  C   UNL     1       3.498  -0.614  23.359  0.00  0.00    +0.000 A 
ATOM     27  C   UNL     1       3.892   0.100  23.235  0.00  0.00    +0.000 A 
ATOM     28  C   UNL     1       3.465   0.781  23.051  0.00  0.00    +0.000 A 
ATOM     29  C   UNL     1       2.643   0.749  22.992  0.00  0.00    +0.002 A 
BRANCH  27  30
ATOM     30  C   UNL     1       4.714   0.132  23.294  0.00  0.00    +0.000 A 
ATOM     31  C   UNL     1       5.184  -0.252  22.735  0.00  0.00    +0.000 A 
ATOM     32  C   UNL     1       6.007  -0.219  22.795  0.00  0.00    +0.000 A 
ATOM     33  C   UNL     1       6.360   0.197  23.414  0.00  0.00    +0.000 A 
ATOM     34  C   UNL     1       5.890   0.581  23.973  0.00  0.00    +0.000 A 
ATOM     35  C   UNL     1       5.068   0.548  23.913  0.00  0.00    +0.000 A 
ENDBRANCH  27  30
ENDBRANCH  21  24
ENDBRANCH  18  19
TORSDOF 6
ENDMDL
MODEL 4
REMARK VINA RESULT:     -10.0      1.508      5.690
REMARK  Name = 
REMARK  6 active torsions:
REMARK  status: ('A' for Active; 'I' for Inactive)
REMARK    1  A    between atoms: C_2  and  C_10
REMARK    2  A    between atoms: N_3  and  C_4
REMARK    3  A    between atoms: C_17  and  C_18
REMARK    4  A    between atoms: C_18  and  N_19
REMARK    5  A    between atoms: C_21  and  C_24
REMARK    6  A    between atoms: C_27  and  C_30
REMARK                            x       y       z     vdW  Elec       q    Type
REMARK                         _______ _______ _______ _____ _____    ______ ____
ROOT
ATOM     18  C   UNL     1      -5.536   1.028  25.503  0.00  0.00    +0.145 C 
ENDROOT
BRANCH  18  17
ATOM     10  C   UNL     1      -3.931  -0.634  24.980  0.00  0.00    +0.095 C 
ATOM     11  C   UNL     1      -3.897  -0.308  25.685  0.00  0.00    +0.081 C 
ATOM     12  N   UNL     1      -4.443  -0.131  25.092  0.00  0.00    -0.272 NA
ATOM     13  C   UNL     1      -4.217  -0.742  24.271  0.00  0.00    +0.072 C 
ATOM     14  C   UNL     1      -4.339  -0.942  23.661  0.00  0.00    +0.018 C 
ATOM     15  C   UNL     1      -4.469  -0.455  24.402  0.00  0.00    +0.013 C 
ATOM     16  C   UNL     1      -5.137   0.114  24.377  0.00  0.00    +0.019 C 
ATOM     17  C   UNL     1      -5.139   0.459  25.059  0.00  0.00    +0.082 C 
BRANCH  10   2
ATOM      1  O   UNL     1      -3.588  -1.886  24.380  0.00  0.00    -0.273 OA
ATOM      2  C   UNL     1      -3.368  -1.213  24.804  0.00  0.00    +0.246 C 
ATOM      3  N   UNL     1      -2.588  -1.118  25.052  0.00  0.00    -0.179 NA
BRANCH   3   4
ATOM      4  C   UNL     1      -2.027  -1.696  24.876  0.00  0.00    +0.073 A 
ATOM      5  C   UNL     1      -2.116  -2.462  25.170  0.00  0.00    +0.017 A 
ATOM      6  C   UNL     1      -1.555  -3.040  24.995  0.00  0.00    +0.001 A 
ATOM      7  C   UNL     1      -0.903  -2.853  24.525  0.00  0.00    +0.000 A 
ATOM      8  C   UNL     1      -0.813  -2.088  24.231  0.00  0.00    +0.001 A 
ATOM      9  C   UNL     1      -1.375  -1.510  24.407  0.00  0.00    +0.017 A 
ENDBRANCH   3   4
ENDBRANCH  10   2
ENDBRANCH  18  17
BRANCH  18  19
ATOM     19  N   UNL     1      -5.273   1.811  25.501  0.00  0.00    -0.229 N 
ATOM     20  C   UNL     1      -4.499   2.061  25.369  0.00  0.00    +0.118 A 
ATOM     21  C   UNL     1      -4.486   2.885  25.417  0.00  0.00    +0.123 A 
ATOM     22  N   UNL     1      -5.253   3.142  25.580  0.00  0.00    -0.129 NA
ATOM     23  N   UNL     1      -5.739   2.479  25.631  0.00  0.00    -0.064 NA
BRANCH  21  24
ATOM     24  C   UNL     1      -3.823   3.366  25.321  0.00  0.00    +0.021 A 
ATOM     25  C   UNL     1      -3.433   3.669  25.982  0.00  0.00    +0.002 A 
ATOM     26  C   UNL     1      -2.770   4.150  25.886  0.00  0.00    +0.000 A 
ATOM     27  C   UNL     1      -2.497   4.329  25.128  0.00  0.00    +0.000 A 
ATOM     28  C   UNL     1      -2.887   4.026  24.467  0.00  0.00    +0.000 A 
ATOM     29  C   UNL     1      -3.550   3.545  24.564  0.00  0.00    +0.002 A 
BRANCH  27  30
ATOM     30  C   UNL     1      -1.834   4.810  25.031  0.00  0.00    +0.000 A 
ATOM     31  C   UNL     1      -1.914   5.631  25.053  0.00  0.00    +0.000 A 
ATOM     32  C   UNL     1      -1.250   6.112  24.957  0.00  0.00    +0.000 A 
ATOM     33  C   UNL     1      -0.508   5.773  24.837  0.00  0.00    +0.000 A 
ATOM     34  C   UNL     1      -0.428   4.952  24.815  0.00  0.00    +0.000 A 
ATOM     35  C   UNL     1      -1.091   4.471  24.912  0.00  0.00    +0.000 A 
ENDBRANCH  27  30
ENDBRANCH  21  24
ENDBRANCH  18  19
TORSDOF 6
ENDMDL
MODEL 5
REMARK VINA RESULT:      -9.8     19.336     21.574
REMARK  Name = 
REMARK  6 active torsions:
REMARK  status: ('A' for Active; 'I' for Inactive)
REMARK    1  A    between atoms: C_2  and  C_10
REMARK    2  A    between atoms: N_3  and  C_4
REMARK    3  A    between atoms: C_17  and  C_18
REMARK    4  A    between atoms: C_18  and  N_19
REMARK    5  A    between atoms: C_21  and  C_24
REMARK    6  A    between atoms: C_27  and  C_30
REMARK                            x       y       z     vdW  Elec       q    Type
REMARK                         _______ _______ _______ _____ _____    ______ ____
ROOT
ATOM     18  C   UNL     1      17.243  -6.188  27.290  0.00  0.00    +0.145 C 
ENDROOT
BRANCH  18  17
ATOM     10  C   UNL     1      15.505  -6.657  28.832  0.00  0.00    +0.095 C 
ATOM     11  C   UNL     1      16.015  -6.100  29.020  0.00  0.00    +0.081 C 
ATOM     12  N   UNL     1      16.018  -6.551  28.328  0.00  0.00    -0.272 NA
ATOM     13  C   UNL     1      15.203  -7.208  28.383  0.00  0.00    +0.072 C 
ATOM     14  C   UNL     1      14.840  -7.686  28.124  0.00  0.00    +0.018 C 
ATOM     15  C   UNL     1      15.515  -7.095  28.151  0.00  0.00    +0.013 C 
ATOM     16  C   UNL     1      16.052  -7.092  27.457  0.00  0.00    +0.019 C 
ATOM     17  C   UNL     1      16.573  -6.553  27.603  0.00  0.00    +0.082 C 
BRANCH  10   2
ATOM      1  O   UNL     1      14.688  -7.596  29.535  0.00  0.00    -0.273 OA
ATOM      2  C   UNL     1      14.902  -6.816  29.373  0.00  0.00    +0.246 C 
ATOM      3  N   UNL     1      14.514  -6.194  29.752  0.00  0.00    -0.179 NA
BRANCH   3   4
ATOM      4  C   UNL     1      13.912  -6.353  30.293  0.00  0.00    +0.073 A 
ATOM      5  C   UNL     1      13.123  -6.267  30.069  0.00  0.00    +0.017 A 
ATOM      6  C   UNL     1      12.521  -6.426  30.610  0.00  0.00    +0.001 A 
ATOM      7  C   UNL     1      12.707  -6.670  31.375  0.00  0.00    +0.000 A 
ATOM      8  C   UNL     1      13.496  -6.756  31.599  0.00  0.00    +0.001 A 
ATOM      9  C   UNL     1      14.098  -6.597  31.058  0.00  0.00    +0.017 A 
ENDBRANCH   3   4
ENDBRANCH  10   2
ENDBRANCH  18  17
BRANCH  18  19
ATOM     19  N   UNL     1      17.247  -5.938  26.504  0.00  0.00    -0.229 N 
ATOM     20  C   UNL     1      17.220  -5.155  26.245  0.00  0.00    +0.118 A 
ATOM     21  C   UNL     1      17.236  -5.160  25.420  0.00  0.00    +0.123 A 
ATOM     22  N   UNL     1      17.273  -5.945  25.170  0.00  0.00    -0.129 NA
ATOM     23  N   UNL     1      17.280  -6.426  25.840  0.00  0.00    -0.064 NA
BRANCH  21  24
ATOM     24  C   UNL     1      17.218  -4.496  24.931  0.00  0.00    +0.021 A 
ATOM     25  C   UNL     1      17.012  -3.759  25.242  0.00  0.00    +0.002 A 
ATOM     26  C   UNL     1      16.994  -3.095  24.753  0.00  0.00    +0.000 A 
ATOM     27  C   UNL     1      17.181  -3.168  23.953  0.00  0.00    +0.000 A 
ATOM     28  C   UNL     1      17.387  -3.903  23.642  0.00  0.00    +0.000 A 
ATOM     29  C   UNL     1      17.405  -4.567  24.131  0.00  0.00    +0.002 A 
BRANCH  27  30
ATOM     30  C   UNL     1      17.163  -2.504  23.464  0.00  0.00    +0.000 A 
ATOM     31  C   UNL     1      17.401  -2.565  22.676  0.00  0.00    +0.000 A 
ATOM     32  C   UNL     1      17.383  -1.900  22.187  0.00  0.00    +0.000 A 
ATOM     33  C   UNL     1      17.127  -1.175  22.485  0.00  0.00    +0.000 A 
ATOM     34  C   UNL     1      16.889  -1.114  23.273  0.00  0.00    +0.000 A 
ATOM     35  C   UNL     1      16.907  -1.778  23.762  0.00  0.00    +0.000 A 
ENDBRANCH  27  30
ENDBRANCH  21  24
ENDBRANCH  18  19
TORSDOF 6
ENDMDL
MODEL 6
REMARK VINA RESULT:      -9.5      4.250      5.861
REMARK  Name = 
REMARK  6 active torsions:
REMARK  status: ('A' for Active; 'I' for Inactive)
REMARK    1  A    between atoms: C_2  and  C_10
REMARK    2  A    between atoms: N_3  and  C_4
REMARK    3  A    between atoms: C_17  and  C_18
REMARK    4  A    between atoms: C_18  and  N_19
REMARK    5  A    between atoms: C_21  and  C_24
REMARK    6  A    between atoms: C_27  and  C_30
REMARK                            x       y       z     vdW  Elec       q    Type
REMARK                         _______ _______ _______ _____ _____    ______ ____
ROOT
ATOM     18  C   UNL     1      -0.654  -0.210  23.231  0.00  0.00    +0.145 C 
ENDROOT
BRANCH  18  17
ATOM     10  C   UNL     1       1.671   0.241  23.178  0.00  0.00    +0.095 C 
ATOM     11  C   UNL     1       1.422  -0.415  22.843  0.00  0.00    +0.081 C 
ATOM     12  N   UNL     1       0.952   0.148  23.220  0.00  0.00    -0.272 NA
ATOM     13  C   UNL     1       1.590   0.907  23.561  0.00  0.00    +0.072 C 
ATOM     14  C   UNL     1       1.683   1.476  23.868  0.00  0.00    +0.018 C 
ATOM     15  C   UNL     1       1.203   0.790  23.546  0.00  0.00    +0.013 C 
ATOM     16  C   UNL     1       0.337   0.828  23.682  0.00  0.00    +0.019 C 
ATOM     17  C   UNL     1       0.052   0.194  23.365  0.00  0.00    +0.082 C 
BRANCH  10   2
ATOM      1  O   UNL     1       2.758   1.171  23.163  0.00  0.00    -0.273 OA
ATOM      2  C   UNL     1       2.483   0.393  23.156  0.00  0.00    +0.246 C 
ATOM      3  N   UNL     1       3.018  -0.234  23.127  0.00  0.00    -0.179 NA
BRANCH   3   4
ATOM      4  C   UNL     1       3.829  -0.082  23.104  0.00  0.00    +0.073 A 
ATOM      5  C   UNL     1       4.147   0.378  22.498  0.00  0.00    +0.017 A 
ATOM      6  C   UNL     1       4.957   0.529  22.476  0.00  0.00    +0.001 A 
ATOM      7  C   UNL     1       5.451   0.220  23.060  0.00  0.00    +0.000 A 
ATOM      8  C   UNL     1       5.133  -0.241  23.666  0.00  0.00    +0.001 A 
ATOM      9  C   UNL     1       4.323  -0.392  23.688  0.00  0.00    +0.017 A 
ENDBRANCH   3   4
ENDBRANCH  10   2
ENDBRANCH  18  17
BRANCH  18  19
ATOM     19  N   UNL     1      -1.276  -0.143  23.769  0.00  0.00    -0.229 N 
ATOM     20  C   UNL     1      -1.842   0.457  23.784  0.00  0.00    +0.118 A 
ATOM     21  C   UNL     1      -2.357   0.305  24.411  0.00  0.00    +0.123 A 
ATOM     22  N   UNL     1      -2.108  -0.388  24.783  0.00  0.00    -0.129 NA
ATOM     23  N   UNL     1      -1.441  -0.665  24.387  0.00  0.00    -0.064 NA
BRANCH  21  24
ATOM     24  C   UNL     1      -3.006   0.766  24.627  0.00  0.00    +0.021 A 
ATOM     25  C   UNL     1      -3.768   0.450  24.592  0.00  0.00    +0.002 A 
ATOM     26  C   UNL     1      -4.416   0.911  24.808  0.00  0.00    +0.000 A 
ATOM     27  C   UNL     1      -4.304   1.688  25.060  0.00  0.00    +0.000 A 
ATOM     28  C   UNL     1      -3.543   2.005  25.095  0.00  0.00    +0.000 A 
ATOM     29  C   UNL     1      -2.894   1.544  24.879  0.00  0.00    +0.002 A 
BRANCH  27  30
ATOM     30  C   UNL     1      -4.953   2.149  25.276  0.00  0.00    +0.000 A 
ATOM     31  C   UNL     1      -4.892   2.973  25.277  0.00  0.00    +0.000 A 
ATOM     32  C   UNL     1      -5.542   3.434  25.493  0.00  0.00    +0.000 A 
ATOM     33  C   UNL     1      -6.251   3.072  25.709  0.00  0.00    +0.000 A 
ATOM     34  C   UNL     1      -6.312   2.249  25.708  0.00  0.00    +0.000 A 
ATOM     35  C   UNL     1      -5.663   1.788  25.492  0.00  0.00    +0.000 A 
ENDBRANCH  27  30
ENDBRANCH  21  24
ENDBRANCH  18  19
TORSDOF 6
ENDMDL
MODEL 7
REMARK VINA RESULT:      -9.5      2.892      5.278
REMARK  Name = 
REMARK  6 active torsions:
REMARK  status: ('A' for Active; 'I' for Inactive)
REMARK    1  A    between atoms: C_2  and  C_10
REMARK    2  A    between atoms: N_3  and  C_4
REMARK    3  A    between atoms: C_17  and  C_18
REMARK    4  A    between atoms: C_18  and  N_19
REMARK    5  A    between atoms: C_21  and  C_24
REMARK    6  A    between atoms: C_27  and  C_30
REMARK                            x       y       z     vdW  Elec       q    Type
REMARK                         _______ _______ _______ _____ _____    ______ ____
ROOT
ATOM     18  C   UNL     1      -2.774  -2.121  24.392  0.00  0.00    +0.145 C 
ENDROOT
BRANCH  18  17
ATOM     10  C   UNL     1      -0.622  -1.201  24.023  0.00  0.00    +0.095 C 
ATOM     11  C   UNL     1      -1.094  -1.278  23.408  0.00  0.00    +0.081 C 
ATOM     12  N   UNL     1      -1.270  -1.487  24.187  0.00  0.00    -0.272 NA
ATOM     13  C   UNL     1      -0.428  -1.257  24.768  0.00  0.00    +0.072 C 
ATOM     14  C   UNL     1      -0.124  -1.240  25.346  0.00  0.00    +0.018 C 
ATOM     15  C   UNL     1      -0.803  -1.409  24.784  0.00  0.00    +0.013 C 
ATOM     16  C   UNL     1      -1.523  -1.759  25.143  0.00  0.00    +0.019 C 
ATOM     17  C   UNL     1      -2.016  -1.851  24.567  0.00  0.00    +0.082 C 
BRANCH  10   2
ATOM      1  O   UNL     1       0.770  -1.127  24.340  0.00  0.00    -0.273 OA
ATOM      2  C   UNL     1       0.126  -0.879  23.887  0.00  0.00    +0.246 C 
ATOM      3  N   UNL     1       0.230  -0.311  23.299  0.00  0.00    -0.179 NA
BRANCH   3   4
ATOM      4  C   UNL     1       0.978   0.010  23.163  0.00  0.00    +0.073 A 
ATOM      5  C   UNL     1       1.194   0.719  23.525  0.00  0.00    +0.017 A 
ATOM      6  C   UNL     1       1.942   1.040  23.389  0.00  0.00    +0.001 A 
ATOM      7  C   UNL     1       2.474   0.652  22.893  0.00  0.00    +0.000 A 
ATOM      8  C   UNL     1       2.258  -0.057  22.531  0.00  0.00    +0.001 A 
ATOM      9  C   UNL     1       1.510  -0.378  22.667  0.00  0.00    +0.017 A 
ENDBRANCH   3   4
ENDBRANCH  10   2
ENDBRANCH  18  17
BRANCH  18  19
ATOM     19  N   UNL     1      -3.406  -1.591  24.368  0.00  0.00    -0.229 N 
ATOM     20  C   UNL     1      -3.392  -0.808  24.628  0.00  0.00    +0.118 A 
ATOM     21  C   UNL     1      -4.141  -0.485  24.501  0.00  0.00    +0.123 A 
ATOM     22  N   UNL     1      -4.616  -1.068  24.163  0.00  0.00    -0.129 NA
ATOM     23  N   UNL     1      -4.163  -1.751  24.081  0.00  0.00    -0.064 NA
BRANCH  21  24
ATOM     24  C   UNL     1      -4.372   0.287  24.680  0.00  0.00    +0.021 A 
ATOM     25  C   UNL     1      -4.911   0.425  25.290  0.00  0.00    +0.002 A 
ATOM     26  C   UNL     1      -5.142   1.196  25.469  0.00  0.00    +0.000 A 
ATOM     27  C   UNL     1      -4.834   1.829  25.039  0.00  0.00    +0.000 A 
ATOM     28  C   UNL     1      -4.296   1.691  24.430  0.00  0.00    +0.000 A 
ATOM     29  C   UNL     1      -4.064   0.920  24.251  0.00  0.00    +0.002 A 
BRANCH  27  30
ATOM     30  C   UNL     1      -5.065   2.600  25.219  0.00  0.00    +0.000 A 
ATOM     31  C   UNL     1      -5.844   2.756  25.444  0.00  0.00    +0.000 A 
ATOM     32  C   UNL     1      -6.075   3.528  25.623  0.00  0.00    +0.000 A 
ATOM     33  C   UNL     1      -5.528   4.144  25.578  0.00  0.00    +0.000 A 
ATOM     34  C   UNL     1      -4.750   3.988  25.352  0.00  0.00    +0.000 A 
ATOM     35  C   UNL     1      -4.518   3.217  25.173  0.00  0.00    +0.000 A 
ENDBRANCH  27  30
ENDBRANCH  21  24
ENDBRANCH  18  19
TORSDOF 6
ENDMDL
MODEL 8
REMARK VINA RESULT:      -9.4      4.665      6.272
REMARK  Name = 
REMARK  6 active torsions:
REMARK  status: ('A' for Active; 'I' for Inactive)
REMARK    1  A    between atoms: C_2  and  C_10
REMARK    2  A    between atoms: N_3  and  C_4
REMARK    3  A    between atoms: C_17  and  C_18
REMARK    4  A    between atoms: C_18  and  N_19
REMARK    5  A    between atoms: C_21  and  C_24
REMARK    6  A    between atoms: C_27  and  C_30
REMARK                            x       y       z     vdW  Elec       q    Type
REMARK                         _______ _______ _______ _____ _____    ______ ____
ROOT
ATOM     18  C   UNL     1       0.105  -0.344  23.103  0.00  0.00    +0.145 C 
ENDROOT
BRANCH  18  17
ATOM     10  C   UNL     1       2.431   0.107  23.074  0.00  0.00    +0.095 C 
ATOM     11  C   UNL     1       2.205  -0.632  22.983  0.00  0.00    +0.081 C 
ATOM     12  N   UNL     1       1.710   0.020  23.090  0.00  0.00    -0.272 NA
ATOM     13  C   UNL     1       2.325   0.864  23.181  0.00  0.00    +0.072 C 
ATOM     14  C   UNL     1       2.397   1.508  23.265  0.00  0.00    +0.018 C 
ATOM     15  C   UNL     1       1.939   0.742  23.179  0.00  0.00    +0.013 C 
ATOM     16  C   UNL     1       1.065   0.808  23.221  0.00  0.00    +0.019 C 
ATOM     17  C   UNL     1       0.801   0.096  23.135  0.00  0.00    +0.082 C 
BRANCH  10   2
ATOM      1  O   UNL     1       3.533   0.930  22.683  0.00  0.00    -0.273 OA
ATOM      2  C   UNL     1       3.243   0.258  23.063  0.00  0.00    +0.246 C 
ATOM      3  N   UNL     1       3.764  -0.264  23.433  0.00  0.00    -0.179 NA
BRANCH   3   4
ATOM      4  C   UNL     1       4.575  -0.114  23.422  0.00  0.00    +0.073 A 
ATOM      5  C   UNL     1       4.956   0.145  24.106  0.00  0.00    +0.017 A 
ATOM      6  C   UNL     1       5.767   0.295  24.095  0.00  0.00    +0.001 A 
ATOM      7  C   UNL     1       6.198   0.187  23.400  0.00  0.00    +0.000 A 
ATOM      8  C   UNL     1       5.816  -0.072  22.715  0.00  0.00    +0.001 A 
ATOM      9  C   UNL     1       5.005  -0.222  22.726  0.00  0.00    +0.017 A 
ENDBRANCH   3   4
ENDBRANCH  10   2
ENDBRANCH  18  17
BRANCH  18  19
ATOM     19  N   UNL     1      -0.481  -0.232  23.672  0.00  0.00    -0.229 N 
ATOM     20  C   UNL     1      -1.140   0.259  23.599  0.00  0.00    +0.118 A 
ATOM     21  C   UNL     1      -1.578   0.203  24.297  0.00  0.00    +0.123 A 
ATOM     22  N   UNL     1      -1.189  -0.324  24.799  0.00  0.00    -0.129 NA
ATOM     23  N   UNL     1      -0.512  -0.592  24.413  0.00  0.00    -0.064 NA
BRANCH  21  24
ATOM     24  C   UNL     1      -2.280   0.602  24.462  0.00  0.00    +0.021 A 
ATOM     25  C   UNL     1      -3.007   0.244  24.301  0.00  0.00    +0.002 A 
ATOM     26  C   UNL     1      -3.709   0.643  24.466  0.00  0.00    +0.000 A 
ATOM     27  C   UNL     1      -3.685   1.401  24.792  0.00  0.00    +0.000 A 
ATOM     28  C   UNL     1      -2.960   1.759  24.952  0.00  0.00    +0.000 A 
ATOM     29  C   UNL     1      -2.258   1.360  24.787  0.00  0.00    +0.002 A 
BRANCH  27  30
ATOM     30  C   UNL     1      -4.388   1.801  24.957  0.00  0.00    +0.000 A 
ATOM     31  C   UNL     1      -5.106   1.393  24.949  0.00  0.00    +0.000 A 
ATOM     32  C   UNL     1      -5.809   1.794  25.115  0.00  0.00    +0.000 A 
ATOM     33  C   UNL     1      -5.794   2.600  25.287  0.00  0.00    +0.000 A 
ATOM     34  C   UNL     1      -5.076   3.007  25.294  0.00  0.00    +0.000 A 
ATOM     35  C   UNL     1      -4.374   2.608  25.129  0.00  0.00    +0.000 A 
ENDBRANCH  27  30
ENDBRANCH  21  24
ENDBRANCH  18  19
TORSDOF 6
ENDMDL
MODEL 9
REMARK VINA RESULT:      -9.1      2.311      6.218
REMARK  Name = 
REMARK  6 active torsions:
REMARK  status: ('A' for Active; 'I' for Inactive)
REMARK    1  A    between atoms: C_2  and  C_10
REMARK    2  A    between atoms: N_3  and  C_4
REMARK    3  A    between atoms: C_17  and  C_18
REMARK    4  A    between atoms: C_18  and  N_19
REMARK    5  A    between atoms: C_21  and  C_24
REMARK    6  A    between atoms: C_27  and  C_30
REMARK                            x       y       z     vdW  Elec       q    Type
REMARK                         _______ _______ _______ _____ _____    ______ ____
ROOT
ATOM     18  C   UNL     1       0.038   1.686  25.090  0.00  0.00    +0.145 C 
ENDROOT
BRANCH  18  17
ATOM     10  C   UNL     1      -1.111  -0.370  24.834  0.00  0.00    +0.095 C 
ATOM     11  C   UNL     1      -1.309   0.083  25.435  0.00  0.00    +0.081 C 
ATOM     12  N   UNL     1      -0.731   0.249  24.870  0.00  0.00    -0.272 NA
ATOM     13  C   UNL     1      -0.712  -0.558  24.201  0.00  0.00    +0.072 C 
ATOM     14  C   UNL     1      -0.467  -0.851  23.671  0.00  0.00    +0.018 C 
ATOM     15  C   UNL     1      -0.543  -0.200  24.283  0.00  0.00    +0.013 C 
ATOM     16  C   UNL     1      -0.006   0.487  24.184  0.00  0.00    +0.019 C 
ATOM     17  C   UNL     1      -0.170   0.960  24.761  0.00  0.00    +0.082 C 
BRANCH  10   2
ATOM      1  O   UNL     1      -1.103  -1.771  24.550  0.00  0.00    -0.273 OA
ATOM      2  C   UNL     1      -1.516  -1.085  24.751  0.00  0.00    +0.246 C 
ATOM      3  N   UNL     1      -2.331  -1.114  24.868  0.00  0.00    -0.179 NA
BRANCH   3   4
ATOM      4  C   UNL     1      -2.735  -1.828  24.785  0.00  0.00    +0.073 A 
ATOM      5  C   UNL     1      -3.205  -1.961  24.121  0.00  0.00    +0.017 A 
ATOM      6  C   UNL     1      -3.609  -2.676  24.037  0.00  0.00    +0.001 A 
ATOM      7  C   UNL     1      -3.543  -3.258  24.618  0.00  0.00    +0.000 A 
ATOM      8  C   UNL     1      -3.073  -3.124  25.283  0.00  0.00    +0.001 A 
ATOM      9  C   UNL     1      -2.669  -2.410  25.366  0.00  0.00    +0.017 A 
ENDBRANCH   3   4
ENDBRANCH  10   2
ENDBRANCH  18  17
BRANCH  18  19
ATOM     19  N   UNL     1      -0.480   2.326  25.041  0.00  0.00    -0.229 N 
ATOM     20  C   UNL     1      -1.292   2.304  25.188  0.00  0.00    +0.118 A 
ATOM     21  C   UNL     1      -1.592   3.065  25.074  0.00  0.00    +0.123 A 
ATOM     22  N   UNL     1      -0.965   3.556  24.858  0.00  0.00    -0.129 NA
ATOM     23  N   UNL     1      -0.279   3.099  24.837  0.00  0.00    -0.064 NA
BRANCH  21  24
ATOM     24  C   UNL     1      -2.379   3.294  25.162  0.00  0.00    +0.021 A 
ATOM     25  C   UNL     1      -2.914   3.176  24.544  0.00  0.00    +0.002 A 
ATOM     26  C   UNL     1      -3.702   3.405  24.632  0.00  0.00    +0.000 A 
ATOM     27  C   UNL     1      -3.954   3.751  25.337  0.00  0.00    +0.000 A 
ATOM     28  C   UNL     1      -3.420   3.868  25.954  0.00  0.00    +0.000 A 
ATOM     29  C   UNL     1      -2.632   3.640  25.866  0.00  0.00    +0.002 A 
BRANCH  27  30
ATOM     30  C   UNL     1      -4.742   3.980  25.425  0.00  0.00    +0.000 A 
ATOM     31  C   UNL     1      -5.320   3.415  25.594  0.00  0.00    +0.000 A 
ATOM     32  C   UNL     1      -6.108   3.644  25.681  0.00  0.00    +0.000 A 
ATOM     33  C   UNL     1      -6.319   4.437  25.600  0.00  0.00    +0.000 A 
ATOM     34  C   UNL     1      -5.741   5.002  25.432  0.00  0.00    +0.000 A 
ATOM     35  C   UNL     1      -4.953   4.774  25.344  0.00  0.00    +0.000 A 
ENDBRANCH  27  30
ENDBRANCH  21  24
ENDBRANCH  18  19
TORSDOF 6
ENDMDL
