MODEL 1
REMARK VINA RESULT:     -10.5      0.000      0.000
REMARK  Name = 
REMARK  5 active torsions:
REMARK  status: ('A' for Active; 'I' for Inactive)
REMARK    1  A    between atoms: O_2  and  C_3
REMARK    2  A    between atoms: C_6  and  C_9
REMARK    3  A    between atoms: C_15  and  C_18
REMARK    4  A    between atoms: C_21  and  C_23
REMARK    5  A    between atoms: N_27  and  C_28
REMARK                            x       y       z     vdW  Elec       q    Type
REMARK                         _______ _______ _______ _____ _____    ______ ____
ROOT
ATOM      9  C   UNL     1       1.769   0.398  23.057  0.00  0.00    +0.270 C 
ATOM     10  O   UNL     1       1.317  -0.101  22.581  0.00  0.00    -0.268 OA
ATOM     11  N   UNL     1       1.397   0.936  23.561  0.00  0.00    -0.157 NA
ATOM     12  C   UNL     1       0.573   0.975  23.587  0.00  0.00    +0.155 A 
ATOM     13  N   UNL     1       0.202   1.513  24.090  0.00  0.00    -0.227 NA
ATOM     14  C   UNL     1      -0.622   1.551  24.117  0.00  0.00    +0.103 A 
ATOM     15  C   UNL     1      -1.074   1.052  23.640  0.00  0.00    +0.058 A 
ATOM     16  C   UNL     1      -0.702   0.514  23.137  0.00  0.00    +0.008 A 
ATOM     17  C   UNL     1       0.122   0.475  23.110  0.00  0.00    +0.036 A 
ENDROOT
BRANCH   9   6
ATOM      3  C   UNL     1       4.240   0.282  22.977  0.00  0.00    +0.139 A 
ATOM      4  C   UNL     1       3.802  -0.386  23.183  0.00  0.00    +0.037 A 
ATOM      5  C   UNL     1       2.978  -0.348  23.210  0.00  0.00    +0.008 A 
ATOM      6  C   UNL     1       2.593   0.360  23.030  0.00  0.00    +0.056 A 
ATOM      7  C   UNL     1       3.030   1.027  22.825  0.00  0.00    +0.008 A 
ATOM      8  C   UNL     1       3.854   0.989  22.798  0.00  0.00    +0.037 A 
BRANCH   3   2
ATOM      1  C   UNL     1       5.496   0.174  23.649  0.00  0.00    +0.252 C 
ATOM      2  O   UNL     1       5.064   0.244  22.950  0.00  0.00    -0.471 OA
ENDBRANCH   3   2
ENDBRANCH   9   6
BRANCH  15  18
ATOM     18  C   UNL     1      -1.898   1.091  23.667  0.00  0.00    +0.205 A 
ATOM     19  N   UNL     1      -2.404   1.112  23.016  0.00  0.00    -0.056 NA
ATOM     20  O   UNL     1      -3.178   1.149  23.295  0.00  0.00    -0.336 OA
ATOM     21  C   UNL     1      -3.151   1.151  24.121  0.00  0.00    +0.251 A 
ATOM     22  N   UNL     1      -2.360   1.115  24.349  0.00  0.00    -0.190 NA
BRANCH  21  23
ATOM     23  C   UNL     1      -3.803   1.183  24.626  0.00  0.00    +0.138 C 
ATOM     24  C   UNL     1      -4.162   1.868  24.912  0.00  0.00    +0.027 C 
ATOM     25  C   UNL     1      -4.790   1.643  25.397  0.00  0.00    +0.019 C 
ATOM     26  C   UNL     1      -4.819   0.818  25.410  0.00  0.00    +0.072 C 
ATOM     27  N   UNL     1      -4.209   0.534  24.935  0.00  0.00    -0.268 NA
BRANCH  27  28
ATOM     28  C   UNL     1      -4.035  -0.260  24.791  0.00  0.00    +0.058 C 
ATOM     29  C   UNL     1      -3.553  -0.676  25.316  0.00  0.00    +0.016 C 
ATOM     30  C   UNL     1      -3.378  -1.470  25.173  0.00  0.00    +0.001 C 
ATOM     31  C   UNL     1      -3.684  -1.847  24.505  0.00  0.00    +0.000 C 
ATOM     32  C   UNL     1      -4.165  -1.429  23.981  0.00  0.00    +0.001 C 
ATOM     33  C   UNL     1      -4.340  -0.636  24.124  0.00  0.00    +0.016 C 
ENDBRANCH  27  28
ENDBRANCH  21  23
ENDBRANCH  15  18
TORSDOF 5
ENDMDL
MODEL 2
REMARK VINA RESULT:      -9.6      0.760      1.984
REMARK  Name = 
REMARK  5 active torsions:
REMARK  status: ('A' for Active; 'I' for Inactive)
REMARK    1  A    between atoms: O_2  and  C_3
REMARK    2  A    between atoms: C_6  and  C_9
REMARK    3  A    between atoms: C_15  and  C_18
REMARK    4  A    between atoms: C_21  and  C_23
REMARK    5  A    between atoms: N_27  and  C_28
REMARK                            x       y       z     vdW  Elec       q    Type
REMARK                         _______ _______ _______ _____ _____    ______ ____
ROOT
ATOM      9  C   UNL     1       2.064   0.418  23.055  0.00  0.00    +0.270 C 
ATOM     10  O   UNL     1       1.611  -0.065  22.564  0.00  0.00    -0.268 OA
ATOM     11  N   UNL     1       1.693   0.957  23.559  0.00  0.00    -0.157 NA
ATOM     12  C   UNL     1       0.870   1.011  23.571  0.00  0.00    +0.155 A 
ATOM     13  N   UNL     1       0.500   1.549  24.074  0.00  0.00    -0.227 NA
ATOM     14  C   UNL     1      -0.323   1.604  24.087  0.00  0.00    +0.103 A 
ATOM     15  C   UNL     1      -0.776   1.120  23.596  0.00  0.00    +0.058 A 
ATOM     16  C   UNL     1      -0.405   0.581  23.092  0.00  0.00    +0.008 A 
ATOM     17  C   UNL     1       0.418   0.527  23.079  0.00  0.00    +0.036 A 
ENDROOT
BRANCH   9   6
ATOM      3  C   UNL     1       4.533   0.255  23.018  0.00  0.00    +0.139 A 
ATOM      4  C   UNL     1       4.162   0.953  22.781  0.00  0.00    +0.037 A 
ATOM      5  C   UNL     1       3.339   1.008  22.793  0.00  0.00    +0.008 A 
ATOM      6  C   UNL     1       2.887   0.364  23.042  0.00  0.00    +0.056 A 
ATOM      7  C   UNL     1       3.258  -0.334  23.279  0.00  0.00    +0.008 A 
ATOM      8  C   UNL     1       4.081  -0.388  23.267  0.00  0.00    +0.037 A 
BRANCH   3   2
ATOM      1  C   UNL     1       5.769   0.037  23.700  0.00  0.00    +0.252 C 
ATOM      2  O   UNL     1       5.356   0.201  23.005  0.00  0.00    -0.471 OA
ENDBRANCH   3   2
ENDBRANCH   9   6
BRANCH  15  18
ATOM     18  C   UNL     1      -1.599   1.174  23.608  0.00  0.00    +0.205 A 
ATOM     19  N   UNL     1      -2.074   1.476  23.005  0.00  0.00    -0.056 NA
ATOM     20  O   UNL     1      -2.860   1.425  23.249  0.00  0.00    -0.336 OA
ATOM     21  C   UNL     1      -2.871   1.091  24.004  0.00  0.00    +0.251 A 
ATOM     22  N   UNL     1      -2.092   0.936  24.225  0.00  0.00    -0.190 NA
BRANCH  21  23
ATOM     23  C   UNL     1      -3.544   0.939  24.457  0.00  0.00    +0.138 C 
ATOM     24  C   UNL     1      -3.870   0.197  24.607  0.00  0.00    +0.027 C 
ATOM     25  C   UNL     1      -4.537   0.303  25.082  0.00  0.00    +0.019 C 
ATOM     26  C   UNL     1      -4.621   1.111  25.225  0.00  0.00    +0.072 C 
ATOM     27  N   UNL     1      -4.008   1.504  24.840  0.00  0.00    -0.268 NA
BRANCH  27  28
ATOM     28  C   UNL     1      -3.880   2.319  24.836  0.00  0.00    +0.058 C 
ATOM     29  C   UNL     1      -3.428   2.667  25.433  0.00  0.00    +0.016 C 
ATOM     30  C   UNL     1      -3.299   3.483  25.430  0.00  0.00    +0.001 C 
ATOM     31  C   UNL     1      -3.622   3.949  24.830  0.00  0.00    +0.000 C 
ATOM     32  C   UNL     1      -4.073   3.601  24.234  0.00  0.00    +0.001 C 
ATOM     33  C   UNL     1      -4.201   2.785  24.237  0.00  0.00    +0.016 C 
ENDBRANCH  27  28
ENDBRANCH  21  23
ENDBRANCH  15  18
TORSDOF 5
ENDMDL
MODEL 3
REMARK VINA RESULT:      -7.4     14.479     16.450
REMARK  Name = 
REMARK  5 active torsions:
REMARK  status: ('A' for Active; 'I' for Inactive)
REMARK    1  A    between atoms: O_2  and  C_3
REMARK    2  A    between atoms: C_6  and  C_9
REMARK    3  A    between atoms: C_15  and  C_18
REMARK    4  A    between atoms: C_21  and  C_23
REMARK    5  A    between atoms: N_27  and  C_28
REMARK                            x       y       z     vdW  Elec       q    Type
REMARK                         _______ _______ _______ _____ _____    ______ ____
ROOT
ATOM      9  C   UNL     1      -5.456 -10.478  15.782  0.00  0.00    +0.270 C 
ATOM     10  O   UNL     1      -4.809 -10.741  15.343  0.00  0.00    -0.268 OA
ATOM     11  N   UNL     1      -6.119 -10.172  15.396  0.00  0.00    -0.157 NA
ATOM     12  C   UNL     1      -6.134 -10.130  14.572  0.00  0.00    +0.155 A 
ATOM     13  N   UNL     1      -6.796  -9.825  14.188  0.00  0.00    -0.227 NA
ATOM     14  C   UNL     1      -6.811  -9.782  13.364  0.00  0.00    +0.103 A 
ATOM     15  C   UNL     1      -6.164 -10.045  12.925  0.00  0.00    +0.058 A 
ATOM     16  C   UNL     1      -5.501 -10.351  13.311  0.00  0.00    +0.008 A 
ATOM     17  C   UNL     1      -5.486 -10.393  14.134  0.00  0.00    +0.036 A 
ENDROOT
BRANCH   9   6
ATOM      3  C   UNL     1      -5.411 -10.606  18.253  0.00  0.00    +0.139 A 
ATOM      4  C   UNL     1      -6.119 -10.725  17.846  0.00  0.00    +0.037 A 
ATOM      5  C   UNL     1      -6.134 -10.683  17.023  0.00  0.00    +0.008 A 
ATOM      6  C   UNL     1      -5.441 -10.521  16.606  0.00  0.00    +0.056 A 
ATOM      7  C   UNL     1      -4.733 -10.402  17.011  0.00  0.00    +0.008 A 
ATOM      8  C   UNL     1      -4.718 -10.444  17.835  0.00  0.00    +0.037 A 
BRANCH   3   2
ATOM      1  C   UNL     1      -6.095 -10.568  19.506  0.00  0.00    +0.252 C 
ATOM      2  O   UNL     1      -5.396 -10.648  19.077  0.00  0.00    -0.471 OA
ENDBRANCH   3   2
ENDBRANCH   9   6
BRANCH  15  18
ATOM     18  C   UNL     1      -6.179 -10.002  12.101  0.00  0.00    +0.205 A 
ATOM     19  N   UNL     1      -6.204 -10.643  11.583  0.00  0.00    -0.056 NA
ATOM     20  O   UNL     1      -6.212 -10.349  10.813  0.00  0.00    -0.336 OA
ATOM     21  C   UNL     1      -6.192  -9.525  10.855  0.00  0.00    +0.251 A 
ATOM     22  N   UNL     1      -6.172  -9.311  11.651  0.00  0.00    -0.190 NA
BRANCH  21  23
ATOM     23  C   UNL     1      -6.193  -9.007  10.213  0.00  0.00    +0.138 C 
ATOM     24  C   UNL     1      -6.849  -8.611   9.910  0.00  0.00    +0.027 C 
ATOM     25  C   UNL     1      -6.597  -8.153   9.270  0.00  0.00    +0.019 C 
ATOM     26  C   UNL     1      -5.786  -8.268   9.179  0.00  0.00    +0.072 C 
ATOM     27  N   UNL     1      -5.535  -8.795   9.761  0.00  0.00    -0.268 NA
BRANCH  27  28
ATOM     28  C   UNL     1      -4.763  -9.064   9.873  0.00  0.00    +0.058 C 
ATOM     29  C   UNL     1      -4.516  -9.765   9.513  0.00  0.00    +0.016 C 
ATOM     30  C   UNL     1      -3.744 -10.036   9.625  0.00  0.00    +0.001 C 
ATOM     31  C   UNL     1      -3.220  -9.605  10.096  0.00  0.00    +0.000 C 
ATOM     32  C   UNL     1      -3.468  -8.905  10.455  0.00  0.00    +0.001 C 
ATOM     33  C   UNL     1      -4.240  -8.635  10.343  0.00  0.00    +0.016 C 
ENDBRANCH  27  28
ENDBRANCH  21  23
ENDBRANCH  15  18
TORSDOF 5
ENDMDL
MODEL 4
REMARK VINA RESULT:      -7.0     14.054     16.192
REMARK  Name = 
REMARK  5 active torsions:
REMARK  status: ('A' for Active; 'I' for Inactive)
REMARK    1  A    between atoms: O_2  and  C_3
REMARK    2  A    between atoms: C_6  and  C_9
REMARK    3  A    between atoms: C_15  and  C_18
REMARK    4  A    between atoms: C_21  and  C_23
REMARK    5  A    between atoms: N_27  and  C_28
REMARK                            x       y       z     vdW  Elec       q    Type
REMARK                         _______ _______ _______ _____ _____    ______ ____
ROOT
ATOM      9  C   UNL     1      -6.054 -10.354  16.328  0.00  0.00    +0.270 C 
ATOM     10  O   UNL     1      -6.665 -10.236  15.786  0.00  0.00    -0.268 OA
ATOM     11  N   UNL     1      -5.279 -10.453  16.062  0.00  0.00    -0.157 NA
ATOM     12  C   UNL     1      -5.116 -10.434  15.253  0.00  0.00    +0.155 A 
ATOM     13  N   UNL     1      -4.342 -10.533  14.987  0.00  0.00    -0.227 NA
ATOM     14  C   UNL     1      -4.178 -10.514  14.179  0.00  0.00    +0.103 A 
ATOM     15  C   UNL     1      -4.788 -10.397  13.637  0.00  0.00    +0.058 A 
ATOM     16  C   UNL     1      -5.563 -10.298  13.903  0.00  0.00    +0.008 A 
ATOM     17  C   UNL     1      -5.727 -10.316  14.712  0.00  0.00    +0.036 A 
ENDROOT
BRANCH   9   6
ATOM      3  C   UNL     1      -6.546 -10.410  18.754  0.00  0.00    +0.139 A 
ATOM      4  C   UNL     1      -5.852 -10.752  18.465  0.00  0.00    +0.037 A 
ATOM      5  C   UNL     1      -5.688 -10.734  17.656  0.00  0.00    +0.008 A 
ATOM      6  C   UNL     1      -6.218 -10.372  17.137  0.00  0.00    +0.056 A 
ATOM      7  C   UNL     1      -6.911 -10.030  17.425  0.00  0.00    +0.008 A 
ATOM      8  C   UNL     1      -7.074 -10.049  18.233  0.00  0.00    +0.037 A 
BRANCH   3   2
ATOM      1  C   UNL     1      -6.152 -10.731  20.088  0.00  0.00    +0.252 C 
ATOM      2  O   UNL     1      -6.709 -10.428  19.562  0.00  0.00    -0.471 OA
ENDBRANCH   3   2
ENDBRANCH   9   6
BRANCH  15  18
ATOM     18  C   UNL     1      -4.625 -10.378  12.828  0.00  0.00    +0.205 A 
ATOM     19  N   UNL     1      -5.039 -10.781  12.240  0.00  0.00    -0.056 NA
ATOM     20  O   UNL     1      -4.689 -10.605  11.515  0.00  0.00    -0.336 OA
ATOM     21  C   UNL     1      -4.056 -10.093  11.655  0.00  0.00    +0.251 A 
ATOM     22  N   UNL     1      -4.017  -9.954  12.466  0.00  0.00    -0.190 NA
BRANCH  21  23
ATOM     23  C   UNL     1      -3.553  -9.778  11.082  0.00  0.00    +0.138 C 
ATOM     24  C   UNL     1      -2.748  -9.938  11.003  0.00  0.00    +0.027 C 
ATOM     25  C   UNL     1      -2.465  -9.505  10.359  0.00  0.00    +0.019 C 
ATOM     26  C   UNL     1      -3.095  -9.079  10.042  0.00  0.00    +0.072 C 
ATOM     27  N   UNL     1      -3.768  -9.247  10.487  0.00  0.00    -0.268 NA
BRANCH  27  28
ATOM     28  C   UNL     1      -4.523  -8.939  10.363  0.00  0.00    +0.058 C 
ATOM     29  C   UNL     1      -5.047  -9.327   9.857  0.00  0.00    +0.016 C 
ATOM     30  C   UNL     1      -5.803  -9.020   9.732  0.00  0.00    +0.001 C 
ATOM     31  C   UNL     1      -6.034  -8.325  10.113  0.00  0.00    +0.000 C 
ATOM     32  C   UNL     1      -5.511  -7.938  10.618  0.00  0.00    +0.001 C 
ATOM     33  C   UNL     1      -4.755  -8.246  10.743  0.00  0.00    +0.016 C 
ENDBRANCH  27  28
ENDBRANCH  21  23
ENDBRANCH  15  18
TORSDOF 5
ENDMDL
MODEL 5
REMARK VINA RESULT:      -6.6     14.673     17.068
REMARK  Name = 
REMARK  5 active torsions:
REMARK  status: ('A' for Active; 'I' for Inactive)
REMARK    1  A    between atoms: O_2  and  C_3
REMARK    2  A    between atoms: C_6  and  C_9
REMARK    3  A    between atoms: C_15  and  C_18
REMARK    4  A    between atoms: C_21  and  C_23
REMARK    5  A    between atoms: N_27  and  C_28
REMARK                            x       y       z     vdW  Elec       q    Type
REMARK                         _______ _______ _______ _____ _____    ______ ____
ROOT
ATOM      9  C   UNL     1      -7.474  -9.916  15.346  0.00  0.00    +0.270 C 
ATOM     10  O   UNL     1      -6.673 -10.046  15.492  0.00  0.00    -0.268 OA
ATOM     11  N   UNL     1      -7.749  -9.868  14.569  0.00  0.00    -0.157 NA
ATOM     12  C   UNL     1      -7.223  -9.949  13.939  0.00  0.00    +0.155 A 
ATOM     13  N   UNL     1      -7.497  -9.900  13.163  0.00  0.00    -0.227 NA
ATOM     14  C   UNL     1      -6.971  -9.981  12.534  0.00  0.00    +0.103 A 
ATOM     15  C   UNL     1      -6.169 -10.111  12.679  0.00  0.00    +0.058 A 
ATOM     16  C   UNL     1      -5.894 -10.159  13.456  0.00  0.00    +0.008 A 
ATOM     17  C   UNL     1      -6.421 -10.078  14.086  0.00  0.00    +0.036 A 
ENDROOT
BRANCH   9   6
ATOM      3  C   UNL     1      -9.054  -9.673  17.236  0.00  0.00    +0.139 A 
ATOM      4  C   UNL     1      -9.167 -10.270  16.677  0.00  0.00    +0.037 A 
ATOM      5  C   UNL     1      -8.640 -10.351  16.047  0.00  0.00    +0.008 A 
ATOM      6  C   UNL     1      -8.001  -9.835  15.976  0.00  0.00    +0.056 A 
ATOM      7  C   UNL     1      -7.887  -9.238  16.533  0.00  0.00    +0.008 A 
ATOM      8  C   UNL     1      -8.414  -9.157  17.163  0.00  0.00    +0.037 A 
BRANCH   3   2
ATOM      1  C   UNL     1     -10.145  -8.991  17.856  0.00  0.00    +0.252 C 
ATOM      2  O   UNL     1      -9.581  -9.591  17.865  0.00  0.00    -0.471 OA
ENDBRANCH   3   2
ENDBRANCH   9   6
BRANCH  15  18
ATOM     18  C   UNL     1      -5.643 -10.192  12.049  0.00  0.00    +0.205 A 
ATOM     19  N   UNL     1      -5.664 -10.781  11.472  0.00  0.00    -0.056 NA
ATOM     20  O   UNL     1      -5.038 -10.652  10.952  0.00  0.00    -0.336 OA
ATOM     21  C   UNL     1      -4.628  -9.982  11.209  0.00  0.00    +0.251 A 
ATOM     22  N   UNL     1      -5.002  -9.699  11.886  0.00  0.00    -0.190 NA
BRANCH  21  23
ATOM     23  C   UNL     1      -3.961  -9.655  10.849  0.00  0.00    +0.138 C 
ATOM     24  C   UNL     1      -3.179  -9.772  11.080  0.00  0.00    +0.027 C 
ATOM     25  C   UNL     1      -2.695  -9.342  10.567  0.00  0.00    +0.019 C 
ATOM     26  C   UNL     1      -3.180  -8.960  10.020  0.00  0.00    +0.072 C 
ATOM     27  N   UNL     1      -3.962  -9.153  10.193  0.00  0.00    -0.268 NA
BRANCH  27  28
ATOM     28  C   UNL     1      -4.629  -8.891   9.784  0.00  0.00    +0.058 C 
ATOM     29  C   UNL     1      -5.006  -8.194  10.015  0.00  0.00    +0.016 C 
ATOM     30  C   UNL     1      -5.674  -7.932   9.607  0.00  0.00    +0.001 C 
ATOM     31  C   UNL     1      -5.964  -8.366   8.968  0.00  0.00    +0.000 C 
ATOM     32  C   UNL     1      -5.587  -9.063   8.738  0.00  0.00    +0.001 C 
ATOM     33  C   UNL     1      -4.919  -9.325   9.146  0.00  0.00    +0.016 C 
ENDBRANCH  27  28
ENDBRANCH  21  23
ENDBRANCH  15  18
TORSDOF 5
ENDMDL
