MODEL 1
REMARK VINA RESULT:      -8.1      0.000      0.000
REMARK  Name = 
REMARK  8 active torsions:
REMARK  status: ('A' for Active; 'I' for Inactive)
REMARK    1  A    between atoms: C_2  and  C_4
REMARK    2  A    between atoms: C_6  and  C_7
REMARK    3  A    between atoms: C_7  and  C_8
REMARK    4  A    between atoms: C_19  and  C_20
REMARK    5  A    between atoms: C_20  and  N_21
REMARK    6  A    between atoms: N_21  and  S_22
REMARK    7  A    between atoms: S_22  and  C_25
REMARK    8  A    between atoms: C_28  and  C_31
REMARK                            x       y       z     vdW  Elec       q    Type
REMARK                         _______ _______ _______ _____ _____    ______ ____
ROOT
ATOM      4  C   UNL     1      -1.503   0.920  24.739  0.00  0.00    +0.006 C 
ATOM      5  C   UNL     1      -2.291   1.153  24.803  0.00  0.00    +0.005 C 
ATOM      6  C   UNL     1      -2.683   1.465  24.147  0.00  0.00    +0.027 C 
ATOM     16  C   UNL     1      -2.287   1.542  23.428  0.00  0.00    -0.048 C 
ATOM     17  C   UNL     1      -2.679   1.854  22.772  0.00  0.00    +0.026 C 
ATOM     18  C   UNL     1      -1.499   1.308  23.365  0.00  0.00    -0.033 C 
ATOM     19  C   UNL     1      -1.107   0.997  24.020  0.00  0.00    +0.041 C 
ENDROOT
BRANCH   4   2
ATOM      1  C   UNL     1      -0.655   1.100  25.875  0.00  0.00    +0.000 C 
ATOM      2  C   UNL     1      -1.111   0.608  25.395  0.00  0.00    +0.000 C 
ATOM      3  C   UNL     1      -1.174  -0.195  25.571  0.00  0.00    +0.000 C 
ENDBRANCH   4   2
BRANCH   6   7
ATOM      7  C   UNL     1      -3.472   1.699  24.210  0.00  0.00    +0.089 C 
BRANCH   7   8
ATOM      8  C   UNL     1      -3.680   2.316  24.716  0.00  0.00    +0.226 C 
ATOM      9  O   UNL     1      -3.119   2.884  24.928  0.00  0.00    -0.275 OA
ATOM     10  N   UNL     1      -4.449   2.367  25.011  0.00  0.00    -0.274 N 
ATOM     11  C   UNL     1      -5.010   1.800  24.800  0.00  0.00    +0.125 C 
ATOM     12  C   UNL     1      -5.779   1.851  25.095  0.00  0.00    +0.164 C 
ATOM     13  O   UNL     1      -5.987   2.469  25.601  0.00  0.00    -0.350 OA
ATOM     14  C   UNL     1      -5.426   3.035  25.812  0.00  0.00    +0.164 C 
ATOM     15  C   UNL     1      -4.657   2.985  25.517  0.00  0.00    +0.125 C 
ENDBRANCH   7   8
ENDBRANCH   6   7
BRANCH  19  20
ATOM     20  C   UNL     1      -0.318   0.763  23.956  0.00  0.00    +0.120 C 
BRANCH  20  21
ATOM     21  N   UNL     1       0.026   0.667  23.212  0.00  0.00    -0.077 NA
BRANCH  21  22
ATOM     22  S   UNL     1       0.844   0.596  23.141  0.00  0.00    +0.077 S 
ATOM     23  O   UNL     1       0.754  -0.183  22.887  0.00  0.00    -0.152 OA
ATOM     24  O   UNL     1       0.933   1.375  23.396  0.00  0.00    -0.152 OA
BRANCH  22  25
ATOM     25  C   UNL     1       1.663   0.526  23.070  0.00  0.00    +0.124 A 
ATOM     26  C   UNL     1       2.150   1.166  23.255  0.00  0.00    +0.021 A 
ATOM     27  C   UNL     1       2.968   1.095  23.184  0.00  0.00    +0.012 A 
ATOM     28  C   UNL     1       3.301   0.384  22.928  0.00  0.00    +0.069 A 
ATOM     29  C   UNL     1       2.814  -0.256  22.744  0.00  0.00    +0.012 A 
ATOM     30  C   UNL     1       1.995  -0.186  22.815  0.00  0.00    +0.021 A 
BRANCH  28  31
ATOM     31  C   UNL     1       4.120   0.314  22.857  0.00  0.00    +0.100 C 
ATOM     32  N   UNL     1       4.938   0.244  22.787  0.00  0.00    -0.191 NA
ENDBRANCH  28  31
ENDBRANCH  22  25
ENDBRANCH  21  22
ENDBRANCH  20  21
ENDBRANCH  19  20
TORSDOF 8
ENDMDL
MODEL 2
REMARK VINA RESULT:      -7.2      1.526      6.467
REMARK  Name = 
REMARK  8 active torsions:
REMARK  status: ('A' for Active; 'I' for Inactive)
REMARK    1  A    between atoms: C_2  and  C_4
REMARK    2  A    between atoms: C_6  and  C_7
REMARK    3  A    between atoms: C_7  and  C_8
REMARK    4  A    between atoms: C_19  and  C_20
REMARK    5  A    between atoms: C_20  and  N_21
REMARK    6  A    between atoms: N_21  and  S_22
REMARK    7  A    between atoms: S_22  and  C_25
REMARK    8  A    between atoms: C_28  and  C_31
REMARK                            x       y       z     vdW  Elec       q    Type
REMARK                         _______ _______ _______ _____ _____    ______ ____
ROOT
ATOM      4  C   UNL     1       0.153   1.373  24.222  0.00  0.00    +0.006 C 
ATOM      5  C   UNL     1       0.911   1.117  24.021  0.00  0.00    +0.005 C 
ATOM      6  C   UNL     1       1.008   0.455  23.539  0.00  0.00    +0.027 C 
ATOM     16  C   UNL     1       0.348   0.048  23.257  0.00  0.00    -0.048 C 
ATOM     17  C   UNL     1       0.445  -0.614  22.775  0.00  0.00    +0.026 C 
ATOM     18  C   UNL     1      -0.410   0.305  23.459  0.00  0.00    -0.033 C 
ATOM     19  C   UNL     1      -0.507   0.967  23.941  0.00  0.00    +0.041 C 
ENDROOT
BRANCH   4   2
ATOM      1  C   UNL     1       0.053   1.951  25.525  0.00  0.00    +0.000 C 
ATOM      2  C   UNL     1       0.056   2.035  24.705  0.00  0.00    +0.000 C 
ATOM      3  C   UNL     1      -0.039   2.781  24.367  0.00  0.00    +0.000 C 
ENDBRANCH   4   2
BRANCH   6   7
ATOM      7  C   UNL     1       1.767   0.198  23.338  0.00  0.00    +0.089 C 
BRANCH   7   8
ATOM      8  C   UNL     1       2.333   0.743  23.087  0.00  0.00    +0.226 C 
ATOM      9  O   UNL     1       2.104   1.503  22.859  0.00  0.00    -0.275 OA
ATOM     10  N   UNL     1       3.130   0.530  23.063  0.00  0.00    -0.274 N 
ATOM     11  C   UNL     1       3.360  -0.230  23.291  0.00  0.00    +0.125 C 
ATOM     12  C   UNL     1       4.156  -0.444  23.268  0.00  0.00    +0.164 C 
ATOM     13  O   UNL     1       4.723   0.101  23.017  0.00  0.00    -0.350 OA
ATOM     14  C   UNL     1       4.493   0.859  22.789  0.00  0.00    +0.164 C 
ATOM     15  C   UNL     1       3.696   1.074  22.812  0.00  0.00    +0.125 C 
ENDBRANCH   7   8
ENDBRANCH   6   7
BRANCH  19  20
ATOM     20  C   UNL     1      -1.266   1.222  24.142  0.00  0.00    +0.120 C 
BRANCH  20  21
ATOM     21  N   UNL     1      -1.927   0.822  23.853  0.00  0.00    -0.077 NA
BRANCH  21  22
ATOM     22  S   UNL     1      -2.683   1.046  24.094  0.00  0.00    +0.077 S 
ATOM     23  O   UNL     1      -2.761   1.511  23.417  0.00  0.00    -0.152 OA
ATOM     24  O   UNL     1      -2.604   0.581  24.770  0.00  0.00    -0.152 OA
BRANCH  22  25
ATOM     25  C   UNL     1      -3.439   1.269  24.336  0.00  0.00    +0.124 A 
ATOM     26  C   UNL     1      -3.682   2.054  24.259  0.00  0.00    +0.021 A 
ATOM     27  C   UNL     1      -4.438   2.278  24.500  0.00  0.00    +0.012 A 
ATOM     28  C   UNL     1      -4.952   1.716  24.819  0.00  0.00    +0.069 A 
ATOM     29  C   UNL     1      -4.710   0.931  24.896  0.00  0.00    +0.012 A 
ATOM     30  C   UNL     1      -3.953   0.707  24.654  0.00  0.00    +0.021 A 
BRANCH  28  31
ATOM     31  C   UNL     1      -5.709   1.940  25.061  0.00  0.00    +0.100 C 
ATOM     32  N   UNL     1      -6.465   2.163  25.302  0.00  0.00    -0.191 NA
ENDBRANCH  28  31
ENDBRANCH  22  25
ENDBRANCH  21  22
ENDBRANCH  20  21
ENDBRANCH  19  20
TORSDOF 8
ENDMDL
