MODEL 1
REMARK VINA RESULT:     -10.5      0.000      0.000
REMARK  Name = 
REMARK  2 active torsions:
REMARK  status: ('A' for Active; 'I' for Inactive)
REMARK    1  A    between atoms: C_7  and  C_8
REMARK    2  A    between atoms: C_8  and  N_9
REMARK                            x       y       z     vdW  Elec       q    Type
REMARK                         _______ _______ _______ _____ _____    ______ ____
ROOT
ATOM      9  N   UNL     1      -3.862   0.445  24.998  0.00  0.00    -0.266 NA
ATOM     10  C   UNL     1      -4.538   0.885  24.826  0.00  0.00    +0.094 C 
ATOM     11  C   UNL     1      -4.473   1.602  24.424  0.00  0.00    +0.112 C 
ATOM     12  N   UNL     1      -3.731   1.881  24.195  0.00  0.00    -0.260 N 
ATOM     13  C   UNL     1      -3.054   1.441  24.367  0.00  0.00    +0.115 C 
ATOM     14  C   UNL     1      -2.402   1.852  24.074  0.00  0.00    +0.138 C 
ATOM     15  N   UNL     1      -2.675   2.545  23.720  0.00  0.00    -0.187 NA
ATOM     16  C   UNL     1      -3.496   2.563  23.796  0.00  0.00    +0.323 C 
ATOM     17  O   UNL     1      -3.996   3.159  23.519  0.00  0.00    -0.251 OA
ATOM     18  C   UNL     1      -3.120   0.723  24.768  0.00  0.00    +0.094 C 
ENDROOT
BRANCH   9   8
ATOM      8  C   UNL     1      -3.927  -0.273  25.399  0.00  0.00    +0.099 C 
BRANCH   8   7
ATOM      1  C   UNL     1      -3.154  -1.578  26.049  0.00  0.00    +0.031 C 
ATOM      2  C   UNL     1      -3.509  -1.636  25.307  0.00  0.00    -0.024 A 
ATOM      3  C   UNL     1      -3.478  -2.347  24.889  0.00  0.00    -0.005 A 
ATOM      4  C   UNL     1      -3.834  -2.405  24.146  0.00  0.00    -0.000 A 
ATOM      5  C   UNL     1      -4.220  -1.752  23.822  0.00  0.00    -0.000 A 
ATOM      6  C   UNL     1      -4.251  -1.042  24.240  0.00  0.00    -0.003 A 
ATOM      7  C   UNL     1      -3.896  -0.984  24.982  0.00  0.00    -0.010 A 
ENDBRANCH   8   7
ENDBRANCH   9   8
TORSDOF 2
ENDMDL
MODEL 2
REMARK VINA RESULT:     -10.5      1.108      1.902
REMARK  Name = 
REMARK  2 active torsions:
REMARK  status: ('A' for Active; 'I' for Inactive)
REMARK    1  A    between atoms: C_7  and  C_8
REMARK    2  A    between atoms: C_8  and  N_9
REMARK                            x       y       z     vdW  Elec       q    Type
REMARK                         _______ _______ _______ _____ _____    ______ ____
ROOT
ATOM      9  N   UNL     1      -4.128   0.681  24.483  0.00  0.00    -0.266 NA
ATOM     10  C   UNL     1      -3.528   1.247  24.497  0.00  0.00    +0.094 C 
ATOM     11  C   UNL     1      -3.677   1.997  24.804  0.00  0.00    +0.112 C 
ATOM     12  N   UNL     1      -4.426   2.183  25.098  0.00  0.00    -0.260 N 
ATOM     13  C   UNL     1      -5.025   1.617  25.084  0.00  0.00    +0.115 C 
ATOM     14  C   UNL     1      -5.703   1.955  25.409  0.00  0.00    +0.138 C 
ATOM     15  N   UNL     1      -5.523   2.731  25.624  0.00  0.00    -0.187 NA
ATOM     16  C   UNL     1      -4.733   2.871  25.431  0.00  0.00    +0.323 C 
ATOM     17  O   UNL     1      -4.323   3.577  25.551  0.00  0.00    -0.251 OA
ATOM     18  C   UNL     1      -4.877   0.865  24.777  0.00  0.00    +0.094 C 
ENDROOT
BRANCH   9   8
ATOM      8  C   UNL     1      -3.979  -0.071  24.176  0.00  0.00    +0.099 C 
BRANCH   8   7
ATOM      1  C   UNL     1      -4.273  -1.641  23.761  0.00  0.00    +0.031 C 
ATOM      2  C   UNL     1      -3.888  -1.467  24.468  0.00  0.00    -0.024 A 
ATOM      3  C   UNL     1      -3.650  -2.078  24.969  0.00  0.00    -0.005 A 
ATOM      4  C   UNL     1      -3.265  -1.904  25.678  0.00  0.00    -0.000 A 
ATOM      5  C   UNL     1      -3.118  -1.119  25.885  0.00  0.00    -0.000 A 
ATOM      6  C   UNL     1      -3.356  -0.508  25.385  0.00  0.00    -0.003 A 
ATOM      7  C   UNL     1      -3.741  -0.682  24.677  0.00  0.00    -0.010 A 
ENDBRANCH   8   7
ENDBRANCH   9   8
TORSDOF 2
ENDMDL
MODEL 3
REMARK VINA RESULT:      -9.6      2.163      2.572
REMARK  Name = 
REMARK  2 active torsions:
REMARK  status: ('A' for Active; 'I' for Inactive)
REMARK    1  A    between atoms: C_7  and  C_8
REMARK    2  A    between atoms: C_8  and  N_9
REMARK                            x       y       z     vdW  Elec       q    Type
REMARK                         _______ _______ _______ _____ _____    ______ ____
ROOT
ATOM      9  N   UNL     1      -1.710  -0.593  25.069  0.00  0.00    -0.266 NA
ATOM     10  C   UNL     1      -1.762   0.115  25.489  0.00  0.00    +0.094 C 
ATOM     11  C   UNL     1      -1.246   0.735  25.316  0.00  0.00    +0.112 C 
ATOM     12  N   UNL     1      -0.679   0.648  24.724  0.00  0.00    -0.260 N 
ATOM     13  C   UNL     1      -0.627  -0.060  24.304  0.00  0.00    +0.115 C 
ATOM     14  C   UNL     1      -0.017   0.013  23.754  0.00  0.00    +0.138 C 
ATOM     15  N   UNL     1       0.309   0.767  23.834  0.00  0.00    -0.187 NA
ATOM     16  C   UNL     1      -0.101   1.158  24.433  0.00  0.00    +0.323 C 
ATOM     17  O   UNL     1       0.043   1.927  24.696  0.00  0.00    -0.251 OA
ATOM     18  C   UNL     1      -1.143  -0.681  24.477  0.00  0.00    +0.094 C 
ENDROOT
BRANCH   9   8
ATOM      8  C   UNL     1      -2.226  -1.214  25.242  0.00  0.00    +0.099 C 
BRANCH   8   7
ATOM      1  C   UNL     1      -2.763  -2.702  24.772  0.00  0.00    +0.031 C 
ATOM      2  C   UNL     1      -3.207  -2.029  24.597  0.00  0.00    -0.024 A 
ATOM      3  C   UNL     1      -3.919  -2.100  24.187  0.00  0.00    -0.005 A 
ATOM      4  C   UNL     1      -4.363  -1.426  24.011  0.00  0.00    -0.000 A 
ATOM      5  C   UNL     1      -4.094  -0.683  24.246  0.00  0.00    -0.000 A 
ATOM      6  C   UNL     1      -3.382  -0.612  24.657  0.00  0.00    -0.003 A 
ATOM      7  C   UNL     1      -2.938  -1.285  24.832  0.00  0.00    -0.010 A 
ENDBRANCH   8   7
ENDBRANCH   9   8
TORSDOF 2
ENDMDL
MODEL 4
REMARK VINA RESULT:      -9.6      1.835      3.828
REMARK  Name = 
REMARK  2 active torsions:
REMARK  status: ('A' for Active; 'I' for Inactive)
REMARK    1  A    between atoms: C_7  and  C_8
REMARK    2  A    between atoms: C_8  and  N_9
REMARK                            x       y       z     vdW  Elec       q    Type
REMARK                         _______ _______ _______ _____ _____    ______ ____
ROOT
ATOM      9  N   UNL     1      -3.748   0.255  24.447  0.00  0.00    -0.266 NA
ATOM     10  C   UNL     1      -3.400   0.043  25.164  0.00  0.00    +0.094 C 
ATOM     11  C   UNL     1      -3.336  -0.752  25.373  0.00  0.00    +0.112 C 
ATOM     12  N   UNL     1      -3.621  -1.337  24.864  0.00  0.00    -0.260 N 
ATOM     13  C   UNL     1      -3.969  -1.125  24.147  0.00  0.00    +0.115 C 
ATOM     14  C   UNL     1      -4.198  -1.816  23.760  0.00  0.00    +0.138 C 
ATOM     15  N   UNL     1      -3.991  -2.456  24.239  0.00  0.00    -0.187 NA
ATOM     16  C   UNL     1      -3.635  -2.159  24.920  0.00  0.00    +0.323 C 
ATOM     17  O   UNL     1      -3.343  -2.606  25.549  0.00  0.00    -0.251 OA
ATOM     18  C   UNL     1      -4.032  -0.328  23.938  0.00  0.00    +0.094 C 
ENDROOT
BRANCH   9   8
ATOM      8  C   UNL     1      -3.812   1.051  24.238  0.00  0.00    +0.099 C 
BRANCH   8   7
ATOM      1  C   UNL     1      -3.677   2.695  24.180  0.00  0.00    +0.031 C 
ATOM      2  C   UNL     1      -4.321   2.347  24.559  0.00  0.00    -0.024 A 
ATOM      3  C   UNL     1      -4.898   2.821  24.910  0.00  0.00    -0.005 A 
ATOM      4  C   UNL     1      -5.543   2.472  25.290  0.00  0.00    -0.000 A 
ATOM      5  C   UNL     1      -5.610   1.651  25.319  0.00  0.00    -0.000 A 
ATOM      6  C   UNL     1      -5.033   1.177  24.968  0.00  0.00    -0.003 A 
ATOM      7  C   UNL     1      -4.389   1.525  24.589  0.00  0.00    -0.010 A 
ENDBRANCH   8   7
ENDBRANCH   9   8
TORSDOF 2
ENDMDL
MODEL 5
REMARK VINA RESULT:      -9.4      3.106      4.368
REMARK  Name = 
REMARK  2 active torsions:
REMARK  status: ('A' for Active; 'I' for Inactive)
REMARK    1  A    between atoms: C_7  and  C_8
REMARK    2  A    between atoms: C_8  and  N_9
REMARK                            x       y       z     vdW  Elec       q    Type
REMARK                         _______ _______ _______ _____ _____    ______ ____
ROOT
ATOM      9  N   UNL     1      -3.448   3.494  24.770  0.00  0.00    -0.266 NA
ATOM     10  C   UNL     1      -3.636   2.947  24.182  0.00  0.00    +0.094 C 
ATOM     11  C   UNL     1      -4.329   2.505  24.237  0.00  0.00    +0.112 C 
ATOM     12  N   UNL     1      -4.836   2.609  24.880  0.00  0.00    -0.260 N 
ATOM     13  C   UNL     1      -4.647   3.156  25.468  0.00  0.00    +0.115 C 
ATOM     14  C   UNL     1      -5.248   3.139  26.033  0.00  0.00    +0.138 C 
ATOM     15  N   UNL     1      -5.807   2.582  25.795  0.00  0.00    -0.187 NA
ATOM     16  C   UNL     1      -5.552   2.255  25.082  0.00  0.00    +0.323 C 
ATOM     17  O   UNL     1      -5.945   1.674  24.647  0.00  0.00    -0.251 OA
ATOM     18  C   UNL     1      -3.953   3.599  25.413  0.00  0.00    +0.094 C 
ENDROOT
BRANCH   9   8
ATOM      8  C   UNL     1      -2.753   3.937  24.715  0.00  0.00    +0.099 C 
BRANCH   8   7
ATOM      1  C   UNL     1      -1.532   4.970  25.119  0.00  0.00    +0.031 C 
ATOM      2  C   UNL     1      -1.439   4.159  25.229  0.00  0.00    -0.024 A 
ATOM      3  C   UNL     1      -0.734   3.863  25.541  0.00  0.00    -0.005 A 
ATOM      4  C   UNL     1      -0.641   3.050  25.651  0.00  0.00    -0.000 A 
ATOM      5  C   UNL     1      -1.252   2.534  25.448  0.00  0.00    -0.000 A 
ATOM      6  C   UNL     1      -1.956   2.830  25.136  0.00  0.00    -0.003 A 
ATOM      7  C   UNL     1      -2.049   3.642  25.027  0.00  0.00    -0.010 A 
ENDBRANCH   8   7
ENDBRANCH   9   8
TORSDOF 2
ENDMDL
