MODEL 1
REMARK VINA RESULT:     -10.8      0.000      0.000
REMARK  Name = 
REMARK  3 active torsions:
REMARK  status: ('A' for Active; 'I' for Inactive)
REMARK    1  A    between atoms: C_11  and  N_19
REMARK    2  A    between atoms: N_22  and  C_23
REMARK    3  A    between atoms: C_23  and  C_24
REMARK                            x       y       z     vdW  Elec       q    Type
REMARK                         _______ _______ _______ _____ _____    ______ ____
ROOT
ATOM      1 BR   UNL     1      -3.313  -3.255  24.895  0.00  0.00    -0.049 Br
ATOM      2  C   UNL     1      -3.409  -2.477  24.637  0.00  0.00    +0.035 A 
ATOM      3  C   UNL     1      -4.124  -2.240  24.301  0.00  0.00    +0.008 A 
ATOM      4  C   UNL     1      -4.220  -1.462  24.042  0.00  0.00    +0.017 A 
ATOM      5  C   UNL     1      -3.601  -0.922  24.121  0.00  0.00    +0.078 A 
ATOM      6  N   UNL     1      -3.810  -0.178  23.830  0.00  0.00    -0.178 NA
ATOM      7  C   UNL     1      -3.358   0.510  23.804  0.00  0.00    +0.264 C 
ATOM      8  O   UNL     1      -3.728   1.170  23.476  0.00  0.00    -0.271 OA
ATOM      9  C   UNL     1      -2.583   0.626  24.062  0.00  0.00    +0.156 C 
ATOM     10  C   UNL     1      -2.334   1.402  23.934  0.00  0.00    +0.051 C 
ATOM     11  C   UNL     1      -1.574   1.634  24.154  0.00  0.00    +0.101 C 
ATOM     12  C   UNL     1      -1.062   1.091  24.502  0.00  0.00    +0.043 C 
ATOM     13  C   UNL     1      -1.309   0.314  24.631  0.00  0.00    +0.096 C 
ATOM     14  N   UNL     1      -2.069   0.082  24.411  0.00  0.00    -0.269 N 
ATOM     15  C   UNL     1      -2.205  -0.713  24.587  0.00  0.00    +0.251 C 
ATOM     16  O   UNL     1      -1.575  -1.113  24.938  0.00  0.00    -0.270 OA
ATOM     17  C   UNL     1      -2.886  -1.160  24.458  0.00  0.00    +0.069 A 
ATOM     18  C   UNL     1      -2.791  -1.937  24.716  0.00  0.00    +0.013 A 
ENDROOT
BRANCH  11  19
ATOM     19  N   UNL     1      -1.327   2.411  24.025  0.00  0.00    -0.189 NA
ATOM     20  C   UNL     1      -1.351   2.960  24.640  0.00  0.00    +0.340 C 
ATOM     21  O   UNL     1      -1.622   2.732  25.385  0.00  0.00    -0.249 OA
ATOM     22  N   UNL     1      -1.104   3.736  24.511  0.00  0.00    -0.182 NA
BRANCH  22  23
ATOM     23  C   UNL     1      -1.128   4.285  25.126  0.00  0.00    +0.143 C 
BRANCH  23  24
ATOM     24  C   UNL     1      -0.900   5.067  24.992  0.00  0.00    -0.003 C 
ATOM     25  C   UNL     1      -1.451   5.675  25.068  0.00  0.00    -0.003 C 
ENDBRANCH  23  24
ENDBRANCH  22  23
ENDBRANCH  11  19
TORSDOF 3
ENDMDL
MODEL 2
REMARK VINA RESULT:     -10.6      2.160      5.203
REMARK  Name = 
REMARK  3 active torsions:
REMARK  status: ('A' for Active; 'I' for Inactive)
REMARK    1  A    between atoms: C_11  and  N_19
REMARK    2  A    between atoms: N_22  and  C_23
REMARK    3  A    between atoms: C_23  and  C_24
REMARK                            x       y       z     vdW  Elec       q    Type
REMARK                         _______ _______ _______ _____ _____    ______ ____
ROOT
ATOM      1 BR   UNL     1      -0.742   5.266  24.948  0.00  0.00    -0.049 Br
ATOM      2  C   UNL     1      -1.394   4.769  25.044  0.00  0.00    +0.035 A 
ATOM      3  C   UNL     1      -2.021   5.001  25.527  0.00  0.00    +0.008 A 
ATOM      4  C   UNL     1      -2.672   4.504  25.623  0.00  0.00    +0.017 A 
ATOM      5  C   UNL     1      -2.696   3.775  25.238  0.00  0.00    +0.078 A 
ATOM      6  N   UNL     1      -3.392   3.365  25.408  0.00  0.00    -0.178 NA
ATOM      7  C   UNL     1      -3.632   2.624  25.138  0.00  0.00    +0.264 C 
ATOM      8  O   UNL     1      -4.366   2.364  25.411  0.00  0.00    -0.271 OA
ATOM      9  C   UNL     1      -3.235   2.108  24.631  0.00  0.00    +0.156 C 
ATOM     10  C   UNL     1      -3.670   1.420  24.500  0.00  0.00    +0.051 C 
ATOM     11  C   UNL     1      -3.371   0.829  24.007  0.00  0.00    +0.101 C 
ATOM     12  C   UNL     1      -2.637   0.928  23.646  0.00  0.00    +0.043 C 
ATOM     13  C   UNL     1      -2.201   1.616  23.776  0.00  0.00    +0.096 C 
ATOM     14  N   UNL     1      -2.500   2.206  24.268  0.00  0.00    -0.269 N 
ATOM     15  C   UNL     1      -1.981   2.845  24.324  0.00  0.00    +0.251 C 
ATOM     16  O   UNL     1      -1.283   2.777  23.891  0.00  0.00    -0.270 OA
ATOM     17  C   UNL     1      -2.068   3.543  24.755  0.00  0.00    +0.069 A 
ATOM     18  C   UNL     1      -1.417   4.040  24.659  0.00  0.00    +0.013 A 
ENDROOT
BRANCH  11  19
ATOM     19  N   UNL     1      -3.807   0.141  23.877  0.00  0.00    -0.189 NA
ATOM     20  C   UNL     1      -3.556  -0.574  24.203  0.00  0.00    +0.340 C 
ATOM     21  O   UNL     1      -2.869  -0.601  24.659  0.00  0.00    -0.249 OA
ATOM     22  N   UNL     1      -3.992  -1.263  24.073  0.00  0.00    -0.182 NA
BRANCH  22  23
ATOM     23  C   UNL     1      -3.742  -1.977  24.398  0.00  0.00    +0.143 C 
BRANCH  23  24
ATOM     24  C   UNL     1      -4.059  -2.689  24.126  0.00  0.00    -0.003 C 
ATOM     25  C   UNL     1      -3.688  -3.402  24.307  0.00  0.00    -0.003 C 
ENDBRANCH  23  24
ENDBRANCH  22  23
ENDBRANCH  11  19
TORSDOF 3
ENDMDL
MODEL 3
REMARK VINA RESULT:     -10.0      2.561      3.803
REMARK  Name = 
REMARK  3 active torsions:
REMARK  status: ('A' for Active; 'I' for Inactive)
REMARK    1  A    between atoms: C_11  and  N_19
REMARK    2  A    between atoms: N_22  and  C_23
REMARK    3  A    between atoms: C_23  and  C_24
REMARK                            x       y       z     vdW  Elec       q    Type
REMARK                         _______ _______ _______ _____ _____    ______ ____
ROOT
ATOM      1 BR   UNL     1      -5.571   3.497  25.543  0.00  0.00    -0.049 Br
ATOM      2  C   UNL     1      -5.197   2.806  25.290  0.00  0.00    +0.035 A 
ATOM      3  C   UNL     1      -5.649   2.156  25.058  0.00  0.00    +0.008 A 
ATOM      4  C   UNL     1      -5.275   1.464  24.806  0.00  0.00    +0.017 A 
ATOM      5  C   UNL     1      -4.452   1.423  24.786  0.00  0.00    +0.078 A 
ATOM      6  N   UNL     1      -4.192   0.687  24.519  0.00  0.00    -0.178 NA
ATOM      7  C   UNL     1      -3.419   0.420  24.417  0.00  0.00    +0.264 C 
ATOM      8  O   UNL     1      -3.340  -0.352  24.138  0.00  0.00    -0.271 OA
ATOM      9  C   UNL     1      -2.713   0.823  24.559  0.00  0.00    +0.156 C 
ATOM     10  C   UNL     1      -2.057   0.353  24.385  0.00  0.00    +0.051 C 
ATOM     11  C   UNL     1      -1.295   0.653  24.489  0.00  0.00    +0.101 C 
ATOM     12  C   UNL     1      -1.189   1.422  24.766  0.00  0.00    +0.043 C 
ATOM     13  C   UNL     1      -1.844   1.893  24.940  0.00  0.00    +0.096 C 
ATOM     14  N   UNL     1      -2.606   1.593  24.837  0.00  0.00    -0.269 N 
ATOM     15  C   UNL     1      -3.180   2.150  25.041  0.00  0.00    +0.251 C 
ATOM     16  O   UNL     1      -2.894   2.877  25.303  0.00  0.00    -0.270 OA
ATOM     17  C   UNL     1      -4.001   2.074  25.019  0.00  0.00    +0.069 A 
ATOM     18  C   UNL     1      -4.374   2.765  25.271  0.00  0.00    +0.013 A 
ENDROOT
BRANCH  11  19
ATOM     19  N   UNL     1      -0.640   0.182  24.315  0.00  0.00    -0.189 NA
ATOM     20  C   UNL     1      -0.142   0.383  23.689  0.00  0.00    +0.340 C 
ATOM     21  O   UNL     1      -0.299   1.054  23.237  0.00  0.00    -0.249 OA
ATOM     22  N   UNL     1       0.513  -0.088  23.515  0.00  0.00    -0.182 NA
BRANCH  22  23
ATOM     23  C   UNL     1       1.011   0.112  22.890  0.00  0.00    +0.143 C 
BRANCH  23  24
ATOM     24  C   UNL     1       1.713  -0.304  22.770  0.00  0.00    -0.003 C 
ATOM     25  C   UNL     1       2.367   0.075  22.442  0.00  0.00    -0.003 C 
ENDBRANCH  23  24
ENDBRANCH  22  23
ENDBRANCH  11  19
TORSDOF 3
ENDMDL
MODEL 4
REMARK VINA RESULT:      -8.6      2.638      3.616
REMARK  Name = 
REMARK  3 active torsions:
REMARK  status: ('A' for Active; 'I' for Inactive)
REMARK    1  A    between atoms: C_11  and  N_19
REMARK    2  A    between atoms: N_22  and  C_23
REMARK    3  A    between atoms: C_23  and  C_24
REMARK                            x       y       z     vdW  Elec       q    Type
REMARK                         _______ _______ _______ _____ _____    ______ ____
ROOT
ATOM      1 BR   UNL     1      -4.675   0.874  25.095  0.00  0.00    -0.049 Br
ATOM      2  C   UNL     1      -3.986   0.420  25.069  0.00  0.00    +0.035 A 
ATOM      3  C   UNL     1      -3.941  -0.286  25.494  0.00  0.00    +0.008 A 
ATOM      4  C   UNL     1      -3.252  -0.739  25.468  0.00  0.00    +0.017 A 
ATOM      5  C   UNL     1      -2.609  -0.487  25.017  0.00  0.00    +0.078 A 
ATOM      6  N   UNL     1      -1.979  -1.017  25.066  0.00  0.00    -0.178 NA
ATOM      7  C   UNL     1      -1.240  -0.974  24.704  0.00  0.00    +0.264 C 
ATOM      8  O   UNL     1      -0.725  -1.598  24.864  0.00  0.00    -0.271 OA
ATOM      9  C   UNL     1      -0.947  -0.388  24.202  0.00  0.00    +0.156 C 
ATOM     10  C   UNL     1      -0.177  -0.556  23.958  0.00  0.00    +0.051 C 
ATOM     11  C   UNL     1       0.219  -0.039  23.452  0.00  0.00    +0.101 C 
ATOM     12  C   UNL     1      -0.156   0.647  23.190  0.00  0.00    +0.043 C 
ATOM     13  C   UNL     1      -0.926   0.816  23.432  0.00  0.00    +0.096 C 
ATOM     14  N   UNL     1      -1.322   0.299  23.938  0.00  0.00    -0.269 N 
ATOM     15  C   UNL     1      -2.082   0.568  24.112  0.00  0.00    +0.251 C 
ATOM     16  O   UNL     1      -2.297   1.282  23.760  0.00  0.00    -0.270 OA
ATOM     17  C   UNL     1      -2.654   0.219  24.592  0.00  0.00    +0.069 A 
ATOM     18  C   UNL     1      -3.343   0.672  24.618  0.00  0.00    +0.013 A 
ENDROOT
BRANCH  11  19
ATOM     19  N   UNL     1       0.989  -0.208  23.210  0.00  0.00    -0.189 NA
ATOM     20  C   UNL     1       1.567   0.379  23.232  0.00  0.00    +0.340 C 
ATOM     21  O   UNL     1       1.376   1.137  23.496  0.00  0.00    -0.249 OA
ATOM     22  N   UNL     1       2.338   0.210  22.989  0.00  0.00    -0.182 NA
BRANCH  22  23
ATOM     23  C   UNL     1       2.916   0.798  23.011  0.00  0.00    +0.143 C 
BRANCH  23  24
ATOM     24  C   UNL     1       3.613   0.707  22.579  0.00  0.00    -0.003 C 
ATOM     25  C   UNL     1       4.325   0.563  22.970  0.00  0.00    -0.003 C 
ENDBRANCH  23  24
ENDBRANCH  22  23
ENDBRANCH  11  19
TORSDOF 3
ENDMDL
MODEL 5
REMARK VINA RESULT:      -8.4      2.754      4.459
REMARK  Name = 
REMARK  3 active torsions:
REMARK  status: ('A' for Active; 'I' for Inactive)
REMARK    1  A    between atoms: C_11  and  N_19
REMARK    2  A    between atoms: N_22  and  C_23
REMARK    3  A    between atoms: C_23  and  C_24
REMARK                            x       y       z     vdW  Elec       q    Type
REMARK                         _______ _______ _______ _____ _____    ______ ____
ROOT
ATOM      1 BR   UNL     1      -5.499   4.457  25.613  0.00  0.00    -0.049 Br
ATOM      2  C   UNL     1      -5.360   3.654  25.482  0.00  0.00    +0.035 A 
ATOM      3  C   UNL     1      -5.981   3.114  25.540  0.00  0.00    +0.008 A 
ATOM      4  C   UNL     1      -5.841   2.311  25.409  0.00  0.00    +0.017 A 
ATOM      5  C   UNL     1      -5.082   2.049  25.220  0.00  0.00    +0.078 A 
ATOM      6  N   UNL     1      -5.063   1.231  25.112  0.00  0.00    -0.178 NA
ATOM      7  C   UNL     1      -4.420   0.753  24.919  0.00  0.00    +0.264 C 
ATOM      8  O   UNL     1      -4.582  -0.053  24.849  0.00  0.00    -0.271 OA
ATOM      9  C   UNL     1      -3.636   0.974  24.786  0.00  0.00    +0.156 C 
ATOM     10  C   UNL     1      -3.165   0.321  24.606  0.00  0.00    +0.051 C 
ATOM     11  C   UNL     1      -2.361   0.422  24.454  0.00  0.00    +0.101 C 
ATOM     12  C   UNL     1      -2.027   1.175  24.482  0.00  0.00    +0.043 C 
ATOM     13  C   UNL     1      -2.497   1.829  24.662  0.00  0.00    +0.096 C 
ATOM     14  N   UNL     1      -3.302   1.728  24.814  0.00  0.00    -0.269 N 
ATOM     15  C   UNL     1      -3.670   2.447  24.981  0.00  0.00    +0.251 C 
ATOM     16  O   UNL     1      -3.181   3.111  24.965  0.00  0.00    -0.270 OA
ATOM     17  C   UNL     1      -4.462   2.591  25.162  0.00  0.00    +0.069 A 
ATOM     18  C   UNL     1      -4.601   3.392  25.293  0.00  0.00    +0.013 A 
ENDROOT
BRANCH  11  19
ATOM     19  N   UNL     1      -1.890  -0.232  24.274  0.00  0.00    -0.189 NA
ATOM     20  C   UNL     1      -1.422  -0.577  24.858  0.00  0.00    +0.340 C 
ATOM     21  O   UNL     1      -1.423  -0.269  25.623  0.00  0.00    -0.249 OA
ATOM     22  N   UNL     1      -0.951  -1.231  24.678  0.00  0.00    -0.182 NA
BRANCH  22  23
ATOM     23  C   UNL     1      -0.483  -1.576  25.262  0.00  0.00    +0.143 C 
BRANCH  23  24
ATOM     24  C   UNL     1      -0.268  -2.370  25.204  0.00  0.00    -0.003 C 
ATOM     25  C   UNL     1       0.482  -2.614  25.444  0.00  0.00    -0.003 C 
ENDBRANCH  23  24
ENDBRANCH  22  23
ENDBRANCH  11  19
TORSDOF 3
ENDMDL
MODEL 6
REMARK VINA RESULT:      -8.3      2.205      2.523
REMARK  Name = 
REMARK  3 active torsions:
REMARK  status: ('A' for Active; 'I' for Inactive)
REMARK    1  A    between atoms: C_11  and  N_19
REMARK    2  A    between atoms: N_22  and  C_23
REMARK    3  A    between atoms: C_23  and  C_24
REMARK                            x       y       z     vdW  Elec       q    Type
REMARK                         _______ _______ _______ _____ _____    ______ ____
ROOT
ATOM      1 BR   UNL     1      -0.492  -2.469  24.919  0.00  0.00    -0.049 Br
ATOM      2  C   UNL     1      -1.244  -2.150  24.801  0.00  0.00    +0.035 A 
ATOM      3  C   UNL     1      -1.894  -2.650  24.713  0.00  0.00    +0.008 A 
ATOM      4  C   UNL     1      -2.646  -2.330  24.594  0.00  0.00    +0.017 A 
ATOM      5  C   UNL     1      -2.747  -1.512  24.563  0.00  0.00    +0.078 A 
ATOM      6  N   UNL     1      -3.537  -1.310  24.441  0.00  0.00    -0.178 NA
ATOM      7  C   UNL     1      -3.872  -0.559  24.376  0.00  0.00    +0.264 C 
ATOM      8  O   UNL     1      -4.688  -0.540  24.254  0.00  0.00    -0.271 OA
ATOM      9  C   UNL     1      -3.499   0.176  24.418  0.00  0.00    +0.156 C 
ATOM     10  C   UNL     1      -4.038   0.793  24.325  0.00  0.00    +0.051 C 
ATOM     11  C   UNL     1      -3.778   1.576  24.349  0.00  0.00    +0.101 C 
ATOM     12  C   UNL     1      -2.978   1.741  24.466  0.00  0.00    +0.043 C 
ATOM     13  C   UNL     1      -2.438   1.123  24.559  0.00  0.00    +0.096 C 
ATOM     14  N   UNL     1      -2.699   0.341  24.535  0.00  0.00    -0.269 N 
ATOM     15  C   UNL     1      -2.074  -0.188  24.638  0.00  0.00    +0.251 C 
ATOM     16  O   UNL     1      -1.331   0.152  24.743  0.00  0.00    -0.270 OA
ATOM     17  C   UNL     1      -2.096  -1.013  24.651  0.00  0.00    +0.069 A 
ATOM     18  C   UNL     1      -1.345  -1.332  24.770  0.00  0.00    +0.013 A 
ENDROOT
BRANCH  11  19
ATOM     19  N   UNL     1      -4.318   2.193  24.256  0.00  0.00    -0.189 NA
ATOM     20  C   UNL     1      -4.512   2.672  24.899  0.00  0.00    +0.340 C 
ATOM     21  O   UNL     1      -4.166   2.534  25.635  0.00  0.00    -0.249 OA
ATOM     22  N   UNL     1      -5.052   3.289  24.806  0.00  0.00    -0.182 NA
BRANCH  22  23
ATOM     23  C   UNL     1      -5.246   3.767  25.448  0.00  0.00    +0.143 C 
BRANCH  23  24
ATOM     24  C   UNL     1      -5.952   4.195  25.447  0.00  0.00    -0.003 C 
ATOM     25  C   UNL     1      -5.955   4.988  25.670  0.00  0.00    -0.003 C 
ENDBRANCH  23  24
ENDBRANCH  22  23
ENDBRANCH  11  19
TORSDOF 3
ENDMDL
MODEL 7
REMARK VINA RESULT:      -7.7      2.507      3.317
REMARK  Name = 
REMARK  3 active torsions:
REMARK  status: ('A' for Active; 'I' for Inactive)
REMARK    1  A    between atoms: C_11  and  N_19
REMARK    2  A    between atoms: N_22  and  C_23
REMARK    3  A    between atoms: C_23  and  C_24
REMARK                            x       y       z     vdW  Elec       q    Type
REMARK                         _______ _______ _______ _____ _____    ______ ____
ROOT
ATOM      1 BR   UNL     1       1.251  -0.194  23.166  0.00  0.00    -0.049 Br
ATOM      2  C   UNL     1       0.526  -0.217  23.559  0.00  0.00    +0.035 A 
ATOM      3  C   UNL     1       0.363  -0.830  24.087  0.00  0.00    +0.008 A 
ATOM      4  C   UNL     1      -0.362  -0.853  24.480  0.00  0.00    +0.017 A 
ATOM      5  C   UNL     1      -0.923  -0.263  24.346  0.00  0.00    +0.078 A 
ATOM      6  N   UNL     1      -1.606  -0.389  24.792  0.00  0.00    -0.178 NA
ATOM      7  C   UNL     1      -2.293   0.066  24.821  0.00  0.00    +0.264 C 
ATOM      8  O   UNL     1      -2.884  -0.209  25.326  0.00  0.00    -0.271 OA
ATOM      9  C   UNL     1      -2.468   0.760  24.411  0.00  0.00    +0.156 C 
ATOM     10  C   UNL     1      -3.220   1.041  24.599  0.00  0.00    +0.051 C 
ATOM     11  C   UNL     1      -3.503   1.732  24.248  0.00  0.00    +0.101 C 
ATOM     12  C   UNL     1      -3.034   2.142  23.708  0.00  0.00    +0.043 C 
ATOM     13  C   UNL     1      -2.281   1.862  23.519  0.00  0.00    +0.096 C 
ATOM     14  N   UNL     1      -1.998   1.171  23.870  0.00  0.00    -0.269 N 
ATOM     15  C   UNL     1      -1.238   0.988  23.607  0.00  0.00    +0.251 C 
ATOM     16  O   UNL     1      -0.914   1.512  23.060  0.00  0.00    -0.270 OA
ATOM     17  C   UNL     1      -0.760   0.350  23.818  0.00  0.00    +0.069 A 
ATOM     18  C   UNL     1      -0.035   0.373  23.426  0.00  0.00    +0.013 A 
ENDROOT
BRANCH  11  19
ATOM     19  N   UNL     1      -4.256   2.012  24.437  0.00  0.00    -0.189 NA
ATOM     20  C   UNL     1      -4.341   2.710  24.867  0.00  0.00    +0.340 C 
ATOM     21  O   UNL     1      -3.673   3.129  25.108  0.00  0.00    -0.249 OA
ATOM     22  N   UNL     1      -5.094   2.990  25.056  0.00  0.00    -0.182 NA
BRANCH  22  23
ATOM     23  C   UNL     1      -5.179   3.688  25.486  0.00  0.00    +0.143 C 
BRANCH  23  24
ATOM     24  C   UNL     1      -5.928   3.940  25.722  0.00  0.00    -0.003 C 
ATOM     25  C   UNL     1      -6.122   4.741  25.697  0.00  0.00    -0.003 C 
ENDBRANCH  23  24
ENDBRANCH  22  23
ENDBRANCH  11  19
TORSDOF 3
ENDMDL
MODEL 8
REMARK VINA RESULT:      -6.9      1.554      2.224
REMARK  Name = 
REMARK  3 active torsions:
REMARK  status: ('A' for Active; 'I' for Inactive)
REMARK    1  A    between atoms: C_11  and  N_19
REMARK    2  A    between atoms: N_22  and  C_23
REMARK    3  A    between atoms: C_23  and  C_24
REMARK                            x       y       z     vdW  Elec       q    Type
REMARK                         _______ _______ _______ _____ _____    ______ ____
ROOT
ATOM      1 BR   UNL     1      -4.886  -2.480  23.653  0.00  0.00    -0.049 Br
ATOM      2  C   UNL     1      -4.136  -2.323  23.959  0.00  0.00    +0.035 A 
ATOM      3  C   UNL     1      -3.678  -2.940  24.260  0.00  0.00    +0.008 A 
ATOM      4  C   UNL     1      -2.928  -2.783  24.566  0.00  0.00    +0.017 A 
ATOM      5  C   UNL     1      -2.637  -2.011  24.572  0.00  0.00    +0.078 A 
ATOM      6  N   UNL     1      -1.881  -1.975  24.900  0.00  0.00    -0.178 NA
ATOM      7  C   UNL     1      -1.397  -1.317  25.009  0.00  0.00    +0.264 C 
ATOM      8  O   UNL     1      -0.664  -1.464  25.356  0.00  0.00    -0.271 OA
ATOM      9  C   UNL     1      -1.550  -0.529  24.816  0.00  0.00    +0.156 C 
ATOM     10  C   UNL     1      -0.917  -0.040  25.018  0.00  0.00    +0.051 C 
ATOM     11  C   UNL     1      -0.959   0.771  24.871  0.00  0.00    +0.101 C 
ATOM     12  C   UNL     1      -1.633   1.093  24.522  0.00  0.00    +0.043 C 
ATOM     13  C   UNL     1      -2.266   0.604  24.320  0.00  0.00    +0.096 C 
ATOM     14  N   UNL     1      -2.225  -0.206  24.467  0.00  0.00    -0.269 N 
ATOM     15  C   UNL     1      -2.913  -0.592  24.224  0.00  0.00    +0.251 C 
ATOM     16  O   UNL     1      -3.494  -0.111  23.891  0.00  0.00    -0.270 OA
ATOM     17  C   UNL     1      -3.096  -1.395  24.271  0.00  0.00    +0.069 A 
ATOM     18  C   UNL     1      -3.846  -1.552  23.965  0.00  0.00    +0.013 A 
ENDROOT
BRANCH  11  19
ATOM     19  N   UNL     1      -0.325   1.259  25.073  0.00  0.00    -0.189 NA
ATOM     20  C   UNL     1      -0.376   1.749  25.734  0.00  0.00    +0.340 C 
ATOM     21  O   UNL     1      -1.061   1.753  26.193  0.00  0.00    -0.249 OA
ATOM     22  N   UNL     1       0.258   2.237  25.936  0.00  0.00    -0.182 NA
BRANCH  22  23
ATOM     23  C   UNL     1       0.207   2.728  26.596  0.00  0.00    +0.143 C 
BRANCH  23  24
ATOM     24  C   UNL     1       0.894   2.995  26.967  0.00  0.00    -0.003 C 
ATOM     25  C   UNL     1       1.079   2.739  27.729  0.00  0.00    -0.003 C 
ENDBRANCH  23  24
ENDBRANCH  22  23
ENDBRANCH  11  19
TORSDOF 3
ENDMDL
