MODEL 1
REMARK VINA RESULT:      -8.8      0.000      0.000
REMARK  Name = 
REMARK  7 active torsions:
REMARK  status: ('A' for Active; 'I' for Inactive)
REMARK    1  A    between atoms: S_2  and  N_5
REMARK    2  A    between atoms: N_5  and  C_6
REMARK    3  A    between atoms: C_6  and  C_7
REMARK    4  A    between atoms: C_10  and  N_11
REMARK    5  A    between atoms: N_11  and  C_12
REMARK    6  A    between atoms: C_12  and  C_13
REMARK    7  A    between atoms: C_16  and  S_19
REMARK                            x       y       z     vdW  Elec       q    Type
REMARK                         _______ _______ _______ _____ _____    ______ ____
ROOT
ATOM      7  C   UNL     1      -2.985   3.149  24.775  0.00  0.00    +0.166 C 
ATOM      8  O   UNL     1      -3.582   3.116  25.343  0.00  0.00    -0.350 OA
ATOM      9  C   UNL     1      -3.963   2.388  25.271  0.00  0.00    +0.162 C 
ATOM     10  C   UNL     1      -3.601   1.971  24.659  0.00  0.00    +0.135 C 
ATOM     23  C   UNL     1      -2.997   2.441  24.352  0.00  0.00    +0.199 C 
ATOM     24  O   UNL     1      -2.493   2.239  23.731  0.00  0.00    -0.219 OA
ENDROOT
BRANCH   7   6
ATOM      6  C   UNL     1      -2.468   3.780  24.651  0.00  0.00    +0.147 C 
BRANCH   6   5
ATOM      5  N   UNL     1      -2.104   4.146  25.294  0.00  0.00    -0.079 NA
BRANCH   5   2
ATOM      1  C   UNL     1      -0.944   5.292  25.041  0.00  0.00    +0.197 C 
ATOM      2  S   UNL     1      -1.523   4.720  25.167  0.00  0.00    +0.059 S 
ATOM      3  O   UNL     1      -0.938   4.169  25.356  0.00  0.00    -0.156 OA
ATOM      4  O   UNL     1      -2.108   5.270  24.978  0.00  0.00    -0.156 OA
ENDBRANCH   5   2
ENDBRANCH   6   5
ENDBRANCH   7   6
BRANCH  10  11
ATOM     11  N   UNL     1      -3.807   1.215  24.399  0.00  0.00    -0.209 NA
BRANCH  11  12
ATOM     12  C   UNL     1      -4.132   0.671  24.928  0.00  0.00    +0.115 C 
BRANCH  12  13
ATOM     13  C   UNL     1      -4.017  -0.137  24.810  0.00  0.00    -0.005 A 
ATOM     14  C   UNL     1      -4.216  -0.481  24.086  0.00  0.00    -0.002 A 
ATOM     15  C   UNL     1      -4.101  -1.289  23.968  0.00  0.00    +0.018 A 
ATOM     16  C   UNL     1      -3.787  -1.754  24.574  0.00  0.00    +0.106 A 
ATOM     17  C   UNL     1      -3.589  -1.410  25.297  0.00  0.00    +0.018 A 
ATOM     18  C   UNL     1      -3.703  -0.602  25.415  0.00  0.00    -0.002 A 
BRANCH  16  19
ATOM     19  S   UNL     1      -3.672  -2.562  24.456  0.00  0.00    +0.010 S 
ATOM     20  C   UNL     1      -3.558  -3.371  24.338  0.00  0.00    +0.182 C 
ATOM     21  O   UNL     1      -3.051  -2.554  24.997  0.00  0.00    -0.169 OA
ATOM     22  O   UNL     1      -4.295  -2.571  23.914  0.00  0.00    -0.169 OA
ENDBRANCH  16  19
ENDBRANCH  12  13
ENDBRANCH  11  12
ENDBRANCH  10  11
TORSDOF 7
ENDMDL
MODEL 2
REMARK VINA RESULT:      -8.2      1.093      5.708
REMARK  Name = 
REMARK  7 active torsions:
REMARK  status: ('A' for Active; 'I' for Inactive)
REMARK    1  A    between atoms: S_2  and  N_5
REMARK    2  A    between atoms: N_5  and  C_6
REMARK    3  A    between atoms: C_6  and  C_7
REMARK    4  A    between atoms: C_10  and  N_11
REMARK    5  A    between atoms: N_11  and  C_12
REMARK    6  A    between atoms: C_12  and  C_13
REMARK    7  A    between atoms: C_16  and  S_19
REMARK                            x       y       z     vdW  Elec       q    Type
REMARK                         _______ _______ _______ _____ _____    ______ ____
ROOT
ATOM      7  C   UNL     1      -3.888  -0.265  24.429  0.00  0.00    +0.166 C 
ATOM      8  O   UNL     1      -4.401   0.001  25.018  0.00  0.00    -0.350 OA
ATOM      9  C   UNL     1      -4.277   0.810  25.118  0.00  0.00    +0.162 C 
ATOM     10  C   UNL     1      -3.688   1.045  24.591  0.00  0.00    +0.135 C 
ATOM     23  C   UNL     1      -3.447   0.381  24.165  0.00  0.00    +0.199 C 
ATOM     24  O   UNL     1      -2.868   0.365  23.578  0.00  0.00    -0.219 OA
ENDROOT
BRANCH   7   6
ATOM      6  C   UNL     1      -3.827  -1.039  24.152  0.00  0.00    +0.147 C 
BRANCH   6   5
ATOM      5  N   UNL     1      -4.004  -1.671  24.651  0.00  0.00    -0.079 NA
BRANCH   5   2
ATOM      1  C   UNL     1      -3.574  -3.205  24.226  0.00  0.00    +0.197 C 
ATOM      2  S   UNL     1      -3.789  -2.439  24.438  0.00  0.00    +0.059 S 
ATOM      3  O   UNL     1      -4.297  -2.402  23.789  0.00  0.00    -0.156 OA
ATOM      4  O   UNL     1      -3.281  -2.476  25.087  0.00  0.00    -0.156 OA
ENDBRANCH   5   2
ENDBRANCH   6   5
ENDBRANCH   7   6
BRANCH  10  11
ATOM     11  N   UNL     1      -3.391   1.810  24.505  0.00  0.00    -0.209 NA
BRANCH  11  12
ATOM     12  C   UNL     1      -3.294   2.292  25.168  0.00  0.00    +0.115 C 
BRANCH  12  13
ATOM     13  C   UNL     1      -2.794   2.947  25.132  0.00  0.00    -0.005 A 
ATOM     14  C   UNL     1      -3.045   3.636  24.753  0.00  0.00    -0.002 A 
ATOM     15  C   UNL     1      -2.545   4.291  24.717  0.00  0.00    +0.018 A 
ATOM     16  C   UNL     1      -1.794   4.258  25.059  0.00  0.00    +0.106 A 
ATOM     17  C   UNL     1      -1.545   3.568  25.438  0.00  0.00    +0.018 A 
ATOM     18  C   UNL     1      -2.045   2.914  25.474  0.00  0.00    -0.002 A 
BRANCH  16  19
ATOM     19  S   UNL     1      -1.294   4.913  25.023  0.00  0.00    +0.010 S 
ATOM     20  C   UNL     1      -0.793   5.568  24.987  0.00  0.00    +0.182 C 
ATOM     21  O   UNL     1      -1.853   5.363  25.429  0.00  0.00    -0.169 OA
ATOM     22  O   UNL     1      -0.734   4.462  24.617  0.00  0.00    -0.169 OA
ENDBRANCH  16  19
ENDBRANCH  12  13
ENDBRANCH  11  12
ENDBRANCH  10  11
TORSDOF 7
ENDMDL
MODEL 3
REMARK VINA RESULT:      -7.8      3.377      4.429
REMARK  Name = 
REMARK  7 active torsions:
REMARK  status: ('A' for Active; 'I' for Inactive)
REMARK    1  A    between atoms: S_2  and  N_5
REMARK    2  A    between atoms: N_5  and  C_6
REMARK    3  A    between atoms: C_6  and  C_7
REMARK    4  A    between atoms: C_10  and  N_11
REMARK    5  A    between atoms: N_11  and  C_12
REMARK    6  A    between atoms: C_12  and  C_13
REMARK    7  A    between atoms: C_16  and  S_19
REMARK                            x       y       z     vdW  Elec       q    Type
REMARK                         _______ _______ _______ _____ _____    ______ ____
ROOT
ATOM      7  C   UNL     1      -0.128   0.302  23.715  0.00  0.00    +0.166 C 
ATOM      8  O   UNL     1      -0.454  -0.427  23.922  0.00  0.00    -0.350 OA
ATOM      9  C   UNL     1      -1.213  -0.293  24.213  0.00  0.00    +0.162 C 
ATOM     10  C   UNL     1      -1.357   0.519  24.186  0.00  0.00    +0.135 C 
ATOM     23  C   UNL     1      -0.687   0.887  23.879  0.00  0.00    +0.199 C 
ATOM     24  O   UNL     1      -0.591   1.697  23.756  0.00  0.00    -0.219 OA
ENDROOT
BRANCH   7   6
ATOM      6  C   UNL     1       0.625   0.425  23.401  0.00  0.00    +0.147 C 
BRANCH   6   5
ATOM      5  N   UNL     1       1.021  -0.193  23.025  0.00  0.00    -0.079 NA
BRANCH   5   2
ATOM      1  C   UNL     1       2.461   0.087  22.271  0.00  0.00    +0.197 C 
ATOM      2  S   UNL     1       1.742  -0.053  22.648  0.00  0.00    +0.059 S 
ATOM      3  O   UNL     1       1.398  -0.239  21.921  0.00  0.00    -0.156 OA
ATOM      4  O   UNL     1       2.086   0.134  23.374  0.00  0.00    -0.156 OA
ENDBRANCH   5   2
ENDBRANCH   6   5
ENDBRANCH   7   6
BRANCH  10  11
ATOM     11  N   UNL     1      -2.051   0.897  24.425  0.00  0.00    -0.209 NA
BRANCH  11  12
ATOM     12  C   UNL     1      -2.785   0.591  24.204  0.00  0.00    +0.115 C 
BRANCH  12  13
ATOM     13  C   UNL     1      -3.478   0.953  24.465  0.00  0.00    -0.005 A 
ATOM     14  C   UNL     1      -3.660   1.720  24.221  0.00  0.00    -0.002 A 
ATOM     15  C   UNL     1      -4.353   2.083  24.483  0.00  0.00    +0.018 A 
ATOM     16  C   UNL     1      -4.866   1.678  24.988  0.00  0.00    +0.106 A 
ATOM     17  C   UNL     1      -4.684   0.911  25.231  0.00  0.00    +0.018 A 
ATOM     18  C   UNL     1      -3.990   0.549  24.969  0.00  0.00    -0.002 A 
BRANCH  16  19
ATOM     19  S   UNL     1      -5.559   2.040  25.249  0.00  0.00    +0.010 S 
ATOM     20  C   UNL     1      -6.252   2.403  25.511  0.00  0.00    +0.182 C 
ATOM     21  O   UNL     1      -5.996   1.594  24.712  0.00  0.00    -0.169 OA
ATOM     22  O   UNL     1      -5.121   2.488  25.788  0.00  0.00    -0.169 OA
ENDBRANCH  16  19
ENDBRANCH  12  13
ENDBRANCH  11  12
ENDBRANCH  10  11
TORSDOF 7
ENDMDL
MODEL 4
REMARK VINA RESULT:      -7.1     17.925     19.394
REMARK  Name = 
REMARK  7 active torsions:
REMARK  status: ('A' for Active; 'I' for Inactive)
REMARK    1  A    between atoms: S_2  and  N_5
REMARK    2  A    between atoms: N_5  and  C_6
REMARK    3  A    between atoms: C_6  and  C_7
REMARK    4  A    between atoms: C_10  and  N_11
REMARK    5  A    between atoms: N_11  and  C_12
REMARK    6  A    between atoms: C_12  and  C_13
REMARK    7  A    between atoms: C_16  and  S_19
REMARK                            x       y       z     vdW  Elec       q    Type
REMARK                         _______ _______ _______ _____ _____    ______ ____
ROOT
ATOM      7  C   UNL     1      12.052   7.999  17.791  0.00  0.00    +0.166 C 
ATOM      8  O   UNL     1      11.890   7.213  17.981  0.00  0.00    -0.350 OA
ATOM      9  C   UNL     1      12.473   6.951  18.502  0.00  0.00    +0.162 C 
ATOM     10  C   UNL     1      12.996   7.575  18.635  0.00  0.00    +0.135 C 
ATOM     23  C   UNL     1      12.736   8.223  18.196  0.00  0.00    +0.199 C 
ATOM     24  O   UNL     1      13.096   8.964  18.166  0.00  0.00    -0.219 OA
ENDROOT
BRANCH   7   6
ATOM      6  C   UNL     1      11.609   8.477  17.286  0.00  0.00    +0.147 C 
BRANCH   6   5
ATOM      5  N   UNL     1      11.196   8.141  16.657  0.00  0.00    -0.079 NA
BRANCH   5   2
ATOM      1  C   UNL     1      10.280   9.094  15.669  0.00  0.00    +0.197 C 
ATOM      2  S   UNL     1      10.737   8.618  16.163  0.00  0.00    +0.059 S 
ATOM      3  O   UNL     1      10.187   8.719  16.769  0.00  0.00    -0.156 OA
ATOM      4  O   UNL     1      11.287   8.517  15.556  0.00  0.00    -0.156 OA
ENDBRANCH   5   2
ENDBRANCH   6   5
ENDBRANCH   7   6
BRANCH  10  11
ATOM     11  N   UNL     1      13.662   7.555  19.122  0.00  0.00    -0.209 NA
BRANCH  11  12
ATOM     12  C   UNL     1      14.051   6.840  19.259  0.00  0.00    +0.115 C 
BRANCH  12  13
ATOM     13  C   UNL     1      14.720   6.821  19.741  0.00  0.00    -0.005 A 
ATOM     14  C   UNL     1      15.454   6.625  19.418  0.00  0.00    -0.002 A 
ATOM     15  C   UNL     1      16.124   6.606  19.899  0.00  0.00    +0.018 A 
ATOM     16  C   UNL     1      16.060   6.783  20.703  0.00  0.00    +0.106 A 
ATOM     17  C   UNL     1      15.326   6.979  21.025  0.00  0.00    +0.018 A 
ATOM     18  C   UNL     1      14.656   6.998  20.543  0.00  0.00    -0.002 A 
BRANCH  16  19
ATOM     19  S   UNL     1      16.730   6.765  21.184  0.00  0.00    +0.010 S 
ATOM     20  C   UNL     1      17.400   6.746  21.666  0.00  0.00    +0.182 C 
ATOM     21  O   UNL     1      16.485   6.043  21.498  0.00  0.00    -0.169 OA
ATOM     22  O   UNL     1      16.975   7.487  20.870  0.00  0.00    -0.169 OA
ENDBRANCH  16  19
ENDBRANCH  12  13
ENDBRANCH  11  12
ENDBRANCH  10  11
TORSDOF 7
ENDMDL
MODEL 5
REMARK VINA RESULT:      -6.0     14.083     16.261
REMARK  Name = 
REMARK  7 active torsions:
REMARK  status: ('A' for Active; 'I' for Inactive)
REMARK    1  A    between atoms: S_2  and  N_5
REMARK    2  A    between atoms: N_5  and  C_6
REMARK    3  A    between atoms: C_6  and  C_7
REMARK    4  A    between atoms: C_10  and  N_11
REMARK    5  A    between atoms: N_11  and  C_12
REMARK    6  A    between atoms: C_12  and  C_13
REMARK    7  A    between atoms: C_16  and  S_19
REMARK                            x       y       z     vdW  Elec       q    Type
REMARK                         _______ _______ _______ _____ _____    ______ ____
ROOT
ATOM      7  C   UNL     1      -4.868  -9.856  11.897  0.00  0.00    +0.166 C 
ATOM      8  O   UNL     1      -4.368 -10.383  12.288  0.00  0.00    -0.350 OA
ATOM      9  C   UNL     1      -4.662 -10.495  13.050  0.00  0.00    +0.162 C 
ATOM     10  C   UNL     1      -5.343 -10.037  13.130  0.00  0.00    +0.135 C 
ATOM     23  C   UNL     1      -5.471  -9.642  12.418  0.00  0.00    +0.199 C 
ATOM     24  O   UNL     1      -6.092  -9.125  12.255  0.00  0.00    -0.219 OA
ENDROOT
BRANCH   7   6
ATOM      6  C   UNL     1      -4.780  -9.589  11.121  0.00  0.00    +0.147 C 
BRANCH   6   5
ATOM      5  N   UNL     1      -4.069  -9.709  10.722  0.00  0.00    -0.079 NA
BRANCH   5   2
ATOM      1  C   UNL     1      -3.868  -9.109   9.198  0.00  0.00    +0.197 C 
ATOM      2  S   UNL     1      -3.968  -9.408   9.959  0.00  0.00    +0.059 S 
ATOM      3  O   UNL     1      -3.541  -8.773  10.266  0.00  0.00    -0.156 OA
ATOM      4  O   UNL     1      -4.396 -10.044   9.652  0.00  0.00    -0.156 OA
ENDBRANCH   5   2
ENDBRANCH   6   5
ENDBRANCH   7   6
BRANCH  10  11
ATOM     11  N   UNL     1      -5.815  -9.984  13.806  0.00  0.00    -0.209 NA
BRANCH  11  12
ATOM     12  C   UNL     1      -5.582 -10.361  14.503  0.00  0.00    +0.115 C 
BRANCH  12  13
ATOM     13  C   UNL     1      -5.995 -10.223  15.203  0.00  0.00    -0.005 A 
ATOM     14  C   UNL     1      -5.680  -9.717  15.774  0.00  0.00    -0.002 A 
ATOM     15  C   UNL     1      -6.092  -9.579  16.475  0.00  0.00    +0.018 A 
ATOM     16  C   UNL     1      -6.820  -9.947  16.605  0.00  0.00    +0.106 A 
ATOM     17  C   UNL     1      -7.134 -10.453  16.034  0.00  0.00    +0.018 A 
ATOM     18  C   UNL     1      -6.721 -10.590  15.334  0.00  0.00    -0.002 A 
BRANCH  16  19
ATOM     19  S   UNL     1      -7.232  -9.809  17.306  0.00  0.00    +0.010 S 
ATOM     20  C   UNL     1      -7.645  -9.670  18.007  0.00  0.00    +0.182 C 
ATOM     21  O   UNL     1      -6.913 -10.496  17.630  0.00  0.00    -0.169 OA
ATOM     22  O   UNL     1      -7.552  -9.120  16.982  0.00  0.00    -0.169 OA
ENDBRANCH  16  19
ENDBRANCH  12  13
ENDBRANCH  11  12
ENDBRANCH  10  11
TORSDOF 7
ENDMDL
MODEL 6
REMARK VINA RESULT:      -6.0     15.654     18.511
REMARK  Name = 
REMARK  7 active torsions:
REMARK  status: ('A' for Active; 'I' for Inactive)
REMARK    1  A    between atoms: S_2  and  N_5
REMARK    2  A    between atoms: N_5  and  C_6
REMARK    3  A    between atoms: C_6  and  C_7
REMARK    4  A    between atoms: C_10  and  N_11
REMARK    5  A    between atoms: N_11  and  C_12
REMARK    6  A    between atoms: C_12  and  C_13
REMARK    7  A    between atoms: C_16  and  S_19
REMARK                            x       y       z     vdW  Elec       q    Type
REMARK                         _______ _______ _______ _____ _____    ______ ____
ROOT
ATOM      7  C   UNL     1      13.586   8.136  17.280  0.00  0.00    +0.166 C 
ATOM      8  O   UNL     1      13.194   7.415  17.201  0.00  0.00    -0.350 OA
ATOM      9  C   UNL     1      12.859   7.227  17.931  0.00  0.00    +0.162 C 
ATOM     10  C   UNL     1      13.043   7.832  18.460  0.00  0.00    +0.135 C 
ATOM     23  C   UNL     1      13.492   8.394  18.058  0.00  0.00    +0.199 C 
ATOM     24  O   UNL     1      13.795   9.091  18.377  0.00  0.00    -0.219 OA
ENDROOT
BRANCH   7   6
ATOM      6  C   UNL     1      13.999   8.531  16.685  0.00  0.00    +0.147 C 
BRANCH   6   5
ATOM      5  N   UNL     1      14.001   8.232  15.916  0.00  0.00    -0.079 NA
BRANCH   5   2
ATOM      1  C   UNL     1      14.720   9.086  14.701  0.00  0.00    +0.197 C 
ATOM      2  S   UNL     1      14.361   8.660  15.308  0.00  0.00    +0.059 S 
ATOM      3  O   UNL     1      15.100   8.394  15.559  0.00  0.00    -0.156 OA
ATOM      4  O   UNL     1      13.621   8.925  15.057  0.00  0.00    -0.156 OA
ENDBRANCH   5   2
ENDBRANCH   6   5
ENDBRANCH   7   6
BRANCH  10  11
ATOM     11  N   UNL     1      12.817   7.868  19.253  0.00  0.00    -0.209 NA
BRANCH  11  12
ATOM     12  C   UNL     1      12.296   7.306  19.560  0.00  0.00    +0.115 C 
BRANCH  12  13
ATOM     13  C   UNL     1      11.870   7.470  20.247  0.00  0.00    -0.005 A 
ATOM     14  C   UNL     1      11.442   8.173  20.308  0.00  0.00    -0.002 A 
ATOM     15  C   UNL     1      11.017   8.337  20.995  0.00  0.00    +0.018 A 
ATOM     16  C   UNL     1      11.019   7.800  21.622  0.00  0.00    +0.106 A 
ATOM     17  C   UNL     1      11.448   7.097  21.559  0.00  0.00    +0.018 A 
ATOM     18  C   UNL     1      11.873   6.933  20.872  0.00  0.00    -0.002 A 
BRANCH  16  19
ATOM     19  S   UNL     1      10.594   7.964  22.309  0.00  0.00    +0.010 S 
ATOM     20  C   UNL     1      10.168   8.129  22.997  0.00  0.00    +0.182 C 
ATOM     21  O   UNL     1      10.120   7.303  22.174  0.00  0.00    -0.169 OA
ATOM     22  O   UNL     1      11.069   8.625  22.444  0.00  0.00    -0.169 OA
ENDBRANCH  16  19
ENDBRANCH  12  13
ENDBRANCH  11  12
ENDBRANCH  10  11
TORSDOF 7
ENDMDL
MODEL 7
REMARK VINA RESULT:      -5.9     17.568     18.630
REMARK  Name = 
REMARK  7 active torsions:
REMARK  status: ('A' for Active; 'I' for Inactive)
REMARK    1  A    between atoms: S_2  and  N_5
REMARK    2  A    between atoms: N_5  and  C_6
REMARK    3  A    between atoms: C_6  and  C_7
REMARK    4  A    between atoms: C_10  and  N_11
REMARK    5  A    between atoms: N_11  and  C_12
REMARK    6  A    between atoms: C_12  and  C_13
REMARK    7  A    between atoms: C_16  and  S_19
REMARK                            x       y       z     vdW  Elec       q    Type
REMARK                         _______ _______ _______ _____ _____    ______ ____
ROOT
ATOM      7  C   UNL     1      -6.964  -8.333   8.814  0.00  0.00    +0.166 C 
ATOM      8  O   UNL     1      -6.544  -8.581   8.149  0.00  0.00    -0.350 OA
ATOM      9  C   UNL     1      -5.899  -9.025   8.405  0.00  0.00    +0.162 C 
ATOM     10  C   UNL     1      -5.919  -9.053   9.230  0.00  0.00    +0.135 C 
ATOM     23  C   UNL     1      -6.577  -8.625   9.483  0.00  0.00    +0.199 C 
ATOM     24  O   UNL     1      -6.808  -8.509  10.266  0.00  0.00    -0.219 OA
ENDROOT
BRANCH   7   6
ATOM      6  C   UNL     1      -7.649  -7.874   8.813  0.00  0.00    +0.147 C 
BRANCH   6   5
ATOM      5  N   UNL     1      -7.877  -7.476   8.127  0.00  0.00    -0.079 NA
BRANCH   5   2
ATOM      1  C   UNL     1      -9.170  -6.452   8.160  0.00  0.00    +0.197 C 
ATOM      2  S   UNL     1      -8.524  -6.964   8.144  0.00  0.00    +0.059 S 
ATOM      3  O   UNL     1      -9.036  -7.611   8.157  0.00  0.00    -0.156 OA
ATOM      4  O   UNL     1      -8.013  -6.317   8.130  0.00  0.00    -0.156 OA
ENDBRANCH   5   2
ENDBRANCH   6   5
ENDBRANCH   7   6
BRANCH  10  11
ATOM     11  N   UNL     1      -5.376  -9.441   9.716  0.00  0.00    -0.209 NA
BRANCH  11  12
ATOM     12  C   UNL     1      -4.579  -9.470   9.503  0.00  0.00    +0.115 C 
BRANCH  12  13
ATOM     13  C   UNL     1      -4.013  -9.701  10.056  0.00  0.00    -0.005 A 
ATOM     14  C   UNL     1      -4.064 -10.445  10.411  0.00  0.00    -0.002 A 
ATOM     15  C   UNL     1      -3.498 -10.676  10.965  0.00  0.00    +0.018 A 
ATOM     16  C   UNL     1      -2.881 -10.165  11.164  0.00  0.00    +0.106 A 
ATOM     17  C   UNL     1      -2.831  -9.422  10.808  0.00  0.00    +0.018 A 
ATOM     18  C   UNL     1      -3.397  -9.191  10.254  0.00  0.00    -0.002 A 
BRANCH  16  19
ATOM     19  S   UNL     1      -2.315 -10.396  11.717  0.00  0.00    +0.010 S 
ATOM     20  C   UNL     1      -1.749 -10.627  12.271  0.00  0.00    +0.182 C 
ATOM     21  O   UNL     1      -1.718 -10.250  11.168  0.00  0.00    -0.169 OA
ATOM     22  O   UNL     1      -2.913 -10.541  12.267  0.00  0.00    -0.169 OA
ENDBRANCH  16  19
ENDBRANCH  12  13
ENDBRANCH  11  12
ENDBRANCH  10  11
TORSDOF 7
ENDMDL
MODEL 8
REMARK VINA RESULT:      -5.9     13.894     14.720
REMARK  Name = 
REMARK  7 active torsions:
REMARK  status: ('A' for Active; 'I' for Inactive)
REMARK    1  A    between atoms: S_2  and  N_5
REMARK    2  A    between atoms: N_5  and  C_6
REMARK    3  A    between atoms: C_6  and  C_7
REMARK    4  A    between atoms: C_10  and  N_11
REMARK    5  A    between atoms: N_11  and  C_12
REMARK    6  A    between atoms: C_12  and  C_13
REMARK    7  A    between atoms: C_16  and  S_19
REMARK                            x       y       z     vdW  Elec       q    Type
REMARK                         _______ _______ _______ _____ _____    ______ ____
ROOT
ATOM      7  C   UNL     1      -7.689  -9.555  16.933  0.00  0.00    +0.166 C 
ATOM      8  O   UNL     1      -7.295  -9.486  17.654  0.00  0.00    -0.350 OA
ATOM      9  C   UNL     1      -6.511  -9.712  17.539  0.00  0.00    +0.162 C 
ATOM     10  C   UNL     1      -6.419  -9.920  16.746  0.00  0.00    +0.135 C 
ATOM     23  C   UNL     1      -7.147  -9.824  16.371  0.00  0.00    +0.199 C 
ATOM     24  O   UNL     1      -7.305  -9.969  15.575  0.00  0.00    -0.219 OA
ENDROOT
BRANCH   7   6
ATOM      6  C   UNL     1      -8.485  -9.386  16.796  0.00  0.00    +0.147 C 
BRANCH   6   5
ATOM      5  N   UNL     1      -8.982  -9.206  17.428  0.00  0.00    -0.079 NA
BRANCH   5   2
ATOM      1  C   UNL     1     -10.567  -8.840  17.153  0.00  0.00    +0.197 C 
ATOM      2  S   UNL     1      -9.775  -9.023  17.290  0.00  0.00    +0.059 S 
ATOM      3  O   UNL     1     -10.001  -9.736  17.639  0.00  0.00    -0.156 OA
ATOM      4  O   UNL     1      -9.550  -8.310  16.942  0.00  0.00    -0.156 OA
ENDBRANCH   5   2
ENDBRANCH   6   5
ENDBRANCH   7   6
BRANCH  10  11
ATOM     11  N   UNL     1      -5.721 -10.180  16.390  0.00  0.00    -0.209 NA
BRANCH  11  12
ATOM     12  C   UNL     1      -5.116 -10.500  16.853  0.00  0.00    +0.115 C 
BRANCH  12  13
ATOM     13  C   UNL     1      -4.348 -10.540  16.556  0.00  0.00    -0.005 A 
ATOM     14  C   UNL     1      -4.205 -10.380  15.759  0.00  0.00    -0.002 A 
ATOM     15  C   UNL     1      -3.436 -10.420  15.462  0.00  0.00    +0.018 A 
ATOM     16  C   UNL     1      -2.810 -10.620  15.962  0.00  0.00    +0.106 A 
ATOM     17  C   UNL     1      -2.954 -10.780  16.759  0.00  0.00    +0.018 A 
ATOM     18  C   UNL     1      -3.723 -10.740  17.055  0.00  0.00    -0.002 A 
BRANCH  16  19
ATOM     19  S   UNL     1      -2.042 -10.660  15.665  0.00  0.00    +0.010 S 
ATOM     20  C   UNL     1      -1.273 -10.700  15.369  0.00  0.00    +0.182 C 
ATOM     21  O   UNL     1      -2.333 -10.585  14.898  0.00  0.00    -0.169 OA
ATOM     22  O   UNL     1      -1.750 -10.735  16.434  0.00  0.00    -0.169 OA
ENDBRANCH  16  19
ENDBRANCH  12  13
ENDBRANCH  11  12
ENDBRANCH  10  11
TORSDOF 7
ENDMDL
MODEL 9
REMARK VINA RESULT:      -5.7     13.941     16.494
REMARK  Name = 
REMARK  7 active torsions:
REMARK  status: ('A' for Active; 'I' for Inactive)
REMARK    1  A    between atoms: S_2  and  N_5
REMARK    2  A    between atoms: N_5  and  C_6
REMARK    3  A    between atoms: C_6  and  C_7
REMARK    4  A    between atoms: C_10  and  N_11
REMARK    5  A    between atoms: N_11  and  C_12
REMARK    6  A    between atoms: C_12  and  C_13
REMARK    7  A    between atoms: C_16  and  S_19
REMARK                            x       y       z     vdW  Elec       q    Type
REMARK                         _______ _______ _______ _____ _____    ______ ____
ROOT
ATOM      7  C   UNL     1      -6.700 -10.023  15.260  0.00  0.00    +0.166 C 
ATOM      8  O   UNL     1      -7.373 -10.043  14.784  0.00  0.00    -0.350 OA
ATOM      9  C   UNL     1      -7.131  -9.994  13.998  0.00  0.00    +0.162 C 
ATOM     10  C   UNL     1      -6.308  -9.944  13.987  0.00  0.00    +0.135 C 
ATOM     23  C   UNL     1      -6.041  -9.962  14.767  0.00  0.00    +0.199 C 
ATOM     24  O   UNL     1      -5.254  -9.926  15.011  0.00  0.00    -0.219 OA
ENDROOT
BRANCH   7   6
ATOM      6  C   UNL     1      -6.686 -10.058  16.084  0.00  0.00    +0.147 C 
BRANCH   6   5
ATOM      5  N   UNL     1      -7.385  -9.961  16.512  0.00  0.00    -0.079 NA
BRANCH   5   2
ATOM      1  C   UNL     1      -7.346  -9.951  18.161  0.00  0.00    +0.197 C 
ATOM      2  S   UNL     1      -7.365  -9.956  17.338  0.00  0.00    +0.059 S 
ATOM      3  O   UNL     1      -7.356 -10.781  17.343  0.00  0.00    -0.156 OA
ATOM      4  O   UNL     1      -7.375  -9.131  17.333  0.00  0.00    -0.156 OA
ENDBRANCH   5   2
ENDBRANCH   6   5
ENDBRANCH   7   6
BRANCH  10  11
ATOM     11  N   UNL     1      -5.834  -9.887  13.313  0.00  0.00    -0.209 NA
BRANCH  11  12
ATOM     12  C   UNL     1      -6.183  -9.835  12.567  0.00  0.00    +0.115 C 
BRANCH  12  13
ATOM     13  C   UNL     1      -5.724  -9.639  11.910  0.00  0.00    -0.005 A 
ATOM     14  C   UNL     1      -5.233 -10.207  11.566  0.00  0.00    -0.002 A 
ATOM     15  C   UNL     1      -4.774 -10.011  10.909  0.00  0.00    +0.018 A 
ATOM     16  C   UNL     1      -4.805  -9.248  10.597  0.00  0.00    +0.106 A 
ATOM     17  C   UNL     1      -5.295  -8.681  10.941  0.00  0.00    +0.018 A 
ATOM     18  C   UNL     1      -5.754  -8.877  11.598  0.00  0.00    -0.002 A 
BRANCH  16  19
ATOM     19  S   UNL     1      -4.346  -9.052   9.940  0.00  0.00    +0.010 S 
ATOM     20  C   UNL     1      -3.887  -8.857   9.283  0.00  0.00    +0.182 C 
ATOM     21  O   UNL     1      -3.700  -8.912  10.432  0.00  0.00    -0.169 OA
ATOM     22  O   UNL     1      -4.992  -9.193   9.447  0.00  0.00    -0.169 OA
ENDBRANCH  16  19
ENDBRANCH  12  13
ENDBRANCH  11  12
ENDBRANCH  10  11
TORSDOF 7
ENDMDL
MODEL 10
REMARK VINA RESULT:      -5.6     14.152     15.727
REMARK  Name = 
REMARK  7 active torsions:
REMARK  status: ('A' for Active; 'I' for Inactive)
REMARK    1  A    between atoms: S_2  and  N_5
REMARK    2  A    between atoms: N_5  and  C_6
REMARK    3  A    between atoms: C_6  and  C_7
REMARK    4  A    between atoms: C_10  and  N_11
REMARK    5  A    between atoms: N_11  and  C_12
REMARK    6  A    between atoms: C_12  and  C_13
REMARK    7  A    between atoms: C_16  and  S_19
REMARK                            x       y       z     vdW  Elec       q    Type
REMARK                         _______ _______ _______ _____ _____    ______ ____
ROOT
ATOM      7  C   UNL     1      -6.520 -10.023  16.269  0.00  0.00    +0.166 C 
ATOM      8  O   UNL     1      -5.870 -10.205  16.743  0.00  0.00    -0.350 OA
ATOM      9  C   UNL     1      -5.221 -10.327  16.249  0.00  0.00    +0.162 C 
ATOM     10  C   UNL     1      -5.470 -10.221  15.469  0.00  0.00    +0.135 C 
ATOM     23  C   UNL     1      -6.273 -10.033  15.481  0.00  0.00    +0.199 C 
ATOM     24  O   UNL     1      -6.746  -9.882  14.823  0.00  0.00    -0.219 OA
ENDROOT
BRANCH   7   6
ATOM      6  C   UNL     1      -7.284  -9.861  16.535  0.00  0.00    +0.147 C 
BRANCH   6   5
ATOM      5  N   UNL     1      -7.440  -9.827  17.344  0.00  0.00    -0.079 NA
BRANCH   5   2
ATOM      1  C   UNL     1      -8.987  -9.615  17.877  0.00  0.00    +0.197 C 
ATOM      2  S   UNL     1      -8.215  -9.721  17.611  0.00  0.00    +0.059 S 
ATOM      3  O   UNL     1      -8.142  -8.907  17.496  0.00  0.00    -0.156 OA
ATOM      4  O   UNL     1      -8.287 -10.535  17.726  0.00  0.00    -0.156 OA
ENDBRANCH   5   2
ENDBRANCH   6   5
ENDBRANCH   7   6
BRANCH  10  11
ATOM     11  N   UNL     1      -4.998 -10.290  14.796  0.00  0.00    -0.209 NA
BRANCH  11  12
ATOM     12  C   UNL     1      -4.279 -10.692  14.836  0.00  0.00    +0.115 C 
BRANCH  12  13
ATOM     13  C   UNL     1      -3.740 -10.636  14.213  0.00  0.00    -0.005 A 
ATOM     14  C   UNL     1      -2.952 -10.446  14.366  0.00  0.00    -0.002 A 
ATOM     15  C   UNL     1      -2.414 -10.390  13.743  0.00  0.00    +0.018 A 
ATOM     16  C   UNL     1      -2.663 -10.525  12.968  0.00  0.00    +0.106 A 
ATOM     17  C   UNL     1      -3.452 -10.715  12.816  0.00  0.00    +0.018 A 
ATOM     18  C   UNL     1      -3.990 -10.771  13.439  0.00  0.00    -0.002 A 
BRANCH  16  19
ATOM     19  S   UNL     1      -2.125 -10.469  12.346  0.00  0.00    +0.010 S 
ATOM     20  C   UNL     1      -1.587 -10.413  11.722  0.00  0.00    +0.182 C 
ATOM     21  O   UNL     1      -1.501 -10.554  12.877  0.00  0.00    -0.169 OA
ATOM     22  O   UNL     1      -2.751 -10.384  11.813  0.00  0.00    -0.169 OA
ENDBRANCH  16  19
ENDBRANCH  12  13
ENDBRANCH  11  12
ENDBRANCH  10  11
TORSDOF 7
ENDMDL
