MODEL 1
REMARK VINA RESULT:     -11.2      0.000      0.000
REMARK  Name = 
REMARK  6 active torsions:
REMARK  status: ('A' for Active; 'I' for Inactive)
REMARK    1  A    between atoms: N_2  and  C_4
REMARK    2  A    between atoms: C_7  and  C_10
REMARK    3  A    between atoms: N_12  and  C_13
REMARK    4  A    between atoms: C_18  and  C_19
REMARK    5  A    between atoms: C_19  and  C_20
REMARK    6  A    between atoms: C_20  and  C_21
REMARK                            x       y       z     vdW  Elec       q    Type
REMARK                         _______ _______ _______ _____ _____    ______ ____
ROOT
ATOM     13  C   UNL     1      -4.708   1.371  24.930  0.00  0.00    +0.113 C 
ATOM     14  C   UNL     1      -5.368   1.664  25.328  0.00  0.00    +0.048 C 
ATOM     15  C   UNL     1      -5.248   2.468  25.463  0.00  0.00    +0.138 C 
ATOM     16  N   UNL     1      -4.513   2.672  25.149  0.00  0.00    -0.265 NA
ATOM     17  C   UNL     1      -4.179   1.994  24.820  0.00  0.00    +0.094 C 
ATOM     18  C   UNL     1      -4.242   3.450  25.204  0.00  0.00    +0.080 C 
ATOM     29  C   UNL     1      -4.706   4.023  25.573  0.00  0.00    +0.131 C 
ATOM     30  N   UNL     1      -5.441   3.819  25.887  0.00  0.00    -0.203 NA
ATOM     31  C   UNL     1      -5.712   3.042  25.833  0.00  0.00    +0.256 C 
ATOM     32  O   UNL     1      -6.447   2.838  26.147  0.00  0.00    -0.272 OA
ENDROOT
BRANCH  13  12
ATOM     10  C   UNL     1      -4.067   0.103  25.089  0.00  0.00    +0.265 C 
ATOM     11  O   UNL     1      -3.648   0.397  25.737  0.00  0.00    -0.268 OA
ATOM     12  N   UNL     1      -4.597   0.591  24.686  0.00  0.00    -0.202 NA
BRANCH  10   7
ATOM      4  C   UNL     1      -3.731  -2.237  24.355  0.00  0.00    +0.048 A 
ATOM      5  C   UNL     1      -4.063  -1.685  23.839  0.00  0.00    +0.015 A 
ATOM      6  C   UNL     1      -4.174  -0.905  24.083  0.00  0.00    +0.006 A 
ATOM      7  C   UNL     1      -3.955  -0.677  24.844  0.00  0.00    +0.055 A 
ATOM      8  C   UNL     1      -3.624  -1.227  25.362  0.00  0.00    +0.006 A 
ATOM      9  C   UNL     1      -3.512  -2.007  25.117  0.00  0.00    +0.015 A 
BRANCH   4   2
ATOM      1  C   UNL     1      -2.891  -3.385  24.231  0.00  0.00    +0.112 C 
ATOM      2  N   UNL     1      -3.620  -3.016  24.111  0.00  0.00    -0.304 N 
ATOM      3  C   UNL     1      -4.235  -3.426  23.747  0.00  0.00    +0.112 C 
ENDBRANCH   4   2
ENDBRANCH  10   7
ENDBRANCH  13  12
BRANCH  18  19
ATOM     19  C   UNL     1      -3.507   3.654  24.890  0.00  0.00    +0.027 C 
BRANCH  19  20
ATOM     20  C   UNL     1      -2.866   3.787  25.391  0.00  0.00    +0.087 C 
BRANCH  20  21
ATOM     21  C   UNL     1      -2.146   4.043  25.082  0.00  0.00    +0.226 C 
ATOM     22  O   UNL     1      -2.129   4.654  24.528  0.00  0.00    -0.275 OA
ATOM     23  N   UNL     1      -1.443   3.688  25.325  0.00  0.00    -0.280 N 
ATOM     24  C   UNL     1      -0.722   3.943  25.016  0.00  0.00    +0.093 C 
ATOM     25  C   UNL     1      -0.018   3.588  25.260  0.00  0.00    +0.022 C 
ATOM     26  C   UNL     1      -0.036   2.976  25.813  0.00  0.00    +0.004 C 
ATOM     27  C   UNL     1      -0.757   2.721  26.123  0.00  0.00    +0.022 C 
ATOM     28  C   UNL     1      -1.460   3.076  25.879  0.00  0.00    +0.093 C 
ENDBRANCH  20  21
ENDBRANCH  19  20
ENDBRANCH  18  19
TORSDOF 6
ENDMDL
MODEL 2
REMARK VINA RESULT:      -9.8      3.386      5.548
REMARK  Name = 
REMARK  6 active torsions:
REMARK  status: ('A' for Active; 'I' for Inactive)
REMARK    1  A    between atoms: N_2  and  C_4
REMARK    2  A    between atoms: C_7  and  C_10
REMARK    3  A    between atoms: N_12  and  C_13
REMARK    4  A    between atoms: C_18  and  C_19
REMARK    5  A    between atoms: C_19  and  C_20
REMARK    6  A    between atoms: C_20  and  C_21
REMARK                            x       y       z     vdW  Elec       q    Type
REMARK                         _______ _______ _______ _____ _____    ______ ____
ROOT
ATOM     13  C   UNL     1      -0.462  -0.459  24.266  0.00  0.00    +0.113 C 
ATOM     14  C   UNL     1      -0.797  -1.210  24.336  0.00  0.00    +0.048 C 
ATOM     15  C   UNL     1      -1.593  -1.116  24.530  0.00  0.00    +0.138 C 
ATOM     16  N   UNL     1      -1.750  -0.308  24.580  0.00  0.00    -0.265 NA
ATOM     17  C   UNL     1      -1.051   0.098  24.417  0.00  0.00    +0.094 C 
ATOM     18  C   UNL     1      -2.510  -0.047  24.768  0.00  0.00    +0.080 C 
ATOM     29  C   UNL     1      -3.112  -0.593  24.906  0.00  0.00    +0.131 C 
ATOM     30  N   UNL     1      -2.954  -1.401  24.856  0.00  0.00    -0.203 NA
ATOM     31  C   UNL     1      -2.195  -1.663  24.668  0.00  0.00    +0.256 C 
ATOM     32  O   UNL     1      -2.038  -2.472  24.618  0.00  0.00    -0.272 OA
ENDROOT
BRANCH  13  12
ATOM     10  C   UNL     1       0.523  -0.042  23.318  0.00  0.00    +0.265 C 
ATOM     11  O   UNL     1      -0.066   0.047  22.746  0.00  0.00    -0.268 OA
ATOM     12  N   UNL     1       0.324  -0.295  24.078  0.00  0.00    -0.202 NA
BRANCH  10   7
ATOM      4  C   UNL     1       2.882   0.452  22.754  0.00  0.00    +0.048 A 
ATOM      5  C   UNL     1       2.470   0.943  23.273  0.00  0.00    +0.015 A 
ATOM      6  C   UNL     1       1.684   0.779  23.461  0.00  0.00    +0.006 A 
ATOM      7  C   UNL     1       1.309   0.123  23.130  0.00  0.00    +0.055 A 
ATOM      8  C   UNL     1       1.720  -0.369  22.611  0.00  0.00    +0.006 A 
ATOM      9  C   UNL     1       2.507  -0.204  22.423  0.00  0.00    +0.015 A 
BRANCH   4   2
ATOM      1  C   UNL     1       3.871   0.831  21.795  0.00  0.00    +0.112 C 
ATOM      2  N   UNL     1       3.668   0.617  22.566  0.00  0.00    -0.304 N 
ATOM      3  C   UNL     1       4.250   0.568  23.148  0.00  0.00    +0.112 C 
ENDBRANCH   4   2
ENDBRANCH  10   7
ENDBRANCH  13  12
BRANCH  18  19
ATOM     19  C   UNL     1      -2.667   0.762  24.818  0.00  0.00    +0.027 C 
BRANCH  19  20
ATOM     20  C   UNL     1      -3.445   1.028  24.884  0.00  0.00    +0.087 C 
BRANCH  20  21
ATOM     21  C   UNL     1      -3.600   1.833  24.978  0.00  0.00    +0.226 C 
ATOM     22  O   UNL     1      -2.985   2.379  24.928  0.00  0.00    -0.275 OA
ATOM     23  N   UNL     1      -4.370   2.090  25.121  0.00  0.00    -0.280 N 
ATOM     24  C   UNL     1      -4.525   2.895  25.215  0.00  0.00    +0.093 C 
ATOM     25  C   UNL     1      -5.296   3.153  25.358  0.00  0.00    +0.022 C 
ATOM     26  C   UNL     1      -5.911   2.606  25.407  0.00  0.00    +0.004 C 
ATOM     27  C   UNL     1      -5.756   1.801  25.313  0.00  0.00    +0.022 C 
ATOM     28  C   UNL     1      -4.986   1.544  25.170  0.00  0.00    +0.093 C 
ENDBRANCH  20  21
ENDBRANCH  19  20
ENDBRANCH  18  19
TORSDOF 6
ENDMDL
MODEL 3
REMARK VINA RESULT:      -9.8      1.898      3.848
REMARK  Name = 
REMARK  6 active torsions:
REMARK  status: ('A' for Active; 'I' for Inactive)
REMARK    1  A    between atoms: N_2  and  C_4
REMARK    2  A    between atoms: C_7  and  C_10
REMARK    3  A    between atoms: N_12  and  C_13
REMARK    4  A    between atoms: C_18  and  C_19
REMARK    5  A    between atoms: C_19  and  C_20
REMARK    6  A    between atoms: C_20  and  C_21
REMARK                            x       y       z     vdW  Elec       q    Type
REMARK                         _______ _______ _______ _____ _____    ______ ____
ROOT
ATOM     13  C   UNL     1      -1.151   2.407  25.402  0.00  0.00    +0.113 C 
ATOM     14  C   UNL     1      -0.679   3.008  25.092  0.00  0.00    +0.048 C 
ATOM     15  C   UNL     1      -1.093   3.717  25.158  0.00  0.00    +0.138 C 
ATOM     16  N   UNL     1      -1.822   3.556  25.510  0.00  0.00    -0.265 NA
ATOM     17  C   UNL     1      -1.858   2.746  25.661  0.00  0.00    +0.094 C 
ATOM     18  C   UNL     1      -2.358   4.168  25.647  0.00  0.00    +0.080 C 
ATOM     29  C   UNL     1      -2.166   4.940  25.433  0.00  0.00    +0.131 C 
ATOM     30  N   UNL     1      -1.438   5.102  25.081  0.00  0.00    -0.203 NA
ATOM     31  C   UNL     1      -0.901   4.491  24.943  0.00  0.00    +0.256 C 
ATOM     32  O   UNL     1      -0.172   4.653  24.592  0.00  0.00    -0.272 OA
ENDROOT
BRANCH  13  12
ATOM     10  C   UNL     1      -1.273   1.071  24.909  0.00  0.00    +0.265 C 
ATOM     11  O   UNL     1      -1.793   1.335  24.325  0.00  0.00    -0.268 OA
ATOM     12  N   UNL     1      -0.952   1.608  25.447  0.00  0.00    -0.202 NA
BRANCH  10   7
ATOM      4  C   UNL     1      -0.676  -1.327  25.042  0.00  0.00    +0.048 A 
ATOM      5  C   UNL     1      -0.353  -0.853  24.450  0.00  0.00    +0.015 A 
ATOM      6  C   UNL     1      -0.552  -0.054  24.405  0.00  0.00    +0.006 A 
ATOM      7  C   UNL     1      -1.074   0.272  24.953  0.00  0.00    +0.055 A 
ATOM      8  C   UNL     1      -1.398  -0.201  25.547  0.00  0.00    +0.006 A 
ATOM      9  C   UNL     1      -1.199  -1.000  25.592  0.00  0.00    +0.015 A 
BRANCH   4   2
ATOM      1  C   UNL     1      -0.992  -2.696  24.785  0.00  0.00    +0.112 C 
ATOM      2  N   UNL     1      -0.477  -2.126  25.087  0.00  0.00    -0.304 N 
ATOM      3  C   UNL     1       0.235  -2.355  25.433  0.00  0.00    +0.112 C 
ENDBRANCH   4   2
ENDBRANCH  10   7
ENDBRANCH  13  12
BRANCH  18  19
ATOM     19  C   UNL     1      -3.087   4.006  25.999  0.00  0.00    +0.027 C 
BRANCH  19  20
ATOM     20  C   UNL     1      -3.747   3.851  25.529  0.00  0.00    +0.087 C 
BRANCH  20  21
ATOM     21  C   UNL     1      -4.470   3.666  25.881  0.00  0.00    +0.226 C 
ATOM     22  O   UNL     1      -4.700   4.049  26.573  0.00  0.00    -0.275 OA
ATOM     23  N   UNL     1      -4.961   3.099  25.539  0.00  0.00    -0.280 N 
ATOM     24  C   UNL     1      -5.684   2.915  25.891  0.00  0.00    +0.093 C 
ATOM     25  C   UNL     1      -6.177   2.347  25.549  0.00  0.00    +0.022 C 
ATOM     26  C   UNL     1      -5.946   1.965  24.856  0.00  0.00    +0.004 C 
ATOM     27  C   UNL     1      -5.222   2.149  24.505  0.00  0.00    +0.022 C 
ATOM     28  C   UNL     1      -4.731   2.716  24.846  0.00  0.00    +0.093 C 
ENDBRANCH  20  21
ENDBRANCH  19  20
ENDBRANCH  18  19
TORSDOF 6
ENDMDL
MODEL 4
REMARK VINA RESULT:      -9.5      2.790      5.155
REMARK  Name = 
REMARK  6 active torsions:
REMARK  status: ('A' for Active; 'I' for Inactive)
REMARK    1  A    between atoms: N_2  and  C_4
REMARK    2  A    between atoms: C_7  and  C_10
REMARK    3  A    between atoms: N_12  and  C_13
REMARK    4  A    between atoms: C_18  and  C_19
REMARK    5  A    between atoms: C_19  and  C_20
REMARK    6  A    between atoms: C_20  and  C_21
REMARK                            x       y       z     vdW  Elec       q    Type
REMARK                         _______ _______ _______ _____ _____    ______ ____
ROOT
ATOM     13  C   UNL     1      -1.447   1.623  23.956  0.00  0.00    +0.113 C 
ATOM     14  C   UNL     1      -1.651   2.254  24.447  0.00  0.00    +0.048 C 
ATOM     15  C   UNL     1      -2.444   2.169  24.656  0.00  0.00    +0.138 C 
ATOM     16  N   UNL     1      -2.731   1.486  24.293  0.00  0.00    -0.265 NA
ATOM     17  C   UNL     1      -2.115   1.148  23.861  0.00  0.00    +0.094 C 
ATOM     18  C   UNL     1      -3.517   1.260  24.404  0.00  0.00    +0.080 C 
ATOM     29  C   UNL     1      -4.015   1.716  24.877  0.00  0.00    +0.131 C 
ATOM     30  N   UNL     1      -3.728   2.399  25.239  0.00  0.00    -0.203 NA
ATOM     31  C   UNL     1      -2.942   2.626  25.129  0.00  0.00    +0.256 C 
ATOM     32  O   UNL     1      -2.655   3.309  25.491  0.00  0.00    -0.272 OA
ENDROOT
BRANCH  13  12
ATOM     10  C   UNL     1      -0.196   0.933  23.950  0.00  0.00    +0.265 C 
ATOM     11  O   UNL     1      -0.428   0.507  24.618  0.00  0.00    -0.268 OA
ATOM     12  N   UNL     1      -0.706   1.491  23.619  0.00  0.00    -0.202 NA
BRANCH  10   7
ATOM      4  C   UNL     1       2.028   0.534  22.938  0.00  0.00    +0.048 A 
ATOM      5  C   UNL     1       1.410   0.005  22.800  0.00  0.00    +0.015 A 
ATOM      6  C   UNL     1       0.669   0.138  23.137  0.00  0.00    +0.006 A 
ATOM      7  C   UNL     1       0.545   0.800  23.613  0.00  0.00    +0.055 A 
ATOM      8  C   UNL     1       1.162   1.330  23.752  0.00  0.00    +0.006 A 
ATOM      9  C   UNL     1       1.903   1.197  23.415  0.00  0.00    +0.015 A 
BRANCH   4   2
ATOM      1  C   UNL     1       3.426   0.820  22.873  0.00  0.00    +0.112 C 
ATOM      2  N   UNL     1       2.769   0.401  22.601  0.00  0.00    -0.304 N 
ATOM      3  C   UNL     1       2.852  -0.150  21.994  0.00  0.00    +0.112 C 
ENDBRANCH   4   2
ENDBRANCH  10   7
ENDBRANCH  13  12
BRANCH  18  19
ATOM     19  C   UNL     1      -3.804   0.577  24.042  0.00  0.00    +0.027 C 
BRANCH  19  20
ATOM     20  C   UNL     1      -3.937  -0.104  24.489  0.00  0.00    +0.087 C 
BRANCH  20  21
ATOM     21  C   UNL     1      -4.103  -0.819  24.114  0.00  0.00    +0.226 C 
ATOM     22  O   UNL     1      -4.502  -0.823  23.392  0.00  0.00    -0.275 OA
ATOM     23  N   UNL     1      -3.871  -1.530  24.460  0.00  0.00    -0.280 N 
ATOM     24  C   UNL     1      -4.037  -2.245  24.085  0.00  0.00    +0.093 C 
ATOM     25  C   UNL     1      -3.805  -2.958  24.431  0.00  0.00    +0.022 C 
ATOM     26  C   UNL     1      -3.406  -2.953  25.153  0.00  0.00    +0.004 C 
ATOM     27  C   UNL     1      -3.239  -2.238  25.529  0.00  0.00    +0.022 C 
ATOM     28  C   UNL     1      -3.472  -1.527  25.182  0.00  0.00    +0.093 C 
ENDBRANCH  20  21
ENDBRANCH  19  20
ENDBRANCH  18  19
TORSDOF 6
ENDMDL
MODEL 5
REMARK VINA RESULT:      -9.4      2.145      5.765
REMARK  Name = 
REMARK  6 active torsions:
REMARK  status: ('A' for Active; 'I' for Inactive)
REMARK    1  A    between atoms: N_2  and  C_4
REMARK    2  A    between atoms: C_7  and  C_10
REMARK    3  A    between atoms: N_12  and  C_13
REMARK    4  A    between atoms: C_18  and  C_19
REMARK    5  A    between atoms: C_19  and  C_20
REMARK    6  A    between atoms: C_20  and  C_21
REMARK                            x       y       z     vdW  Elec       q    Type
REMARK                         _______ _______ _______ _____ _____    ______ ____
ROOT
ATOM     13  C   UNL     1      -1.732   1.458  24.817  0.00  0.00    +0.113 C 
ATOM     14  C   UNL     1      -1.046   1.717  24.441  0.00  0.00    +0.048 C 
ATOM     15  C   UNL     1      -0.568   1.060  24.300  0.00  0.00    +0.138 C 
ATOM     16  N   UNL     1      -0.960   0.394  24.589  0.00  0.00    -0.265 NA
ATOM     17  C   UNL     1      -1.679   0.639  24.908  0.00  0.00    +0.094 C 
ATOM     18  C   UNL     1      -0.610  -0.351  24.523  0.00  0.00    +0.080 C 
ATOM     29  C   UNL     1       0.130  -0.429  24.169  0.00  0.00    +0.131 C 
ATOM     30  N   UNL     1       0.522   0.237  23.880  0.00  0.00    -0.203 NA
ATOM     31  C   UNL     1       0.173   0.981  23.945  0.00  0.00    +0.256 C 
ATOM     32  O   UNL     1       0.565   1.647  23.656  0.00  0.00    -0.272 OA
ENDROOT
BRANCH  13  12
ATOM     10  C   UNL     1      -3.026   2.016  24.578  0.00  0.00    +0.265 C 
ATOM     11  O   UNL     1      -3.061   1.622  23.853  0.00  0.00    -0.268 OA
ATOM     12  N   UNL     1      -2.361   1.933  25.059  0.00  0.00    -0.202 NA
BRANCH  10   7
ATOM      4  C   UNL     1      -4.914   3.441  25.305  0.00  0.00    +0.048 A 
ATOM      5  C   UNL     1      -4.176   3.778  25.155  0.00  0.00    +0.015 A 
ATOM      6  C   UNL     1      -3.547   3.303  24.913  0.00  0.00    +0.006 A 
ATOM      7  C   UNL     1      -3.655   2.491  24.820  0.00  0.00    +0.055 A 
ATOM      8  C   UNL     1      -4.393   2.153  24.969  0.00  0.00    +0.006 A 
ATOM      9  C   UNL     1      -5.023   2.628  25.211  0.00  0.00    +0.015 A 
BRANCH   4   2
ATOM      1  C   UNL     1      -6.229   3.570  25.849  0.00  0.00    +0.112 C 
ATOM      2  N   UNL     1      -5.543   3.917  25.547  0.00  0.00    -0.304 N 
ATOM      3  C   UNL     1      -5.487   4.737  25.487  0.00  0.00    +0.112 C 
ENDBRANCH   4   2
ENDBRANCH  10   7
ENDBRANCH  13  12
BRANCH  18  19
ATOM     19  C   UNL     1      -1.002  -1.017  24.812  0.00  0.00    +0.027 C 
BRANCH  19  20
ATOM     20  C   UNL     1      -1.485  -1.461  24.313  0.00  0.00    +0.087 C 
BRANCH  20  21
ATOM     21  C   UNL     1      -1.829  -2.160  24.585  0.00  0.00    +0.226 C 
ATOM     22  O   UNL     1      -1.383  -2.695  25.024  0.00  0.00    -0.275 OA
ATOM     23  N   UNL     1      -2.620  -2.322  24.417  0.00  0.00    -0.280 N 
ATOM     24  C   UNL     1      -2.964  -3.021  24.689  0.00  0.00    +0.093 C 
ATOM     25  C   UNL     1      -3.756  -3.183  24.522  0.00  0.00    +0.022 C 
ATOM     26  C   UNL     1      -4.202  -2.647  24.082  0.00  0.00    +0.004 C 
ATOM     27  C   UNL     1      -3.858  -1.949  23.809  0.00  0.00    +0.022 C 
ATOM     28  C   UNL     1      -3.068  -1.786  23.977  0.00  0.00    +0.093 C 
ENDBRANCH  20  21
ENDBRANCH  19  20
ENDBRANCH  18  19
TORSDOF 6
ENDMDL
MODEL 6
REMARK VINA RESULT:      -9.4      1.574      3.470
REMARK  Name = 
REMARK  6 active torsions:
REMARK  status: ('A' for Active; 'I' for Inactive)
REMARK    1  A    between atoms: N_2  and  C_4
REMARK    2  A    between atoms: C_7  and  C_10
REMARK    3  A    between atoms: N_12  and  C_13
REMARK    4  A    between atoms: C_18  and  C_19
REMARK    5  A    between atoms: C_19  and  C_20
REMARK    6  A    between atoms: C_20  and  C_21
REMARK                            x       y       z     vdW  Elec       q    Type
REMARK                         _______ _______ _______ _____ _____    ______ ____
ROOT
ATOM     13  C   UNL     1      -1.181   0.785  25.062  0.00  0.00    +0.113 C 
ATOM     14  C   UNL     1      -0.446   0.960  24.732  0.00  0.00    +0.048 C 
ATOM     15  C   UNL     1      -0.284   1.755  24.878  0.00  0.00    +0.138 C 
ATOM     16  N   UNL     1      -0.919   2.072  25.298  0.00  0.00    -0.265 NA
ATOM     17  C   UNL     1      -1.474   1.473  25.412  0.00  0.00    +0.094 C 
ATOM     18  C   UNL     1      -0.910   2.867  25.522  0.00  0.00    +0.080 C 
ATOM     29  C   UNL     1      -0.267   3.343  25.326  0.00  0.00    +0.131 C 
ATOM     30  N   UNL     1       0.369   3.026  24.906  0.00  0.00    -0.203 NA
ATOM     31  C   UNL     1       0.361   2.233  24.682  0.00  0.00    +0.256 C 
ATOM     32  O   UNL     1       0.996   1.916  24.262  0.00  0.00    -0.272 OA
ENDROOT
BRANCH  13  12
ATOM     10  C   UNL     1      -2.154  -0.095  24.494  0.00  0.00    +0.265 C 
ATOM     11  O   UNL     1      -2.373   0.494  23.959  0.00  0.00    -0.268 OA
ATOM     12  N   UNL     1      -1.558   0.051  25.046  0.00  0.00    -0.202 NA
BRANCH  10   7
ATOM      4  C   UNL     1      -3.284  -2.296  24.445  0.00  0.00    +0.048 A 
ATOM      5  C   UNL     1      -2.460  -2.255  24.445  0.00  0.00    +0.015 A 
ATOM      6  C   UNL     1      -2.083  -1.521  24.462  0.00  0.00    +0.006 A 
ATOM      7  C   UNL     1      -2.530  -0.828  24.478  0.00  0.00    +0.055 A 
ATOM      8  C   UNL     1      -3.355  -0.868  24.478  0.00  0.00    +0.006 A 
ATOM      9  C   UNL     1      -3.731  -1.602  24.461  0.00  0.00    +0.015 A 
BRANCH   4   2
ATOM      1  C   UNL     1      -3.517  -3.580  25.027  0.00  0.00    +0.112 C 
ATOM      2  N   UNL     1      -3.661  -3.030  24.429  0.00  0.00    -0.304 N 
ATOM      3  C   UNL     1      -4.180  -3.213  23.815  0.00  0.00    +0.112 C 
ENDBRANCH   4   2
ENDBRANCH  10   7
ENDBRANCH  13  12
BRANCH  18  19
ATOM     19  C   UNL     1      -1.546   3.183  25.941  0.00  0.00    +0.027 C 
BRANCH  19  20
ATOM     20  C   UNL     1      -2.119   3.629  25.549  0.00  0.00    +0.087 C 
BRANCH  20  21
ATOM     21  C   UNL     1      -2.813   3.844  25.940  0.00  0.00    +0.226 C 
ATOM     22  O   UNL     1      -2.782   4.105  26.721  0.00  0.00    -0.275 OA
ATOM     23  N   UNL     1      -3.537   3.799  25.548  0.00  0.00    -0.280 N 
ATOM     24  C   UNL     1      -4.231   4.015  25.939  0.00  0.00    +0.093 C 
ATOM     25  C   UNL     1      -4.956   3.970  25.547  0.00  0.00    +0.022 C 
ATOM     26  C   UNL     1      -4.986   3.709  24.765  0.00  0.00    +0.004 C 
ATOM     27  C   UNL     1      -4.292   3.493  24.374  0.00  0.00    +0.022 C 
ATOM     28  C   UNL     1      -3.568   3.538  24.766  0.00  0.00    +0.093 C 
ENDBRANCH  20  21
ENDBRANCH  19  20
ENDBRANCH  18  19
TORSDOF 6
ENDMDL
MODEL 7
REMARK VINA RESULT:      -9.2      3.171      5.189
REMARK  Name = 
REMARK  6 active torsions:
REMARK  status: ('A' for Active; 'I' for Inactive)
REMARK    1  A    between atoms: N_2  and  C_4
REMARK    2  A    between atoms: C_7  and  C_10
REMARK    3  A    between atoms: N_12  and  C_13
REMARK    4  A    between atoms: C_18  and  C_19
REMARK    5  A    between atoms: C_19  and  C_20
REMARK    6  A    between atoms: C_20  and  C_21
REMARK                            x       y       z     vdW  Elec       q    Type
REMARK                         _______ _______ _______ _____ _____    ______ ____
ROOT
ATOM     13  C   UNL     1      -2.137   0.333  24.879  0.00  0.00    +0.113 C 
ATOM     14  C   UNL     1      -2.166  -0.489  24.937  0.00  0.00    +0.048 C 
ATOM     15  C   UNL     1      -1.463  -0.791  24.629  0.00  0.00    +0.138 C 
ATOM     16  N   UNL     1      -1.000  -0.156  24.380  0.00  0.00    -0.265 NA
ATOM     17  C   UNL     1      -1.415   0.539  24.534  0.00  0.00    +0.094 C 
ATOM     18  C   UNL     1      -0.258  -0.293  24.045  0.00  0.00    +0.080 C 
ATOM     29  C   UNL     1       0.019  -1.065  23.958  0.00  0.00    +0.131 C 
ATOM     30  N   UNL     1      -0.444  -1.700  24.207  0.00  0.00    -0.203 NA
ATOM     31  C   UNL     1      -1.186  -1.564  24.542  0.00  0.00    +0.256 C 
ATOM     32  O   UNL     1      -1.649  -2.199  24.791  0.00  0.00    -0.272 OA
ENDROOT
BRANCH  13  12
ATOM     10  C   UNL     1      -3.282   1.134  24.580  0.00  0.00    +0.265 C 
ATOM     11  O   UNL     1      -3.251   0.884  23.794  0.00  0.00    -0.268 OA
ATOM     12  N   UNL     1      -2.725   0.858  25.122  0.00  0.00    -0.202 NA
BRANCH  10   7
ATOM      4  C   UNL     1      -5.047   2.708  25.310  0.00  0.00    +0.048 A 
ATOM      5  C   UNL     1      -4.324   2.996  25.037  0.00  0.00    +0.015 A 
ATOM      6  C   UNL     1      -3.736   2.471  24.794  0.00  0.00    +0.006 A 
ATOM      7  C   UNL     1      -3.871   1.658  24.823  0.00  0.00    +0.055 A 
ATOM      8  C   UNL     1      -4.594   1.369  25.096  0.00  0.00    +0.006 A 
ATOM      9  C   UNL     1      -5.182   1.894  25.340  0.00  0.00    +0.015 A 
BRANCH   4   2
ATOM      1  C   UNL     1      -5.521   4.046  25.474  0.00  0.00    +0.112 C 
ATOM      2  N   UNL     1      -5.636   3.233  25.553  0.00  0.00    -0.304 N 
ATOM      3  C   UNL     1      -6.337   2.944  25.875  0.00  0.00    +0.112 C 
ENDBRANCH   4   2
ENDBRANCH  10   7
ENDBRANCH  13  12
BRANCH  18  19
ATOM     19  C   UNL     1       0.206   0.342  23.796  0.00  0.00    +0.027 C 
BRANCH  19  20
ATOM     20  C   UNL     1       0.950   0.206  23.467  0.00  0.00    +0.087 C 
BRANCH  20  21
ATOM     21  C   UNL     1       1.516   0.806  23.464  0.00  0.00    +0.226 C 
ATOM     22  O   UNL     1       1.358   1.523  23.840  0.00  0.00    -0.275 OA
ATOM     23  N   UNL     1       2.238   0.689  23.085  0.00  0.00    -0.280 N 
ATOM     24  C   UNL     1       2.804   1.290  23.082  0.00  0.00    +0.093 C 
ATOM     25  C   UNL     1       3.528   1.173  22.702  0.00  0.00    +0.022 C 
ATOM     26  C   UNL     1       3.685   0.455  22.326  0.00  0.00    +0.004 C 
ATOM     27  C   UNL     1       3.119  -0.145  22.329  0.00  0.00    +0.022 C 
ATOM     28  C   UNL     1       2.396  -0.028  22.708  0.00  0.00    +0.093 C 
ENDBRANCH  20  21
ENDBRANCH  19  20
ENDBRANCH  18  19
TORSDOF 6
ENDMDL
MODEL 8
REMARK VINA RESULT:      -9.0      2.331      5.103
REMARK  Name = 
REMARK  6 active torsions:
REMARK  status: ('A' for Active; 'I' for Inactive)
REMARK    1  A    between atoms: N_2  and  C_4
REMARK    2  A    between atoms: C_7  and  C_10
REMARK    3  A    between atoms: N_12  and  C_13
REMARK    4  A    between atoms: C_18  and  C_19
REMARK    5  A    between atoms: C_19  and  C_20
REMARK    6  A    between atoms: C_20  and  C_21
REMARK                            x       y       z     vdW  Elec       q    Type
REMARK                         _______ _______ _______ _____ _____    ______ ____
ROOT
ATOM     13  C   UNL     1      -3.895  -0.438  24.890  0.00  0.00    +0.113 C 
ATOM     14  C   UNL     1      -4.308  -1.083  24.586  0.00  0.00    +0.048 C 
ATOM     15  C   UNL     1      -3.766  -1.688  24.444  0.00  0.00    +0.138 C 
ATOM     16  N   UNL     1      -3.017  -1.416  24.660  0.00  0.00    -0.265 NA
ATOM     17  C   UNL     1      -3.097  -0.643  24.936  0.00  0.00    +0.094 C 
ATOM     18  C   UNL     1      -2.360  -1.909  24.577  0.00  0.00    +0.080 C 
ATOM     29  C   UNL     1      -2.451  -2.671  24.278  0.00  0.00    +0.131 C 
ATOM     30  N   UNL     1      -3.199  -2.943  24.062  0.00  0.00    -0.203 NA
ATOM     31  C   UNL     1      -3.857  -2.452  24.144  0.00  0.00    +0.256 C 
ATOM     32  O   UNL     1      -4.605  -2.724  23.928  0.00  0.00    -0.272 OA
ENDROOT
BRANCH  13  12
ATOM     10  C   UNL     1      -4.165   0.937  24.605  0.00  0.00    +0.265 C 
ATOM     11  O   UNL     1      -3.781   0.861  23.879  0.00  0.00    -0.268 OA
ATOM     12  N   UNL     1      -4.222   0.287  25.111  0.00  0.00    -0.202 NA
BRANCH  10   7
ATOM      4  C   UNL     1      -5.146   3.111  25.266  0.00  0.00    +0.048 A 
ATOM      5  C   UNL     1      -5.618   2.435  25.242  0.00  0.00    +0.015 A 
ATOM      6  C   UNL     1      -5.291   1.710  25.022  0.00  0.00    +0.006 A 
ATOM      7  C   UNL     1      -4.492   1.661  24.826  0.00  0.00    +0.055 A 
ATOM      8  C   UNL     1      -4.018   2.337  24.849  0.00  0.00    +0.006 A 
ATOM      9  C   UNL     1      -4.345   3.061  25.070  0.00  0.00    +0.015 A 
BRANCH   4   2
ATOM      1  C   UNL     1      -5.013   4.520  25.459  0.00  0.00    +0.112 C 
ATOM      2  N   UNL     1      -5.473   3.835  25.487  0.00  0.00    -0.304 N 
ATOM      3  C   UNL     1      -6.258   3.875  25.734  0.00  0.00    +0.112 C 
ENDBRANCH   4   2
ENDBRANCH  10   7
ENDBRANCH  13  12
BRANCH  18  19
ATOM     19  C   UNL     1      -1.612  -1.637  24.793  0.00  0.00    +0.027 C 
BRANCH  19  20
ATOM     20  C   UNL     1      -1.047  -1.477  24.213  0.00  0.00    +0.087 C 
BRANCH  20  21
ATOM     21  C   UNL     1      -0.313  -1.166  24.426  0.00  0.00    +0.226 C 
ATOM     22  O   UNL     1      -0.026  -1.274  25.192  0.00  0.00    -0.275 OA
ATOM     23  N   UNL     1       0.133  -0.748  23.874  0.00  0.00    -0.280 N 
ATOM     24  C   UNL     1       0.867  -0.437  24.087  0.00  0.00    +0.093 C 
ATOM     25  C   UNL     1       1.314  -0.018  23.533  0.00  0.00    +0.022 C 
ATOM     26  C   UNL     1       1.027   0.089  22.768  0.00  0.00    +0.004 C 
ATOM     27  C   UNL     1       0.293  -0.221  22.555  0.00  0.00    +0.022 C 
ATOM     28  C   UNL     1      -0.154  -0.640  23.108  0.00  0.00    +0.093 C 
ENDBRANCH  20  21
ENDBRANCH  19  20
ENDBRANCH  18  19
TORSDOF 6
ENDMDL
MODEL 9
REMARK VINA RESULT:      -8.6     13.644     14.960
REMARK  Name = 
REMARK  6 active torsions:
REMARK  status: ('A' for Active; 'I' for Inactive)
REMARK    1  A    between atoms: N_2  and  C_4
REMARK    2  A    between atoms: C_7  and  C_10
REMARK    3  A    between atoms: N_12  and  C_13
REMARK    4  A    between atoms: C_18  and  C_19
REMARK    5  A    between atoms: C_19  and  C_20
REMARK    6  A    between atoms: C_20  and  C_21
REMARK                            x       y       z     vdW  Elec       q    Type
REMARK                         _______ _______ _______ _____ _____    ______ ____
ROOT
ATOM     13  C   UNL     1      -5.416 -10.646  17.754  0.00  0.00    +0.113 C 
ATOM     14  C   UNL     1      -5.416 -10.592  18.577  0.00  0.00    +0.048 C 
ATOM     15  C   UNL     1      -6.192 -10.460  18.822  0.00  0.00    +0.138 C 
ATOM     16  N   UNL     1      -6.671 -10.433  18.151  0.00  0.00    -0.265 NA
ATOM     17  C   UNL     1      -6.192 -10.548  17.491  0.00  0.00    +0.094 C 
ATOM     18  C   UNL     1      -7.483 -10.307  18.230  0.00  0.00    +0.080 C 
ATOM     29  C   UNL     1      -7.816 -10.208  18.978  0.00  0.00    +0.131 C 
ATOM     30  N   UNL     1      -7.336 -10.236  19.649  0.00  0.00    -0.203 NA
ATOM     31  C   UNL     1      -6.525 -10.362  19.572  0.00  0.00    +0.256 C 
ATOM     32  O   UNL     1      -6.046 -10.389  20.243  0.00  0.00    -0.272 OA
ENDROOT
BRANCH  13  12
ATOM     10  C   UNL     1      -4.492 -10.184  16.766  0.00  0.00    +0.265 C 
ATOM     11  O   UNL     1      -4.890  -9.461  16.732  0.00  0.00    -0.268 OA
ATOM     12  N   UNL     1      -4.755 -10.776  17.277  0.00  0.00    -0.202 NA
BRANCH  10   7
ATOM      4  C   UNL     1      -2.510 -10.573  15.335  0.00  0.00    +0.048 A 
ATOM      5  C   UNL     1      -3.267 -10.717  15.040  0.00  0.00    +0.015 A 
ATOM      6  C   UNL     1      -3.928 -10.587  15.517  0.00  0.00    +0.006 A 
ATOM      7  C   UNL     1      -3.831 -10.313  16.289  0.00  0.00    +0.055 A 
ATOM      8  C   UNL     1      -3.075 -10.169  16.585  0.00  0.00    +0.006 A 
ATOM      9  C   UNL     1      -2.414 -10.299  16.108  0.00  0.00    +0.015 A 
BRANCH   4   2
ATOM      1  C   UNL     1      -1.937 -10.760  14.040  0.00  0.00    +0.112 C 
ATOM      2  N   UNL     1      -1.850 -10.702  14.858  0.00  0.00    -0.304 N 
ATOM      3  C   UNL     1      -1.103 -10.775  15.199  0.00  0.00    +0.112 C 
ENDBRANCH   4   2
ENDBRANCH  10   7
ENDBRANCH  13  12
BRANCH  18  19
ATOM     19  C   UNL     1      -7.962 -10.279  17.559  0.00  0.00    +0.027 C 
BRANCH  19  20
ATOM     20  C   UNL     1      -8.584  -9.739  17.517  0.00  0.00    +0.087 C 
BRANCH  20  21
ATOM     21  C   UNL     1      -9.032  -9.677  16.827  0.00  0.00    +0.226 C 
ATOM     22  O   UNL     1      -9.046 -10.300  16.287  0.00  0.00    -0.275 OA
ATOM     23  N   UNL     1      -9.466  -8.992  16.678  0.00  0.00    -0.280 N 
ATOM     24  C   UNL     1      -9.914  -8.931  15.988  0.00  0.00    +0.093 C 
ATOM     25  C   UNL     1     -10.349  -8.245  15.838  0.00  0.00    +0.022 C 
ATOM     26  C   UNL     1     -10.335  -7.622  16.378  0.00  0.00    +0.004 C 
ATOM     27  C   UNL     1      -9.887  -7.684  17.068  0.00  0.00    +0.022 C 
ATOM     28  C   UNL     1      -9.453  -8.369  17.218  0.00  0.00    +0.093 C 
ENDBRANCH  20  21
ENDBRANCH  19  20
ENDBRANCH  18  19
TORSDOF 6
ENDMDL
MODEL 10
REMARK VINA RESULT:      -7.8     14.302     16.941
REMARK  Name = 
REMARK  6 active torsions:
REMARK  status: ('A' for Active; 'I' for Inactive)
REMARK    1  A    between atoms: N_2  and  C_4
REMARK    2  A    between atoms: C_7  and  C_10
REMARK    3  A    between atoms: N_12  and  C_13
REMARK    4  A    between atoms: C_18  and  C_19
REMARK    5  A    between atoms: C_19  and  C_20
REMARK    6  A    between atoms: C_20  and  C_21
REMARK                            x       y       z     vdW  Elec       q    Type
REMARK                         _______ _______ _______ _____ _____    ______ ____
ROOT
ATOM     13  C   UNL     1      -4.314 -10.601  13.159  0.00  0.00    +0.113 C 
ATOM     14  C   UNL     1      -3.503 -10.594  13.308  0.00  0.00    +0.048 C 
ATOM     15  C   UNL     1      -3.392 -10.646  14.123  0.00  0.00    +0.138 C 
ATOM     16  N   UNL     1      -4.136 -10.685  14.479  0.00  0.00    -0.265 NA
ATOM     17  C   UNL     1      -4.705 -10.658  13.883  0.00  0.00    +0.094 C 
ATOM     18  C   UNL     1      -4.197 -10.741  15.300  0.00  0.00    +0.080 C 
ATOM     29  C   UNL     1      -3.516 -10.758  15.764  0.00  0.00    +0.131 C 
ATOM     30  N   UNL     1      -2.773 -10.718  15.409  0.00  0.00    -0.203 NA
ATOM     31  C   UNL     1      -2.710 -10.662  14.588  0.00  0.00    +0.256 C 
ATOM     32  O   UNL     1      -1.967 -10.623  14.232  0.00  0.00    -0.272 OA
ENDROOT
BRANCH  13  12
ATOM     10  C   UNL     1      -5.071  -9.875  12.189  0.00  0.00    +0.265 C 
ATOM     11  O   UNL     1      -5.113  -9.231  12.704  0.00  0.00    -0.268 OA
ATOM     12  N   UNL     1      -4.671 -10.559  12.417  0.00  0.00    -0.202 NA
BRANCH  10   7
ATOM      4  C   UNL     1      -6.144  -9.749   9.962  0.00  0.00    +0.048 A 
ATOM      5  C   UNL     1      -6.529 -10.128  10.585  0.00  0.00    +0.015 A 
ATOM      6  C   UNL     1      -6.172 -10.170  11.328  0.00  0.00    +0.006 A 
ATOM      7  C   UNL     1      -5.429  -9.833  11.447  0.00  0.00    +0.055 A 
ATOM      8  C   UNL     1      -5.043  -9.453  10.824  0.00  0.00    +0.006 A 
ATOM      9  C   UNL     1      -5.400  -9.412  10.082  0.00  0.00    +0.015 A 
BRANCH   4   2
ATOM      1  C   UNL     1      -7.107  -9.164   9.084  0.00  0.00    +0.112 C 
ATOM      2  N   UNL     1      -6.502  -9.708   9.220  0.00  0.00    -0.304 N 
ATOM      3  C   UNL     1      -6.254 -10.209   8.614  0.00  0.00    +0.112 C 
ENDBRANCH   4   2
ENDBRANCH  10   7
ENDBRANCH  13  12
BRANCH  18  19
ATOM     19  C   UNL     1      -4.940 -10.781  15.656  0.00  0.00    +0.027 C 
BRANCH  19  20
ATOM     20  C   UNL     1      -5.009 -10.725  16.476  0.00  0.00    +0.087 C 
BRANCH  20  21
ATOM     21  C   UNL     1      -5.755 -10.719  16.828  0.00  0.00    +0.226 C 
ATOM     22  O   UNL     1      -6.432 -10.699  16.359  0.00  0.00    -0.275 OA
ATOM     23  N   UNL     1      -5.822 -10.732  17.650  0.00  0.00    -0.280 N 
ATOM     24  C   UNL     1      -6.568 -10.725  18.002  0.00  0.00    +0.093 C 
ATOM     25  C   UNL     1      -6.636 -10.738  18.825  0.00  0.00    +0.022 C 
ATOM     26  C   UNL     1      -5.958 -10.758  19.294  0.00  0.00    +0.004 C 
ATOM     27  C   UNL     1      -5.212 -10.765  18.942  0.00  0.00    +0.022 C 
ATOM     28  C   UNL     1      -5.144 -10.752  18.120  0.00  0.00    +0.093 C 
ENDBRANCH  20  21
ENDBRANCH  19  20
ENDBRANCH  18  19
TORSDOF 6
ENDMDL
