MODEL 1
REMARK VINA RESULT:     -10.8      0.000      0.000
REMARK  Name = 
REMARK  6 active torsions:
REMARK  status: ('A' for Active; 'I' for Inactive)
REMARK    1  A    between atoms: O_2  and  C_3
REMARK    2  A    between atoms: C_3  and  C_4
REMARK    3  A    between atoms: C_4  and  C_5
REMARK    4  A    between atoms: C_16  and  N_17
REMARK    5  A    between atoms: C_18  and  C_20
REMARK    6  A    between atoms: C_20  and  S_21
REMARK                            x       y       z     vdW  Elec       q    Type
REMARK                         _______ _______ _______ _____ _____    ______ ____
ROOT
ATOM      5  C   UNL     1      -1.860  -0.674  24.664  0.00  0.00    +0.228 C 
ATOM      6  O   UNL     1      -2.427  -0.074  24.677  0.00  0.00    -0.275 OA
ATOM      7  N   UNL     1      -2.095  -1.462  24.598  0.00  0.00    -0.279 N 
ATOM      8  C   UNL     1      -2.028  -2.293  24.544  0.00  0.00    +0.095 C 
ATOM      9  C   UNL     1      -2.985  -2.532  24.480  0.00  0.00    +0.043 C 
ATOM     10  C   UNL     1      -3.715  -2.889  24.419  0.00  0.00    +0.011 C 
ATOM     11  C   UNL     1      -3.459  -2.238  24.476  0.00  0.00    +0.058 C 
ATOM     12  C   UNL     1      -2.530  -2.023  24.537  0.00  0.00    +0.099 C 
ATOM     13  C   UNL     1      -3.725  -1.360  24.524  0.00  0.00    +0.041 A 
ATOM     14  C   UNL     1      -4.408  -0.897  24.522  0.00  0.00    +0.014 A 
ATOM     15  C   UNL     1      -4.349  -0.076  24.581  0.00  0.00    +0.023 A 
ATOM     16  C   UNL     1      -3.608   0.282  24.643  0.00  0.00    +0.129 A 
ATOM     23  C   UNL     1      -2.926  -0.182  24.645  0.00  0.00    +0.276 A 
ATOM     24  O   UNL     1      -2.333   0.387  24.714  0.00  0.00    -0.266 OA
ATOM     25  N   UNL     1      -2.984  -1.002  24.585  0.00  0.00    -0.298 N 
ATOM     26  C   UNL     1      -3.254  -1.612  24.530  0.00  0.00    +0.110 C 
ENDROOT
BRANCH  16  17
ATOM     17  N   UNL     1      -3.551   1.102  24.702  0.00  0.00    -0.174 NA
ATOM     18  C   UNL     1      -4.226   1.554  24.842  0.00  0.00    +0.257 C 
ATOM     19  O   UNL     1      -4.960   1.186  24.922  0.00  0.00    -0.272 OA
BRANCH  18  20
ATOM     20  C   UNL     1      -4.168   2.376  24.901  0.00  0.00    +0.145 C 
BRANCH  20  21
ATOM     21  S   UNL     1      -4.790   2.811  25.224  0.00  0.00    -0.130 S 
ATOM     22  C   UNL     1      -4.693   3.616  25.379  0.00  0.00    +0.070 C 
ENDBRANCH  20  21
ENDBRANCH  18  20
ENDBRANCH  16  17
BRANCH   5   4
ATOM      4  C   UNL     1      -1.059  -0.486  24.717  0.00  0.00    +0.117 C 
BRANCH   4   3
ATOM      3  C   UNL     1      -0.625  -0.331  24.032  0.00  0.00    +0.152 C 
BRANCH   3   2
ATOM      1  C   UNL     1       0.625  -0.064  23.394  0.00  0.00    +0.174 C 
ATOM      2  O   UNL     1       0.182  -0.167  24.082  0.00  0.00    -0.351 OA
ENDBRANCH   3   2
ENDBRANCH   4   3
ENDBRANCH   5   4
TORSDOF 6
ENDMDL
MODEL 2
REMARK VINA RESULT:     -10.4      1.933      4.107
REMARK  Name = 
REMARK  6 active torsions:
REMARK  status: ('A' for Active; 'I' for Inactive)
REMARK    1  A    between atoms: O_2  and  C_3
REMARK    2  A    between atoms: C_3  and  C_4
REMARK    3  A    between atoms: C_4  and  C_5
REMARK    4  A    between atoms: C_16  and  N_17
REMARK    5  A    between atoms: C_18  and  C_20
REMARK    6  A    between atoms: C_20  and  S_21
REMARK                            x       y       z     vdW  Elec       q    Type
REMARK                         _______ _______ _______ _____ _____    ______ ____
ROOT
ATOM      5  C   UNL     1      -3.530   2.713  24.641  0.00  0.00    +0.228 C 
ATOM      6  O   UNL     1      -3.186   1.962  24.624  0.00  0.00    -0.275 OA
ATOM      7  N   UNL     1      -4.329   2.797  24.827  0.00  0.00    -0.279 N 
ATOM      8  C   UNL     1      -5.060   3.175  24.971  0.00  0.00    +0.095 C 
ATOM      9  C   UNL     1      -5.618   2.386  25.177  0.00  0.00    +0.043 C 
ATOM     10  C   UNL     1      -6.201   1.850  25.367  0.00  0.00    +0.011 C 
ATOM     11  C   UNL     1      -5.519   1.838  25.202  0.00  0.00    +0.058 C 
ATOM     12  C   UNL     1      -4.993   2.611  25.005  0.00  0.00    +0.099 C 
ATOM     13  C   UNL     1      -4.816   1.257  25.083  0.00  0.00    +0.041 A 
ATOM     14  C   UNL     1      -4.639   0.452  25.112  0.00  0.00    +0.014 A 
ATOM     15  C   UNL     1      -3.873   0.193  24.949  0.00  0.00    +0.023 A 
ATOM     16  C   UNL     1      -3.284   0.739  24.757  0.00  0.00    +0.129 A 
ATOM     23  C   UNL     1      -3.462   1.544  24.729  0.00  0.00    +0.276 A 
ATOM     24  O   UNL     1      -2.734   1.873  24.522  0.00  0.00    -0.266 OA
ATOM     25  N   UNL     1      -4.228   1.803  24.891  0.00  0.00    -0.298 N 
ATOM     26  C   UNL     1      -4.878   1.787  25.051  0.00  0.00    +0.110 C 
ENDROOT
BRANCH  16  17
ATOM     17  N   UNL     1      -2.519   0.479  24.595  0.00  0.00    -0.174 NA
ATOM     18  C   UNL     1      -2.270  -0.263  24.856  0.00  0.00    +0.257 C 
ATOM     19  O   UNL     1      -2.788  -0.746  25.280  0.00  0.00    -0.272 OA
BRANCH  18  20
ATOM     20  C   UNL     1      -1.504  -0.523  24.693  0.00  0.00    +0.145 C 
BRANCH  20  21
ATOM     21  S   UNL     1      -1.185  -1.156  25.114  0.00  0.00    -0.130 S 
ATOM     22  C   UNL     1      -0.407  -1.393  24.975  0.00  0.00    +0.070 C 
ENDBRANCH  20  21
ENDBRANCH  18  20
ENDBRANCH  16  17
BRANCH   5   4
ATOM      4  C   UNL     1      -3.074   3.379  24.470  0.00  0.00    +0.117 C 
BRANCH   4   3
ATOM      3  C   UNL     1      -2.636   3.742  25.068  0.00  0.00    +0.152 C 
BRANCH   3   2
ATOM      1  C   UNL     1      -1.620   4.701  25.371  0.00  0.00    +0.174 C 
ATOM      2  O   UNL     1      -2.281   4.475  24.932  0.00  0.00    -0.351 OA
ENDBRANCH   3   2
ENDBRANCH   4   3
ENDBRANCH   5   4
TORSDOF 6
ENDMDL
MODEL 3
REMARK VINA RESULT:     -10.3      1.856      4.009
REMARK  Name = 
REMARK  6 active torsions:
REMARK  status: ('A' for Active; 'I' for Inactive)
REMARK    1  A    between atoms: O_2  and  C_3
REMARK    2  A    between atoms: C_3  and  C_4
REMARK    3  A    between atoms: C_4  and  C_5
REMARK    4  A    between atoms: C_16  and  N_17
REMARK    5  A    between atoms: C_18  and  C_20
REMARK    6  A    between atoms: C_20  and  S_21
REMARK                            x       y       z     vdW  Elec       q    Type
REMARK                         _______ _______ _______ _____ _____    ______ ____
ROOT
ATOM      5  C   UNL     1      -2.628   2.437  24.928  0.00  0.00    +0.228 C 
ATOM      6  O   UNL     1      -2.897   1.670  24.783  0.00  0.00    -0.275 OA
ATOM      7  N   UNL     1      -3.167   3.034  25.116  0.00  0.00    -0.279 N 
ATOM      8  C   UNL     1      -3.449   3.795  25.314  0.00  0.00    +0.095 C 
ATOM      9  C   UNL     1      -4.416   3.604  25.370  0.00  0.00    +0.043 C 
ATOM     10  C   UNL     1      -5.227   3.612  25.454  0.00  0.00    +0.011 C 
ATOM     11  C   UNL     1      -4.726   3.145  25.299  0.00  0.00    +0.058 C 
ATOM     12  C   UNL     1      -3.793   3.346  25.249  0.00  0.00    +0.099 C 
ATOM     13  C   UNL     1      -4.606   2.259  25.088  0.00  0.00    +0.041 A 
ATOM     14  C   UNL     1      -5.036   1.564  24.976  0.00  0.00    +0.014 A 
ATOM     15  C   UNL     1      -4.645   0.864  24.780  0.00  0.00    +0.023 A 
ATOM     16  C   UNL     1      -3.824   0.860  24.696  0.00  0.00    +0.129 A 
ATOM     23  C   UNL     1      -3.395   1.555  24.808  0.00  0.00    +0.276 A 
ATOM     24  O   UNL     1      -2.621   1.302  24.673  0.00  0.00    -0.266 OA
ATOM     25  N   UNL     1      -3.786   2.254  25.004  0.00  0.00    -0.298 N 
ATOM     26  C   UNL     1      -4.282   2.679  25.149  0.00  0.00    +0.110 C 
ENDROOT
BRANCH  16  17
ATOM     17  N   UNL     1      -3.434   0.160  24.500  0.00  0.00    -0.174 NA
ATOM     18  C   UNL     1      -3.854  -0.548  24.455  0.00  0.00    +0.257 C 
ATOM     19  O   UNL     1      -4.665  -0.557  24.605  0.00  0.00    -0.272 OA
BRANCH  18  20
ATOM     20  C   UNL     1      -3.463  -1.248  24.258  0.00  0.00    +0.145 C 
BRANCH  20  21
ATOM     21  S   UNL     1      -3.873  -1.963  24.257  0.00  0.00    -0.130 S 
ATOM     22  C   UNL     1      -3.459  -2.677  24.265  0.00  0.00    +0.070 C 
ENDBRANCH  20  21
ENDBRANCH  18  20
ENDBRANCH  16  17
BRANCH   5   4
ATOM      4  C   UNL     1      -1.823   2.608  24.884  0.00  0.00    +0.117 C 
BRANCH   4   3
ATOM      3  C   UNL     1      -1.343   2.506  25.548  0.00  0.00    +0.152 C 
BRANCH   3   2
ATOM      1  C   UNL     1      -0.060   2.586  26.172  0.00  0.00    +0.174 C 
ATOM      2  O   UNL     1      -0.541   2.697  25.511  0.00  0.00    -0.351 OA
ENDBRANCH   3   2
ENDBRANCH   4   3
ENDBRANCH   5   4
TORSDOF 6
ENDMDL
MODEL 4
REMARK VINA RESULT:     -10.1      1.556      3.156
REMARK  Name = 
REMARK  6 active torsions:
REMARK  status: ('A' for Active; 'I' for Inactive)
REMARK    1  A    between atoms: O_2  and  C_3
REMARK    2  A    between atoms: C_3  and  C_4
REMARK    3  A    between atoms: C_4  and  C_5
REMARK    4  A    between atoms: C_16  and  N_17
REMARK    5  A    between atoms: C_18  and  C_20
REMARK    6  A    between atoms: C_20  and  S_21
REMARK                            x       y       z     vdW  Elec       q    Type
REMARK                         _______ _______ _______ _____ _____    ______ ____
ROOT
ATOM      5  C   UNL     1      -3.912   0.203  24.364  0.00  0.00    +0.228 C 
ATOM      6  O   UNL     1      -3.141   0.451  24.521  0.00  0.00    -0.275 OA
ATOM      7  N   UNL     1      -4.087  -0.603  24.329  0.00  0.00    -0.279 N 
ATOM      8  C   UNL     1      -4.540  -1.299  24.237  0.00  0.00    +0.095 C 
ATOM      9  C   UNL     1      -3.836  -1.976  24.382  0.00  0.00    +0.043 C 
ATOM     10  C   UNL     1      -3.381  -2.645  24.475  0.00  0.00    +0.011 C 
ATOM     11  C   UNL     1      -3.290  -1.950  24.493  0.00  0.00    +0.058 C 
ATOM     12  C   UNL     1      -3.982  -1.307  24.351  0.00  0.00    +0.099 C 
ATOM     13  C   UNL     1      -2.643  -1.311  24.624  0.00  0.00    +0.041 A 
ATOM     14  C   UNL     1      -1.837  -1.239  24.788  0.00  0.00    +0.014 A 
ATOM     15  C   UNL     1      -1.496  -0.491  24.857  0.00  0.00    +0.023 A 
ATOM     16  C   UNL     1      -1.960   0.185  24.762  0.00  0.00    +0.129 A 
ATOM     23  C   UNL     1      -2.765   0.113  24.598  0.00  0.00    +0.276 A 
ATOM     24  O   UNL     1      -3.001   0.902  24.549  0.00  0.00    -0.266 OA
ATOM     25  N   UNL     1      -3.106  -0.635  24.529  0.00  0.00    -0.298 N 
ATOM     26  C   UNL     1      -3.166  -1.301  24.517  0.00  0.00    +0.110 C 
ENDROOT
BRANCH  16  17
ATOM     17  N   UNL     1      -1.618   0.932  24.831  0.00  0.00    -0.174 NA
ATOM     18  C   UNL     1      -0.931   1.032  25.277  0.00  0.00    +0.257 C 
ATOM     19  O   UNL     1      -0.586   0.384  25.654  0.00  0.00    -0.272 OA
BRANCH  18  20
ATOM     20  C   UNL     1      -0.589   1.780  25.346  0.00  0.00    +0.145 C 
BRANCH  20  21
ATOM     21  S   UNL     1      -0.205   1.996  26.043  0.00  0.00    -0.130 S 
ATOM     22  C   UNL     1       0.130   2.746  26.115  0.00  0.00    +0.070 C 
ENDBRANCH  20  21
ENDBRANCH  18  20
ENDBRANCH  16  17
BRANCH   5   4
ATOM      4  C   UNL     1      -4.508   0.759  24.242  0.00  0.00    +0.117 C 
BRANCH   4   3
ATOM      3  C   UNL     1      -4.883   1.111  24.888  0.00  0.00    +0.152 C 
BRANCH   3   2
ATOM      1  C   UNL     1      -5.854   2.019  25.412  0.00  0.00    +0.174 C 
ATOM      2  O   UNL     1      -5.497   1.649  24.767  0.00  0.00    -0.351 OA
ENDBRANCH   3   2
ENDBRANCH   4   3
ENDBRANCH   5   4
TORSDOF 6
ENDMDL
MODEL 5
REMARK VINA RESULT:     -10.0      2.286      5.066
REMARK  Name = 
REMARK  6 active torsions:
REMARK  status: ('A' for Active; 'I' for Inactive)
REMARK    1  A    between atoms: O_2  and  C_3
REMARK    2  A    between atoms: C_3  and  C_4
REMARK    3  A    between atoms: C_4  and  C_5
REMARK    4  A    between atoms: C_16  and  N_17
REMARK    5  A    between atoms: C_18  and  C_20
REMARK    6  A    between atoms: C_20  and  S_21
REMARK                            x       y       z     vdW  Elec       q    Type
REMARK                         _______ _______ _______ _____ _____    ______ ____
ROOT
ATOM      5  C   UNL     1      -3.363   2.661  24.667  0.00  0.00    +0.228 C 
ATOM      6  O   UNL     1      -2.862   2.013  24.771  0.00  0.00    -0.275 OA
ATOM      7  N   UNL     1      -3.082   3.425  24.803  0.00  0.00    -0.279 N 
ATOM      8  C   UNL     1      -3.087   4.259  24.858  0.00  0.00    +0.095 C 
ATOM      9  C   UNL     1      -2.154   4.411  25.145  0.00  0.00    +0.043 C 
ATOM     10  C   UNL     1      -1.430   4.701  25.380  0.00  0.00    +0.011 C 
ATOM     11  C   UNL     1      -1.721   4.076  25.251  0.00  0.00    +0.058 C 
ATOM     12  C   UNL     1      -2.626   3.945  24.974  0.00  0.00    +0.099 C 
ATOM     13  C   UNL     1      -1.528   3.177  25.246  0.00  0.00    +0.041 A 
ATOM     14  C   UNL     1      -0.906   2.655  25.394  0.00  0.00    +0.014 A 
ATOM     15  C   UNL     1      -1.020   1.843  25.305  0.00  0.00    +0.023 A 
ATOM     16  C   UNL     1      -1.755   1.553  25.067  0.00  0.00    +0.129 A 
ATOM     23  C   UNL     1      -2.376   2.075  24.919  0.00  0.00    +0.276 A 
ATOM     24  O   UNL     1      -2.985   1.562  24.704  0.00  0.00    -0.266 OA
ATOM     25  N   UNL     1      -2.263   2.887  25.009  0.00  0.00    -0.298 N 
ATOM     26  C   UNL     1      -1.961   3.471  25.138  0.00  0.00    +0.110 C 
ENDROOT
BRANCH  16  17
ATOM     17  N   UNL     1      -1.868   0.741  24.978  0.00  0.00    -0.174 NA
ATOM     18  C   UNL     1      -1.243   0.220  25.113  0.00  0.00    +0.257 C 
ATOM     19  O   UNL     1      -0.504   0.511  25.337  0.00  0.00    -0.272 OA
BRANCH  18  20
ATOM     20  C   UNL     1      -1.357  -0.593  25.023  0.00  0.00    +0.145 C 
BRANCH  20  21
ATOM     21  S   UNL     1      -0.712  -1.106  25.056  0.00  0.00    -0.130 S 
ATOM     22  C   UNL     1      -0.830  -1.921  25.007  0.00  0.00    +0.070 C 
ENDBRANCH  20  21
ENDBRANCH  18  20
ENDBRANCH  16  17
BRANCH   5   4
ATOM      4  C   UNL     1      -4.143   2.545  24.428  0.00  0.00    +0.117 C 
BRANCH   4   3
ATOM      3  C   UNL     1      -4.727   2.385  24.989  0.00  0.00    +0.152 C 
BRANCH   3   2
ATOM      1  C   UNL     1      -6.090   2.099  25.309  0.00  0.00    +0.174 C 
ATOM      2  O   UNL     1      -5.509   2.269  24.749  0.00  0.00    -0.351 OA
ENDBRANCH   3   2
ENDBRANCH   4   3
ENDBRANCH   5   4
TORSDOF 6
ENDMDL
MODEL 6
REMARK VINA RESULT:      -9.9      2.013      4.060
REMARK  Name = 
REMARK  6 active torsions:
REMARK  status: ('A' for Active; 'I' for Inactive)
REMARK    1  A    between atoms: O_2  and  C_3
REMARK    2  A    between atoms: C_3  and  C_4
REMARK    3  A    between atoms: C_4  and  C_5
REMARK    4  A    between atoms: C_16  and  N_17
REMARK    5  A    between atoms: C_18  and  C_20
REMARK    6  A    between atoms: C_20  and  S_21
REMARK                            x       y       z     vdW  Elec       q    Type
REMARK                         _______ _______ _______ _____ _____    ______ ____
ROOT
ATOM      5  C   UNL     1      -4.268   0.874  24.635  0.00  0.00    +0.228 C 
ATOM      6  O   UNL     1      -3.580   1.299  24.468  0.00  0.00    -0.275 OA
ATOM      7  N   UNL     1      -4.926   1.260  24.951  0.00  0.00    -0.279 N 
ATOM      8  C   UNL     1      -5.698   1.363  25.252  0.00  0.00    +0.095 C 
ATOM      9  C   UNL     1      -5.675   2.334  25.436  0.00  0.00    +0.043 C 
ATOM     10  C   UNL     1      -5.816   3.110  25.640  0.00  0.00    +0.011 C 
ATOM     11  C   UNL     1      -5.288   2.731  25.374  0.00  0.00    +0.058 C 
ATOM     12  C   UNL     1      -5.326   1.792  25.202  0.00  0.00    +0.099 C 
ATOM     13  C   UNL     1      -4.423   2.811  25.074  0.00  0.00    +0.041 A 
ATOM     14  C   UNL     1      -3.831   3.375  24.970  0.00  0.00    +0.014 A 
ATOM     15  C   UNL     1      -3.100   3.153  24.659  0.00  0.00    +0.023 A 
ATOM     16  C   UNL     1      -2.961   2.366  24.453  0.00  0.00    +0.129 A 
ATOM     23  C   UNL     1      -3.553   1.802  24.557  0.00  0.00    +0.276 A 
ATOM     24  O   UNL     1      -3.185   1.115  24.288  0.00  0.00    -0.266 OA
ATOM     25  N   UNL     1      -4.284   2.024  24.868  0.00  0.00    -0.298 N 
ATOM     26  C   UNL     1      -4.771   2.407  25.121  0.00  0.00    +0.110 C 
ENDROOT
BRANCH  16  17
ATOM     17  N   UNL     1      -2.229   2.145  24.143  0.00  0.00    -0.174 NA
ATOM     18  C   UNL     1      -1.555   2.584  24.323  0.00  0.00    +0.257 C 
ATOM     19  O   UNL     1      -1.611   3.245  24.814  0.00  0.00    -0.272 OA
BRANCH  18  20
ATOM     20  C   UNL     1      -0.822   2.362  24.012  0.00  0.00    +0.145 C 
BRANCH  20  21
ATOM     21  S   UNL     1      -0.153   2.362  24.494  0.00  0.00    -0.130 S 
ATOM     22  C   UNL     1       0.530   1.969  24.250  0.00  0.00    +0.070 C 
ENDBRANCH  20  21
ENDBRANCH  18  20
ENDBRANCH  16  17
BRANCH   5   4
ATOM      4  C   UNL     1      -4.298   0.063  24.486  0.00  0.00    +0.117 C 
BRANCH   4   3
ATOM      3  C   UNL     1      -3.969  -0.468  25.025  0.00  0.00    +0.152 C 
BRANCH   3   2
ATOM      1  C   UNL     1      -3.595  -1.802  25.373  0.00  0.00    +0.174 C 
ATOM      2  O   UNL     1      -3.976  -1.278  24.863  0.00  0.00    -0.351 OA
ENDBRANCH   3   2
ENDBRANCH   4   3
ENDBRANCH   5   4
TORSDOF 6
ENDMDL
MODEL 7
REMARK VINA RESULT:      -9.7      2.697      4.252
REMARK  Name = 
REMARK  6 active torsions:
REMARK  status: ('A' for Active; 'I' for Inactive)
REMARK    1  A    between atoms: O_2  and  C_3
REMARK    2  A    between atoms: C_3  and  C_4
REMARK    3  A    between atoms: C_4  and  C_5
REMARK    4  A    between atoms: C_16  and  N_17
REMARK    5  A    between atoms: C_18  and  C_20
REMARK    6  A    between atoms: C_20  and  S_21
REMARK                            x       y       z     vdW  Elec       q    Type
REMARK                         _______ _______ _______ _____ _____    ______ ____
ROOT
ATOM      5  C   UNL     1      -1.347   2.332  25.137  0.00  0.00    +0.228 C 
ATOM      6  O   UNL     1      -2.172   2.326  25.121  0.00  0.00    -0.275 OA
ATOM      7  N   UNL     1      -0.939   3.050  25.125  0.00  0.00    -0.279 N 
ATOM      8  C   UNL     1      -0.292   3.578  25.122  0.00  0.00    +0.095 C 
ATOM      9  C   UNL     1      -0.780   4.437  25.088  0.00  0.00    +0.043 C 
ATOM     10  C   UNL     1      -1.027   5.213  25.060  0.00  0.00    +0.011 C 
ATOM     11  C   UNL     1      -1.320   4.575  25.073  0.00  0.00    +0.058 C 
ATOM     12  C   UNL     1      -0.834   3.754  25.106  0.00  0.00    +0.099 C 
ATOM     13  C   UNL     1      -2.139   4.159  25.068  0.00  0.00    +0.041 A 
ATOM     14  C   UNL     1      -2.946   4.332  25.047  0.00  0.00    +0.014 A 
ATOM     15  C   UNL     1      -3.499   3.720  25.053  0.00  0.00    +0.023 A 
ATOM     16  C   UNL     1      -3.245   2.935  25.081  0.00  0.00    +0.129 A 
ATOM     23  C   UNL     1      -2.439   2.762  25.103  0.00  0.00    +0.276 A 
ATOM     24  O   UNL     1      -2.441   1.938  25.126  0.00  0.00    -0.266 OA
ATOM     25  N   UNL     1      -1.886   3.374  25.096  0.00  0.00    -0.298 N 
ATOM     26  C   UNL     1      -1.631   3.993  25.083  0.00  0.00    +0.110 C 
ENDROOT
BRANCH  16  17
ATOM     17  N   UNL     1      -3.799   2.324  25.088  0.00  0.00    -0.174 NA
ATOM     18  C   UNL     1      -4.605   2.497  25.076  0.00  0.00    +0.257 C 
ATOM     19  O   UNL     1      -4.859   3.282  25.058  0.00  0.00    -0.272 OA
BRANCH  18  20
ATOM     20  C   UNL     1      -5.159   1.884  25.083  0.00  0.00    +0.145 C 
BRANCH  20  21
ATOM     21  S   UNL     1      -5.955   2.049  25.220  0.00  0.00    -0.130 S 
ATOM     22  C   UNL     1      -6.533   1.498  25.013  0.00  0.00    +0.070 C 
ENDBRANCH  20  21
ENDBRANCH  18  20
ENDBRANCH  16  17
BRANCH   5   4
ATOM      4  C   UNL     1      -0.930   1.621  25.166  0.00  0.00    +0.117 C 
BRANCH   4   3
ATOM      3  C   UNL     1      -0.718   1.238  24.466  0.00  0.00    +0.152 C 
BRANCH   3   2
ATOM      1  C   UNL     1      -0.028   0.179  23.800  0.00  0.00    +0.174 C 
ATOM      2  O   UNL     1      -0.310   0.521  24.496  0.00  0.00    -0.351 OA
ENDBRANCH   3   2
ENDBRANCH   4   3
ENDBRANCH   5   4
TORSDOF 6
ENDMDL
MODEL 8
REMARK VINA RESULT:      -9.6      1.831      3.704
REMARK  Name = 
REMARK  6 active torsions:
REMARK  status: ('A' for Active; 'I' for Inactive)
REMARK    1  A    between atoms: O_2  and  C_3
REMARK    2  A    between atoms: C_3  and  C_4
REMARK    3  A    between atoms: C_4  and  C_5
REMARK    4  A    between atoms: C_16  and  N_17
REMARK    5  A    between atoms: C_18  and  C_20
REMARK    6  A    between atoms: C_20  and  S_21
REMARK                            x       y       z     vdW  Elec       q    Type
REMARK                         _______ _______ _______ _____ _____    ______ ____
ROOT
ATOM      5  C   UNL     1      -3.031   0.816  24.215  0.00  0.00    +0.228 C 
ATOM      6  O   UNL     1      -2.227   0.644  24.131  0.00  0.00    -0.275 OA
ATOM      7  N   UNL     1      -3.510   0.330  24.679  0.00  0.00    -0.279 N 
ATOM      8  C   UNL     1      -4.200   0.047  25.055  0.00  0.00    +0.095 C 
ATOM      9  C   UNL     1      -3.825  -0.743  25.516  0.00  0.00    +0.043 C 
ATOM     10  C   UNL     1      -3.676  -1.414  25.952  0.00  0.00    +0.011 C 
ATOM     11  C   UNL     1      -3.316  -0.969  25.546  0.00  0.00    +0.058 C 
ATOM     12  C   UNL     1      -3.694  -0.209  25.106  0.00  0.00    +0.099 C 
ATOM     13  C   UNL     1      -2.472  -0.811  25.220  0.00  0.00    +0.041 A 
ATOM     14  C   UNL     1      -1.708  -1.122  25.244  0.00  0.00    +0.014 A 
ATOM     15  C   UNL     1      -1.099  -0.752  24.828  0.00  0.00    +0.023 A 
ATOM     16  C   UNL     1      -1.255  -0.071  24.387  0.00  0.00    +0.129 A 
ATOM     23  C   UNL     1      -2.018   0.239  24.363  0.00  0.00    +0.276 A 
ATOM     24  O   UNL     1      -1.921   0.897  23.875  0.00  0.00    -0.266 OA
ATOM     25  N   UNL     1      -2.627  -0.131  24.779  0.00  0.00    -0.298 N 
ATOM     26  C   UNL     1      -2.946  -0.570  25.171  0.00  0.00    +0.110 C 
ENDROOT
BRANCH  16  17
ATOM     17  N   UNL     1      -0.646   0.298  23.972  0.00  0.00    -0.174 NA
ATOM     18  C   UNL     1       0.035  -0.124  23.774  0.00  0.00    +0.257 C 
ATOM     19  O   UNL     1       0.106  -0.917  23.992  0.00  0.00    -0.272 OA
BRANCH  18  20
ATOM     20  C   UNL     1       0.644   0.246  23.358  0.00  0.00    +0.145 C 
BRANCH  20  21
ATOM     21  S   UNL     1       1.205  -0.207  22.957  0.00  0.00    -0.130 S 
ATOM     22  C   UNL     1       1.870   0.155  22.629  0.00  0.00    +0.070 C 
ENDBRANCH  20  21
ENDBRANCH  18  20
ENDBRANCH  16  17
BRANCH   5   4
ATOM      4  C   UNL     1      -3.354   1.472  23.834  0.00  0.00    +0.117 C 
BRANCH   4   3
ATOM      3  C   UNL     1      -3.382   2.201  24.221  0.00  0.00    +0.152 C 
BRANCH   3   2
ATOM      1  C   UNL     1      -3.814   3.562  24.258  0.00  0.00    +0.174 C 
ATOM      2  O   UNL     1      -3.715   2.855  23.844  0.00  0.00    -0.351 OA
ENDBRANCH   3   2
ENDBRANCH   4   3
ENDBRANCH   5   4
TORSDOF 6
ENDMDL
