MODEL 1
REMARK VINA RESULT:     -16.7      0.000      0.000
REMARK  Name = 
REMARK  4 active torsions:
REMARK  status: ('A' for Active; 'I' for Inactive)
REMARK    1  A    between atoms: C_2  and  C_32
REMARK    2  A    between atoms: N_3  and  C_4
REMARK    3  A    between atoms: C_14  and  C_16
REMARK    4  A    between atoms: C_19  and  C_22
REMARK                            x       y       z     vdW  Elec       q    Type
REMARK                         _______ _______ _______ _____ _____    ______ ____
ROOT
ATOM      4  C   UNL     1      -2.960   2.950  24.287  0.00  0.00    +0.130 A 
ATOM      5  C   UNL     1      -3.188   3.732  24.420  0.00  0.00    +0.023 A 
ATOM      6  C   UNL     1      -3.922   3.896  24.759  0.00  0.00    +0.014 A 
ATOM      7  C   UNL     1      -4.427   3.278  24.966  0.00  0.00    +0.041 A 
ATOM      8  C   UNL     1      -5.254   3.126  25.337  0.00  0.00    +0.058 C 
ATOM      9  C   UNL     1      -5.809   3.464  25.602  0.00  0.00    +0.011 C 
ATOM     10  C   UNL     1      -5.581   2.694  25.470  0.00  0.00    +0.043 C 
ATOM     11  C   UNL     1      -5.487   1.713  25.392  0.00  0.00    +0.096 C 
ATOM     12  N   UNL     1      -4.728   1.672  25.045  0.00  0.00    -0.276 N 
ATOM     13  C   UNL     1      -5.179   2.176  25.268  0.00  0.00    +0.099 C 
ATOM     14  C   UNL     1      -4.046   1.337  24.723  0.00  0.00    +0.249 C 
ATOM     15  O   UNL     1      -3.431   1.823  24.461  0.00  0.00    -0.270 OA
ATOM     28  C   UNL     1      -4.715   2.842  25.082  0.00  0.00    +0.110 C 
ATOM     29  N   UNL     1      -4.199   2.496  24.834  0.00  0.00    -0.298 N 
ATOM     30  C   UNL     1      -3.465   2.332  24.495  0.00  0.00    +0.276 A 
ATOM     31  O   UNL     1      -3.027   1.670  24.272  0.00  0.00    -0.266 OA
ENDROOT
BRANCH  14  16
ATOM     16  C   UNL     1      -3.978   0.518  24.663  0.00  0.00    +0.054 A 
ATOM     17  C   UNL     1      -4.160   0.139  23.953  0.00  0.00    +0.005 A 
ATOM     18  C   UNL     1      -4.093  -0.681  23.893  0.00  0.00    +0.000 A 
ATOM     19  C   UNL     1      -3.842  -1.123  24.543  0.00  0.00    +0.000 A 
ATOM     20  C   UNL     1      -3.659  -0.745  25.253  0.00  0.00    +0.000 A 
ATOM     21  C   UNL     1      -3.727   0.075  25.313  0.00  0.00    +0.005 A 
BRANCH  19  22
ATOM     22  C   UNL     1      -3.774  -1.943  24.483  0.00  0.00    +0.000 A 
ATOM     23  C   UNL     1      -4.191  -2.350  23.899  0.00  0.00    +0.000 A 
ATOM     24  C   UNL     1      -4.123  -3.170  23.839  0.00  0.00    +0.000 A 
ATOM     25  C   UNL     1      -3.638  -3.583  24.363  0.00  0.00    +0.000 A 
ATOM     26  C   UNL     1      -3.222  -3.176  24.947  0.00  0.00    +0.000 A 
ATOM     27  C   UNL     1      -3.289  -2.356  25.007  0.00  0.00    +0.000 A 
ENDBRANCH  19  22
ENDBRANCH  14  16
BRANCH   4   3
ATOM      1  O   UNL     1      -0.812   2.993  23.895  0.00  0.00    -0.267 OA
ATOM      2  C   UNL     1      -1.547   3.157  24.235  0.00  0.00    +0.275 C 
ATOM      3  N   UNL     1      -2.226   2.787  23.948  0.00  0.00    -0.170 NA
BRANCH   2  32
ATOM     32  C   UNL     1      -1.601   3.690  24.863  0.00  0.00    +0.085 A 
ATOM     33  C   UNL     1      -1.571   3.498  25.665  0.00  0.00    +0.012 A 
ATOM     34  C   UNL     1      -1.647   4.198  26.096  0.00  0.00    +0.008 A 
ATOM     35  C   UNL     1      -1.724   4.821  25.560  0.00  0.00    +0.036 A 
ATOM     36  S   UNL     1      -1.695   4.507  24.798  0.00  0.00    -0.082 S 
ENDBRANCH   2  32
ENDBRANCH   4   3
TORSDOF 4
ENDMDL
MODEL 2
REMARK VINA RESULT:     -14.7      2.473      5.828
REMARK  Name = 
REMARK  4 active torsions:
REMARK  status: ('A' for Active; 'I' for Inactive)
REMARK    1  A    between atoms: C_2  and  C_32
REMARK    2  A    between atoms: N_3  and  C_4
REMARK    3  A    between atoms: C_14  and  C_16
REMARK    4  A    between atoms: C_19  and  C_22
REMARK                            x       y       z     vdW  Elec       q    Type
REMARK                         _______ _______ _______ _____ _____    ______ ____
ROOT
ATOM      4  C   UNL     1      -2.130  -0.799  25.402  0.00  0.00    +0.130 A 
ATOM      5  C   UNL     1      -1.911  -1.575  25.230  0.00  0.00    +0.023 A 
ATOM      6  C   UNL     1      -1.249  -1.722  24.760  0.00  0.00    +0.014 A 
ATOM      7  C   UNL     1      -0.807  -1.093  24.462  0.00  0.00    +0.041 A 
ATOM      8  C   UNL     1      -0.067  -0.922  23.944  0.00  0.00    +0.058 C 
ATOM      9  C   UNL     1       0.437  -1.248  23.580  0.00  0.00    +0.011 C 
ATOM     10  C   UNL     1       0.217  -0.482  23.752  0.00  0.00    +0.043 C 
ATOM     11  C   UNL     1       0.115   0.496  23.847  0.00  0.00    +0.096 C 
ATOM     12  N   UNL     1      -0.567   0.519  24.329  0.00  0.00    -0.276 N 
ATOM     13  C   UNL     1      -0.153   0.026  24.025  0.00  0.00    +0.099 C 
ATOM     14  C   UNL     1      -1.186   0.839  24.772  0.00  0.00    +0.249 C 
ATOM     15  O   UNL     1      -1.728   0.340  25.144  0.00  0.00    -0.270 OA
ATOM     28  C   UNL     1      -0.557  -0.651  24.295  0.00  0.00    +0.110 C 
ATOM     29  N   UNL     1      -1.027  -0.316  24.634  0.00  0.00    -0.298 N 
ATOM     30  C   UNL     1      -1.688  -0.169  25.104  0.00  0.00    +0.276 A 
ATOM     31  O   UNL     1      -2.094   0.483  25.405  0.00  0.00    -0.266 OA
ENDROOT
BRANCH  14  16
ATOM     16  C   UNL     1      -1.261   1.657  24.844  0.00  0.00    +0.054 A 
ATOM     17  C   UNL     1      -1.722   2.078  24.305  0.00  0.00    +0.005 A 
ATOM     18  C   UNL     1      -1.798   2.897  24.377  0.00  0.00    +0.000 A 
ATOM     19  C   UNL     1      -1.413   3.294  24.989  0.00  0.00    +0.000 A 
ATOM     20  C   UNL     1      -0.953   2.874  25.528  0.00  0.00    +0.000 A 
ATOM     21  C   UNL     1      -0.877   2.055  25.456  0.00  0.00    +0.005 A 
BRANCH  19  22
ATOM     22  C   UNL     1      -1.489   4.112  25.061  0.00  0.00    +0.000 A 
ATOM     23  C   UNL     1      -2.175   4.437  25.383  0.00  0.00    +0.000 A 
ATOM     24  C   UNL     1      -2.251   5.255  25.455  0.00  0.00    +0.000 A 
ATOM     25  C   UNL     1      -1.640   5.749  25.204  0.00  0.00    +0.000 A 
ATOM     26  C   UNL     1      -0.953   5.425  24.882  0.00  0.00    +0.000 A 
ATOM     27  C   UNL     1      -0.877   4.606  24.810  0.00  0.00    +0.000 A 
ENDBRANCH  19  22
ENDBRANCH  14  16
BRANCH   4   3
ATOM      1  O   UNL     1      -4.163  -0.899  26.192  0.00  0.00    -0.267 OA
ATOM      2  C   UNL     1      -3.501  -1.045  25.721  0.00  0.00    +0.275 C 
ATOM      3  N   UNL     1      -2.792  -0.652  25.872  0.00  0.00    -0.170 NA
BRANCH   2  32
ATOM     32  C   UNL     1      -3.549  -1.585  25.098  0.00  0.00    +0.085 A 
ATOM     33  C   UNL     1      -3.782  -1.414  24.326  0.00  0.00    +0.012 A 
ATOM     34  C   UNL     1      -3.749  -2.113  23.889  0.00  0.00    +0.008 A 
ATOM     35  C   UNL     1      -3.496  -2.716  24.392  0.00  0.00    +0.036 A 
ATOM     36  S   UNL     1      -3.372  -2.389  25.140  0.00  0.00    -0.082 S 
ENDBRANCH   2  32
ENDBRANCH   4   3
TORSDOF 4
ENDMDL
MODEL 3
REMARK VINA RESULT:     -13.9      1.445      2.691
REMARK  Name = 
REMARK  4 active torsions:
REMARK  status: ('A' for Active; 'I' for Inactive)
REMARK    1  A    between atoms: C_2  and  C_32
REMARK    2  A    between atoms: N_3  and  C_4
REMARK    3  A    between atoms: C_14  and  C_16
REMARK    4  A    between atoms: C_19  and  C_22
REMARK                            x       y       z     vdW  Elec       q    Type
REMARK                         _______ _______ _______ _____ _____    ______ ____
ROOT
ATOM      4  C   UNL     1      -2.300   3.085  24.604  0.00  0.00    +0.130 A 
ATOM      5  C   UNL     1      -1.824   3.717  24.837  0.00  0.00    +0.023 A 
ATOM      6  C   UNL     1      -1.138   3.578  25.274  0.00  0.00    +0.014 A 
ATOM      7  C   UNL     1      -0.928   2.807  25.477  0.00  0.00    +0.041 A 
ATOM      8  C   UNL     1      -0.276   2.340  25.925  0.00  0.00    +0.058 C 
ATOM      9  C   UNL     1       0.320   2.433  26.284  0.00  0.00    +0.011 C 
ATOM     10  C   UNL     1      -0.153   1.811  26.052  0.00  0.00    +0.043 C 
ATOM     11  C   UNL     1      -0.585   0.942  25.869  0.00  0.00    +0.096 C 
ATOM     12  N   UNL     1      -1.248   1.204  25.434  0.00  0.00    -0.276 N 
ATOM     13  C   UNL     1      -0.682   1.492  25.756  0.00  0.00    +0.099 C 
ATOM     14  C   UNL     1      -1.951   1.164  25.003  0.00  0.00    +0.249 C 
ATOM     15  O   UNL     1      -2.302   1.856  24.721  0.00  0.00    -0.270 OA
ATOM     28  C   UNL     1      -0.839   2.291  25.582  0.00  0.00    +0.110 C 
ATOM     29  N   UNL     1      -1.404   2.175  25.244  0.00  0.00    -0.298 N 
ATOM     30  C   UNL     1      -2.090   2.314  24.807  0.00  0.00    +0.276 A 
ATOM     31  O   UNL     1      -2.702   1.875  24.471  0.00  0.00    -0.266 OA
ENDROOT
BRANCH  14  16
ATOM     16  C   UNL     1      -2.304   0.434  24.856  0.00  0.00    +0.054 A 
ATOM     17  C   UNL     1      -2.052  -0.025  24.219  0.00  0.00    +0.005 A 
ATOM     18  C   UNL     1      -2.405  -0.757  24.072  0.00  0.00    +0.000 A 
ATOM     19  C   UNL     1      -3.009  -1.029  24.562  0.00  0.00    +0.000 A 
ATOM     20  C   UNL     1      -3.262  -0.571  25.199  0.00  0.00    +0.000 A 
ATOM     21  C   UNL     1      -2.909   0.161  25.347  0.00  0.00    +0.005 A 
BRANCH  19  22
ATOM     22  C   UNL     1      -3.362  -1.761  24.415  0.00  0.00    +0.000 A 
ATOM     23  C   UNL     1      -4.033  -1.807  23.938  0.00  0.00    +0.000 A 
ATOM     24  C   UNL     1      -4.385  -2.538  23.791  0.00  0.00    +0.000 A 
ATOM     25  C   UNL     1      -4.066  -3.224  24.121  0.00  0.00    +0.000 A 
ATOM     26  C   UNL     1      -3.395  -3.177  24.598  0.00  0.00    +0.000 A 
ATOM     27  C   UNL     1      -3.042  -2.446  24.745  0.00  0.00    +0.000 A 
ENDBRANCH  19  22
ENDBRANCH  14  16
BRANCH   4   3
ATOM      1  O   UNL     1      -4.253   3.871  24.024  0.00  0.00    -0.267 OA
ATOM      2  C   UNL     1      -3.566   3.731  24.461  0.00  0.00    +0.275 C 
ATOM      3  N   UNL     1      -2.985   3.225  24.167  0.00  0.00    -0.170 NA
BRANCH   2  32
ATOM     32  C   UNL     1      -3.462   4.098  25.193  0.00  0.00    +0.085 A 
ATOM     33  C   UNL     1      -3.001   4.766  25.339  0.00  0.00    +0.012 A 
ATOM     34  C   UNL     1      -3.055   4.941  26.143  0.00  0.00    +0.008 A 
ATOM     35  C   UNL     1      -3.549   4.381  26.494  0.00  0.00    +0.036 A 
ATOM     36  S   UNL     1      -3.801   3.860  25.907  0.00  0.00    -0.082 S 
ENDBRANCH   2  32
ENDBRANCH   4   3
TORSDOF 4
ENDMDL
MODEL 4
REMARK VINA RESULT:     -13.3      1.616      4.888
REMARK  Name = 
REMARK  4 active torsions:
REMARK  status: ('A' for Active; 'I' for Inactive)
REMARK    1  A    between atoms: C_2  and  C_32
REMARK    2  A    between atoms: N_3  and  C_4
REMARK    3  A    between atoms: C_14  and  C_16
REMARK    4  A    between atoms: C_19  and  C_22
REMARK                            x       y       z     vdW  Elec       q    Type
REMARK                         _______ _______ _______ _____ _____    ______ ____
ROOT
ATOM      4  C   UNL     1      -3.330  -0.042  24.350  0.00  0.00    +0.130 A 
ATOM      5  C   UNL     1      -3.948  -0.588  24.376  0.00  0.00    +0.023 A 
ATOM      6  C   UNL     1      -4.707  -0.343  24.588  0.00  0.00    +0.014 A 
ATOM      7  C   UNL     1      -4.848   0.448  24.774  0.00  0.00    +0.041 A 
ATOM      8  C   UNL     1      -5.527   1.011  25.031  0.00  0.00    +0.058 C 
ATOM      9  C   UNL     1      -6.213   1.014  25.180  0.00  0.00    +0.011 C 
ATOM     10  C   UNL     1      -5.600   1.550  25.154  0.00  0.00    +0.043 C 
ATOM     11  C   UNL     1      -5.002   2.336  25.179  0.00  0.00    +0.096 C 
ATOM     12  N   UNL     1      -4.284   1.973  24.953  0.00  0.00    -0.276 N 
ATOM     13  C   UNL     1      -4.961   1.780  25.061  0.00  0.00    +0.099 C 
ATOM     14  C   UNL     1      -3.484   1.901  24.766  0.00  0.00    +0.249 C 
ATOM     15  O   UNL     1      -3.174   1.165  24.554  0.00  0.00    -0.270 OA
ATOM     28  C   UNL     1      -4.884   0.970  24.885  0.00  0.00    +0.110 C 
ATOM     29  N   UNL     1      -4.229   0.994  24.748  0.00  0.00    -0.298 N 
ATOM     30  C   UNL     1      -3.471   0.749  24.536  0.00  0.00    +0.276 A 
ATOM     31  O   UNL     1      -2.723   1.084  24.441  0.00  0.00    -0.266 OA
ENDROOT
BRANCH  14  16
ATOM     16  C   UNL     1      -2.993   2.563  24.791  0.00  0.00    +0.054 A 
ATOM     17  C   UNL     1      -2.582   2.747  25.482  0.00  0.00    +0.005 A 
ATOM     18  C   UNL     1      -2.091   3.410  25.506  0.00  0.00    +0.000 A 
ATOM     19  C   UNL     1      -2.012   3.889  24.839  0.00  0.00    +0.000 A 
ATOM     20  C   UNL     1      -2.423   3.706  24.149  0.00  0.00    +0.000 A 
ATOM     21  C   UNL     1      -2.914   3.043  24.124  0.00  0.00    +0.005 A 
BRANCH  19  22
ATOM     22  C   UNL     1      -1.522   4.553  24.864  0.00  0.00    +0.000 A 
ATOM     23  C   UNL     1      -0.719   4.479  24.690  0.00  0.00    +0.000 A 
ATOM     24  C   UNL     1      -0.229   5.141  24.715  0.00  0.00    +0.000 A 
ATOM     25  C   UNL     1      -0.541   5.879  24.914  0.00  0.00    +0.000 A 
ATOM     26  C   UNL     1      -1.344   5.953  25.088  0.00  0.00    +0.000 A 
ATOM     27  C   UNL     1      -1.835   5.289  25.063  0.00  0.00    +0.000 A 
ENDBRANCH  19  22
ENDBRANCH  14  16
BRANCH   4   3
ATOM      1  O   UNL     1      -1.511  -1.242  24.220  0.00  0.00    -0.267 OA
ATOM      2  C   UNL     1      -2.270  -0.996  24.433  0.00  0.00    +0.275 C 
ATOM      3  N   UNL     1      -2.572  -0.288  24.138  0.00  0.00    -0.170 NA
BRANCH   2  32
ATOM     32  C   UNL     1      -2.727  -1.460  24.941  0.00  0.00    +0.085 A 
ATOM     33  C   UNL     1      -2.775  -1.377  25.760  0.00  0.00    +0.012 A 
ATOM     34  C   UNL     1      -3.293  -1.953  26.044  0.00  0.00    +0.008 A 
ATOM     35  C   UNL     1      -3.565  -2.392  25.400  0.00  0.00    +0.036 A 
ATOM     36  S   UNL     1      -3.214  -2.086  24.718  0.00  0.00    -0.082 S 
ENDBRANCH   2  32
ENDBRANCH   4   3
TORSDOF 4
ENDMDL
