MODEL 1
REMARK VINA RESULT:     -14.2      0.000      0.000
REMARK  Name = 
REMARK  4 active torsions:
REMARK  status: ('A' for Active; 'I' for Inactive)
REMARK    1  A    between atoms: O_2  and  C_3
REMARK    2  A    between atoms: C_8  and  N_9
REMARK    3  A    between atoms: N_12  and  C_13
REMARK    4  A    between atoms: C_23  and  C_25
REMARK                            x       y       z     vdW  Elec       q    Type
REMARK                         _______ _______ _______ _____ _____    ______ ____
ROOT
ATOM     13  C   UNL     1      -3.296   0.080  24.474  0.00  0.00    +0.131 A 
ATOM     14  C   UNL     1      -4.062  -0.183  24.320  0.00  0.00    +0.023 A 
ATOM     15  C   UNL     1      -4.221  -0.991  24.279  0.00  0.00    +0.014 A 
ATOM     16  C   UNL     1      -3.613  -1.537  24.391  0.00  0.00    +0.041 A 
ATOM     17  C   UNL     1      -3.461  -2.443  24.409  0.00  0.00    +0.058 C 
ATOM     18  C   UNL     1      -3.792  -3.058  24.336  0.00  0.00    +0.011 C 
ATOM     19  C   UNL     1      -3.036  -2.795  24.487  0.00  0.00    +0.043 C 
ATOM     20  C   UNL     1      -2.074  -2.677  24.677  0.00  0.00    +0.096 C 
ATOM     21  N   UNL     1      -2.036  -1.842  24.696  0.00  0.00    -0.270 N 
ATOM     22  C   UNL     1      -2.529  -2.345  24.593  0.00  0.00    +0.100 C 
ATOM     23  C   UNL     1      -1.392  -1.264  24.829  0.00  0.00    +0.329 C 
ATOM     24  O   UNL     1      -0.573  -1.231  24.990  0.00  0.00    -0.263 OA
ATOM     28  C   UNL     1      -3.185  -1.846  24.471  0.00  0.00    +0.110 C 
ATOM     29  N   UNL     1      -2.846  -1.274  24.544  0.00  0.00    -0.298 N 
ATOM     30  C   UNL     1      -2.687  -0.465  24.586  0.00  0.00    +0.276 A 
ATOM     31  O   UNL     1      -1.763  -0.164  24.771  0.00  0.00    -0.266 OA
ENDROOT
BRANCH  13  12
ATOM      9  N   UNL     1      -3.504   2.376  24.486  0.00  0.00    -0.158 NA
ATOM     10  C   UNL     1      -3.832   1.629  24.780  0.00  0.00    +0.348 C 
ATOM     11  O   UNL     1      -4.500   1.532  25.290  0.00  0.00    -0.248 OA
ATOM     12  N   UNL     1      -3.366   0.964  24.472  0.00  0.00    -0.156 NA
BRANCH   9   8
ATOM      3  C   UNL     1      -3.844   3.402  25.403  0.00  0.00    +0.154 A 
ATOM      4  C   UNL     1      -4.419   3.833  25.808  0.00  0.00    +0.038 A 
ATOM      5  C   UNL     1      -5.219   3.663  25.695  0.00  0.00    +0.003 A 
ATOM      6  C   UNL     1      -5.444   3.062  25.177  0.00  0.00    +0.002 A 
ATOM      7  C   UNL     1      -4.868   2.631  24.772  0.00  0.00    +0.020 A 
ATOM      8  C   UNL     1      -4.069   2.801  24.885  0.00  0.00    +0.109 A 
BRANCH   3   2
ATOM      1  C   UNL     1      -2.822   4.208  25.992  0.00  0.00    +0.253 C 
ATOM      2  O   UNL     1      -3.045   3.571  25.516  0.00  0.00    -0.470 OA
ENDBRANCH   3   2
ENDBRANCH   9   8
ENDBRANCH  13  12
BRANCH  23  25
ATOM     25  C   UNL     1      -2.056  -0.600  24.708  0.00  0.00    +0.440 C 
ATOM     26  O   UNL     1      -2.543  -0.193  25.423  0.00  0.00    -0.235 OA
ATOM     27  O   UNL     1      -2.424  -0.166  23.946  0.00  0.00    -0.235 OA
ENDBRANCH  23  25
TORSDOF 4
ENDMDL
MODEL 2
REMARK VINA RESULT:     -13.7      1.010      4.798
REMARK  Name = 
REMARK  4 active torsions:
REMARK  status: ('A' for Active; 'I' for Inactive)
REMARK    1  A    between atoms: O_2  and  C_3
REMARK    2  A    between atoms: C_8  and  N_9
REMARK    3  A    between atoms: N_12  and  C_13
REMARK    4  A    between atoms: C_23  and  C_25
REMARK                            x       y       z     vdW  Elec       q    Type
REMARK                         _______ _______ _______ _____ _____    ______ ____
ROOT
ATOM     13  C   UNL     1      -3.939   1.240  24.593  0.00  0.00    +0.131 A 
ATOM     14  C   UNL     1      -4.718   1.032  24.766  0.00  0.00    +0.023 A 
ATOM     15  C   UNL     1      -5.242   1.598  25.058  0.00  0.00    +0.014 A 
ATOM     16  C   UNL     1      -4.986   2.373  25.177  0.00  0.00    +0.041 A 
ATOM     17  C   UNL     1      -5.293   3.189  25.468  0.00  0.00    +0.058 C 
ATOM     18  C   UNL     1      -5.870   3.505  25.713  0.00  0.00    +0.011 C 
ATOM     19  C   UNL     1      -5.099   3.707  25.541  0.00  0.00    +0.043 C 
ATOM     20  C   UNL     1      -4.223   4.140  25.397  0.00  0.00    +0.096 C 
ATOM     21  N   UNL     1      -3.789   3.486  25.110  0.00  0.00    -0.270 N 
ATOM     22  C   UNL     1      -4.452   3.622  25.334  0.00  0.00    +0.100 C 
ATOM     23  C   UNL     1      -2.963   3.371  24.843  0.00  0.00    +0.329 C 
ATOM     24  O   UNL     1      -2.249   3.793  24.743  0.00  0.00    -0.263 OA
ATOM     28  C   UNL     1      -4.770   2.859  25.236  0.00  0.00    +0.110 C 
ATOM     29  N   UNL     1      -4.206   2.581  25.004  0.00  0.00    -0.298 N 
ATOM     30  C   UNL     1      -3.683   2.015  24.713  0.00  0.00    +0.276 A 
ATOM     31  O   UNL     1      -2.750   2.278  24.510  0.00  0.00    -0.266 OA
ENDROOT
BRANCH  13  12
ATOM      9  N   UNL     1      -3.012  -0.736  23.849  0.00  0.00    -0.158 NA
ATOM     10  C   UNL     1      -3.632  -0.379  24.340  0.00  0.00    +0.348 C 
ATOM     11  O   UNL     1      -4.216  -0.787  24.798  0.00  0.00    -0.248 OA
ATOM     12  N   UNL     1      -3.575   0.486  24.301  0.00  0.00    -0.156 NA
BRANCH   9   8
ATOM      3  C   UNL     1      -2.744  -2.014  24.401  0.00  0.00    +0.154 A 
ATOM      4  C   UNL     1      -3.001  -2.773  24.598  0.00  0.00    +0.038 A 
ATOM      5  C   UNL     1      -3.778  -3.000  24.436  0.00  0.00    +0.003 A 
ATOM      6  C   UNL     1      -4.298  -2.469  24.078  0.00  0.00    +0.002 A 
ATOM      7  C   UNL     1      -4.040  -1.710  23.881  0.00  0.00    +0.020 A 
ATOM      8  C   UNL     1      -3.264  -1.482  24.043  0.00  0.00    +0.109 A 
BRANCH   3   2
ATOM      1  C   UNL     1      -1.394  -2.359  24.714  0.00  0.00    +0.253 C 
ATOM      2  O   UNL     1      -1.968  -1.785  24.562  0.00  0.00    -0.470 OA
ENDBRANCH   3   2
ENDBRANCH   9   8
ENDBRANCH  13  12
BRANCH  23  25
ATOM     25  C   UNL     1      -3.210   2.470  24.690  0.00  0.00    +0.440 C 
ATOM     26  O   UNL     1      -3.065   1.761  25.316  0.00  0.00    -0.235 OA
ATOM     27  O   UNL     1      -3.629   2.014  23.968  0.00  0.00    -0.235 OA
ENDBRANCH  23  25
TORSDOF 4
ENDMDL
MODEL 3
REMARK VINA RESULT:     -13.4      1.274      1.720
REMARK  Name = 
REMARK  4 active torsions:
REMARK  status: ('A' for Active; 'I' for Inactive)
REMARK    1  A    between atoms: O_2  and  C_3
REMARK    2  A    between atoms: C_8  and  N_9
REMARK    3  A    between atoms: N_12  and  C_13
REMARK    4  A    between atoms: C_23  and  C_25
REMARK                            x       y       z     vdW  Elec       q    Type
REMARK                         _______ _______ _______ _____ _____    ______ ____
ROOT
ATOM     13  C   UNL     1      -2.416   0.504  24.809  0.00  0.00    +0.131 A 
ATOM     14  C   UNL     1      -3.155   0.752  24.539  0.00  0.00    +0.023 A 
ATOM     15  C   UNL     1      -3.714   0.196  24.295  0.00  0.00    +0.014 A 
ATOM     16  C   UNL     1      -3.534  -0.608  24.322  0.00  0.00    +0.041 A 
ATOM     17  C   UNL     1      -3.903  -1.429  24.137  0.00  0.00    +0.058 C 
ATOM     18  C   UNL     1      -4.492  -1.726  23.896  0.00  0.00    +0.011 C 
ATOM     19  C   UNL     1      -3.761  -1.967  24.163  0.00  0.00    +0.043 C 
ATOM     20  C   UNL     1      -2.948  -2.450  24.449  0.00  0.00    +0.096 C 
ATOM     21  N   UNL     1      -2.469  -1.801  24.667  0.00  0.00    -0.270 N 
ATOM     22  C   UNL     1      -3.125  -1.909  24.410  0.00  0.00    +0.100 C 
ATOM     23  C   UNL     1      -1.656  -1.721  24.983  0.00  0.00    +0.329 C 
ATOM     24  O   UNL     1      -1.000  -2.185  25.210  0.00  0.00    -0.263 OA
ATOM     28  C   UNL     1      -3.367  -1.114  24.359  0.00  0.00    +0.110 C 
ATOM     29  N   UNL     1      -2.795  -0.856  24.592  0.00  0.00    -0.298 N 
ATOM     30  C   UNL     1      -2.236  -0.301  24.836  0.00  0.00    +0.276 A 
ATOM     31  O   UNL     1      -1.353  -0.613  25.158  0.00  0.00    -0.266 OA
ENDROOT
BRANCH  13  12
ATOM      9  N   UNL     1      -1.350   2.480  25.332  0.00  0.00    -0.158 NA
ATOM     10  C   UNL     1      -2.114   2.103  25.173  0.00  0.00    +0.348 C 
ATOM     11  O   UNL     1      -2.875   2.475  25.169  0.00  0.00    -0.248 OA
ATOM     12  N   UNL     1      -1.996   1.258  25.010  0.00  0.00    -0.156 NA
BRANCH   9   8
ATOM      3  C   UNL     1      -1.423   3.868  25.052  0.00  0.00    +0.154 A 
ATOM      4  C   UNL     1      -1.788   4.599  25.166  0.00  0.00    +0.038 A 
ATOM      5  C   UNL     1      -2.438   4.662  25.669  0.00  0.00    +0.003 A 
ATOM      6  C   UNL     1      -2.724   3.994  26.060  0.00  0.00    +0.002 A 
ATOM      7  C   UNL     1      -2.359   3.262  25.947  0.00  0.00    +0.020 A 
ATOM      8  C   UNL     1      -1.708   3.199  25.443  0.00  0.00    +0.109 A 
BRANCH   3   2
ATOM      1  C   UNL     1      -0.352   4.481  24.332  0.00  0.00    +0.253 C 
ATOM      2  O   UNL     1      -0.773   3.804  24.549  0.00  0.00    -0.470 OA
ENDBRANCH   3   2
ENDBRANCH   9   8
ENDBRANCH  13  12
BRANCH  23  25
ATOM     25  C   UNL     1      -1.817  -0.788  24.971  0.00  0.00    +0.440 C 
ATOM     26  O   UNL     1      -2.131  -0.289  25.724  0.00  0.00    -0.235 OA
ATOM     27  O   UNL     1      -1.737  -0.113  24.306  0.00  0.00    -0.235 OA
ENDBRANCH  23  25
TORSDOF 4
ENDMDL
MODEL 4
REMARK VINA RESULT:     -12.9      1.348      5.041
REMARK  Name = 
REMARK  4 active torsions:
REMARK  status: ('A' for Active; 'I' for Inactive)
REMARK    1  A    between atoms: O_2  and  C_3
REMARK    2  A    between atoms: C_8  and  N_9
REMARK    3  A    between atoms: N_12  and  C_13
REMARK    4  A    between atoms: C_23  and  C_25
REMARK                            x       y       z     vdW  Elec       q    Type
REMARK                         _______ _______ _______ _____ _____    ______ ____
ROOT
ATOM     13  C   UNL     1      -3.003   1.690  24.849  0.00  0.00    +0.131 A 
ATOM     14  C   UNL     1      -2.203   1.498  24.781  0.00  0.00    +0.023 A 
ATOM     15  C   UNL     1      -1.631   2.089  24.841  0.00  0.00    +0.014 A 
ATOM     16  C   UNL     1      -1.858   2.872  24.967  0.00  0.00    +0.041 A 
ATOM     17  C   UNL     1      -1.498   3.711  25.074  0.00  0.00    +0.058 C 
ATOM     18  C   UNL     1      -0.882   4.047  25.093  0.00  0.00    +0.011 C 
ATOM     19  C   UNL     1      -1.673   4.233  25.160  0.00  0.00    +0.043 C 
ATOM     20  C   UNL     1      -2.562   4.651  25.265  0.00  0.00    +0.096 C 
ATOM     21  N   UNL     1      -3.045   3.974  25.189  0.00  0.00    -0.270 N 
ATOM     22  C   UNL     1      -2.350   4.129  25.178  0.00  0.00    +0.100 C 
ATOM     23  C   UNL     1      -3.910   3.836  25.211  0.00  0.00    +0.329 C 
ATOM     24  O   UNL     1      -4.630   4.248  25.308  0.00  0.00    -0.263 OA
ATOM     28  C   UNL     1      -2.058   3.361  25.050  0.00  0.00    +0.110 C 
ATOM     29  N   UNL     1      -2.657   3.064  25.035  0.00  0.00    -0.298 N 
ATOM     30  C   UNL     1      -3.230   2.473  24.976  0.00  0.00    +0.276 A 
ATOM     31  O   UNL     1      -4.186   2.718  25.060  0.00  0.00    -0.266 OA
ENDROOT
BRANCH  13  12
ATOM      9  N   UNL     1      -4.064  -0.344  24.620  0.00  0.00    -0.158 NA
ATOM     10  C   UNL     1      -3.375   0.068  24.949  0.00  0.00    +0.348 C 
ATOM     11  O   UNL     1      -2.742  -0.275  25.393  0.00  0.00    -0.248 OA
ATOM     12  N   UNL     1      -3.420   0.913  24.755  0.00  0.00    -0.156 NA
BRANCH   9   8
ATOM      3  C   UNL     1      -3.834  -1.732  24.447  0.00  0.00    +0.154 A 
ATOM      4  C   UNL     1      -3.568  -2.452  24.749  0.00  0.00    +0.038 A 
ATOM      5  C   UNL     1      -3.272  -2.494  25.518  0.00  0.00    +0.003 A 
ATOM      6  C   UNL     1      -3.241  -1.815  25.986  0.00  0.00    +0.002 A 
ATOM      7  C   UNL     1      -3.507  -1.095  25.684  0.00  0.00    +0.020 A 
ATOM      8  C   UNL     1      -3.803  -1.053  24.916  0.00  0.00    +0.109 A 
BRANCH   3   2
ATOM      1  C   UNL     1      -4.402  -2.373  23.304  0.00  0.00    +0.253 C 
ATOM      2  O   UNL     1      -4.130  -1.689  23.679  0.00  0.00    -0.470 OA
ENDBRANCH   3   2
ENDBRANCH   9   8
ENDBRANCH  13  12
BRANCH  23  25
ATOM     25  C   UNL     1      -3.698   2.924  25.066  0.00  0.00    +0.440 C 
ATOM     26  O   UNL     1      -3.604   2.279  25.766  0.00  0.00    -0.235 OA
ATOM     27  O   UNL     1      -3.529   2.402  24.290  0.00  0.00    -0.235 OA
ENDBRANCH  23  25
TORSDOF 4
ENDMDL
MODEL 5
REMARK VINA RESULT:     -12.6      1.890      4.780
REMARK  Name = 
REMARK  4 active torsions:
REMARK  status: ('A' for Active; 'I' for Inactive)
REMARK    1  A    between atoms: O_2  and  C_3
REMARK    2  A    between atoms: C_8  and  N_9
REMARK    3  A    between atoms: N_12  and  C_13
REMARK    4  A    between atoms: C_23  and  C_25
REMARK                            x       y       z     vdW  Elec       q    Type
REMARK                         _______ _______ _______ _____ _____    ______ ____
ROOT
ATOM     13  C   UNL     1      -2.060   1.603  25.230  0.00  0.00    +0.131 A 
ATOM     14  C   UNL     1      -2.764   2.014  25.357  0.00  0.00    +0.023 A 
ATOM     15  C   UNL     1      -2.769   2.839  25.342  0.00  0.00    +0.014 A 
ATOM     16  C   UNL     1      -2.069   3.253  25.200  0.00  0.00    +0.041 A 
ATOM     17  C   UNL     1      -1.752   4.112  25.123  0.00  0.00    +0.058 C 
ATOM     18  C   UNL     1      -1.961   4.781  25.150  0.00  0.00    +0.011 C 
ATOM     19  C   UNL     1      -1.268   4.372  25.025  0.00  0.00    +0.043 C 
ATOM     20  C   UNL     1      -0.345   4.064  24.854  0.00  0.00    +0.096 C 
ATOM     21  N   UNL     1      -0.463   3.238  24.893  0.00  0.00    -0.270 N 
ATOM     22  C   UNL     1      -0.854   3.830  24.956  0.00  0.00    +0.100 C 
ATOM     23  C   UNL     1       0.061   2.542  24.806  0.00  0.00    +0.329 C 
ATOM     24  O   UNL     1       0.859   2.345  24.657  0.00  0.00    -0.263 OA
ATOM     28  C   UNL     1      -1.591   3.471  25.104  0.00  0.00    +0.110 C 
ATOM     29  N   UNL     1      -1.365   2.842  25.073  0.00  0.00    -0.298 N 
ATOM     30  C   UNL     1      -1.360   2.017  25.088  0.00  0.00    +0.276 A 
ATOM     31  O   UNL     1      -0.508   1.537  24.935  0.00  0.00    -0.266 OA
ENDROOT
BRANCH  13  12
ATOM      9  N   UNL     1      -2.688  -0.611  25.366  0.00  0.00    -0.158 NA
ATOM     10  C   UNL     1      -2.794   0.135  24.937  0.00  0.00    +0.348 C 
ATOM     11  O   UNL     1      -3.300   0.273  24.272  0.00  0.00    -0.248 OA
ATOM     12  N   UNL     1      -2.294   0.751  25.292  0.00  0.00    -0.156 NA
BRANCH   9   8
ATOM      3  C   UNL     1      -3.016  -1.703  24.525  0.00  0.00    +0.154 A 
ATOM      4  C   UNL     1      -3.556  -2.084  24.029  0.00  0.00    +0.038 A 
ATOM      5  C   UNL     1      -4.296  -1.748  23.889  0.00  0.00    +0.003 A 
ATOM      6  C   UNL     1      -4.498  -1.031  24.244  0.00  0.00    +0.002 A 
ATOM      7  C   UNL     1      -3.958  -0.650  24.739  0.00  0.00    +0.020 A 
ATOM      8  C   UNL     1      -3.218  -0.986  24.879  0.00  0.00    +0.109 A 
BRANCH   3   2
ATOM      1  C   UNL     1      -2.103  -2.791  24.373  0.00  0.00    +0.253 C 
ATOM      2  O   UNL     1      -2.276  -2.038  24.665  0.00  0.00    -0.470 OA
ENDBRANCH   3   2
ENDBRANCH   9   8
ENDBRANCH  13  12
BRANCH  23  25
ATOM     25  C   UNL     1      -0.716   2.023  24.965  0.00  0.00    +0.440 C 
ATOM     26  O   UNL     1      -1.273   1.668  24.273  0.00  0.00    -0.235 OA
ATOM     27  O   UNL     1      -1.155   1.716  25.750  0.00  0.00    -0.235 OA
ENDBRANCH  23  25
TORSDOF 4
ENDMDL
