MODEL 1
REMARK VINA RESULT:     -10.3      0.000      0.000
REMARK  Name = 
REMARK  9 active torsions:
REMARK  status: ('A' for Active; 'I' for Inactive)
REMARK    1  A    between atoms: O_2  and  C_3
REMARK    2  A    between atoms: C_3  and  C_4
REMARK    3  A    between atoms: C_6  and  C_7
REMARK    4  A    between atoms: C_7  and  C_8
REMARK    5  A    between atoms: C_13  and  C_14
REMARK    6  A    between atoms: C_14  and  C_15
REMARK    7  A    between atoms: N_17  and  C_18
REMARK    8  A    between atoms: C_18  and  C_19
REMARK    9  A    between atoms: C_20  and  O_21
REMARK                            x       y       z     vdW  Elec       q    Type
REMARK                         _______ _______ _______ _____ _____    ______ ____
ROOT
ATOM      8  C   UNL     1      -4.030   3.175  24.948  0.00  0.00    +0.024 C 
ATOM      9  C   UNL     1      -4.241   3.784  25.463  0.00  0.00    +0.089 C 
ATOM     10  N   UNL     1      -4.924   3.720  25.921  0.00  0.00    -0.218 NA
ATOM     11  C   UNL     1      -5.396   3.047  25.864  0.00  0.00    +0.089 C 
ATOM     12  C   UNL     1      -5.186   2.437  25.349  0.00  0.00    +0.019 C 
ATOM     13  C   UNL     1      -4.503   2.501  24.891  0.00  0.00    +0.012 C 
ENDROOT
BRANCH   8   7
ATOM      7  C   UNL     1      -3.347   3.239  24.490  0.00  0.00    +0.051 C 
BRANCH   7   6
ATOM      4  C   UNL     1      -1.424   3.600  25.343  0.00  0.00    +0.184 A 
ATOM      5  C   UNL     1      -1.988   3.087  25.029  0.00  0.00    +0.056 A 
ATOM      6  C   UNL     1      -2.652   3.532  24.824  0.00  0.00    +0.100 A 
ATOM     27  N   UNL     1      -2.499   4.321  25.012  0.00  0.00    -0.082 NA
ATOM     28  O   UNL     1      -1.740   4.363  25.333  0.00  0.00    -0.356 OA
BRANCH   4   3
ATOM      3  C   UNL     1      -0.677   3.389  25.619  0.00  0.00    +0.209 C 
BRANCH   3   2
ATOM      1  C   UNL     1       0.152   2.513  26.387  0.00  0.00    +0.175 C 
ATOM      2  O   UNL     1      -0.598   2.789  26.182  0.00  0.00    -0.343 OA
ENDBRANCH   3   2
ENDBRANCH   4   3
ENDBRANCH   7   6
ENDBRANCH   8   7
BRANCH  13  14
ATOM     14  C   UNL     1      -4.293   1.891  24.376  0.00  0.00    +0.087 C 
BRANCH  14  15
ATOM     15  C   UNL     1      -4.577   1.128  24.504  0.00  0.00    +0.242 C 
ATOM     16  O   UNL     1      -5.390   0.989  24.535  0.00  0.00    -0.273 OA
ATOM     17  N   UNL     1      -4.048   0.502  24.600  0.00  0.00    -0.200 NA
BRANCH  17  18
ATOM     18  C   UNL     1      -4.332  -0.262  24.728  0.00  0.00    +0.144 C 
BRANCH  18  19
ATOM     19  C   UNL     1      -3.812  -0.864  24.945  0.00  0.00    +0.033 A 
ATOM     20  C   UNL     1      -3.855  -1.600  24.573  0.00  0.00    +0.136 A 
ATOM     23  C   UNL     1      -3.334  -2.202  24.789  0.00  0.00    +0.037 A 
ATOM     24  C   UNL     1      -2.772  -2.070  25.376  0.00  0.00    +0.003 A 
ATOM     25  C   UNL     1      -2.728  -1.335  25.749  0.00  0.00    -0.000 A 
ATOM     26  C   UNL     1      -3.249  -0.732  25.532  0.00  0.00    +0.000 A 
BRANCH  20  21
ATOM     21  O   UNL     1      -4.418  -1.733  23.984  0.00  0.00    -0.472 OA
ATOM     22  C   UNL     1      -4.452  -2.464  23.604  0.00  0.00    +0.252 C 
ENDBRANCH  20  21
ENDBRANCH  18  19
ENDBRANCH  17  18
ENDBRANCH  14  15
ENDBRANCH  13  14
TORSDOF 9
ENDMDL
MODEL 2
REMARK VINA RESULT:     -10.0      2.032      4.641
REMARK  Name = 
REMARK  9 active torsions:
REMARK  status: ('A' for Active; 'I' for Inactive)
REMARK    1  A    between atoms: O_2  and  C_3
REMARK    2  A    between atoms: C_3  and  C_4
REMARK    3  A    between atoms: C_6  and  C_7
REMARK    4  A    between atoms: C_7  and  C_8
REMARK    5  A    between atoms: C_13  and  C_14
REMARK    6  A    between atoms: C_14  and  C_15
REMARK    7  A    between atoms: N_17  and  C_18
REMARK    8  A    between atoms: C_18  and  C_19
REMARK    9  A    between atoms: C_20  and  O_21
REMARK                            x       y       z     vdW  Elec       q    Type
REMARK                         _______ _______ _______ _____ _____    ______ ____
ROOT
ATOM      8  C   UNL     1      -2.990  -1.485  24.865  0.00  0.00    +0.024 C 
ATOM      9  C   UNL     1      -2.897  -2.158  24.397  0.00  0.00    +0.089 C 
ATOM     10  N   UNL     1      -3.512  -2.409  23.907  0.00  0.00    -0.218 NA
ATOM     11  C   UNL     1      -4.220  -1.987  23.886  0.00  0.00    +0.089 C 
ATOM     12  C   UNL     1      -4.314  -1.313  24.353  0.00  0.00    +0.019 C 
ATOM     13  C   UNL     1      -3.699  -1.062  24.843  0.00  0.00    +0.012 C 
ENDROOT
BRANCH   8   7
ATOM      7  C   UNL     1      -2.376  -1.235  25.354  0.00  0.00    +0.051 C 
BRANCH   7   6
ATOM      4  C   UNL     1      -0.425  -0.904  24.552  0.00  0.00    +0.184 A 
ATOM      5  C   UNL     1      -1.183  -0.636  24.736  0.00  0.00    +0.056 A 
ATOM      6  C   UNL     1      -1.597  -1.260  25.084  0.00  0.00    +0.100 A 
ATOM     27  N   UNL     1      -1.094  -1.914  25.114  0.00  0.00    -0.082 NA
ATOM     28  O   UNL     1      -0.370  -1.694  24.786  0.00  0.00    -0.356 OA
BRANCH   4   3
ATOM      3  C   UNL     1       0.172  -0.461  24.197  0.00  0.00    +0.209 C 
BRANCH   3   2
ATOM      1  C   UNL     1       0.894  -0.071  23.026  0.00  0.00    +0.175 C 
ATOM      2  O   UNL     1       0.328  -0.549  23.391  0.00  0.00    -0.343 OA
ENDBRANCH   3   2
ENDBRANCH   4   3
ENDBRANCH   7   6
ENDBRANCH   8   7
BRANCH  13  14
ATOM     14  C   UNL     1      -3.792  -0.389  25.311  0.00  0.00    +0.087 C 
BRANCH  14  15
ATOM     15  C   UNL     1      -4.316   0.205  25.079  0.00  0.00    +0.242 C 
ATOM     16  O   UNL     1      -5.116   0.033  24.976  0.00  0.00    -0.273 OA
ATOM     17  N   UNL     1      -4.038   0.971  24.949  0.00  0.00    -0.200 NA
BRANCH  17  18
ATOM     18  C   UNL     1      -4.561   1.565  24.716  0.00  0.00    +0.144 C 
BRANCH  18  19
ATOM     19  C   UNL     1      -4.274   2.313  24.519  0.00  0.00    +0.033 A 
ATOM     20  C   UNL     1      -4.638   2.988  24.824  0.00  0.00    +0.136 A 
ATOM     23  C   UNL     1      -4.351   3.736  24.626  0.00  0.00    +0.037 A 
ATOM     24  C   UNL     1      -3.701   3.808  24.125  0.00  0.00    +0.003 A 
ATOM     25  C   UNL     1      -3.337   3.134  23.820  0.00  0.00    -0.000 A 
ATOM     26  C   UNL     1      -3.624   2.385  24.017  0.00  0.00    +0.000 A 
BRANCH  20  21
ATOM     21  O   UNL     1      -5.289   2.915  25.326  0.00  0.00    -0.472 OA
ATOM     22  C   UNL     1      -5.644   3.590  25.641  0.00  0.00    +0.252 C 
ENDBRANCH  20  21
ENDBRANCH  18  19
ENDBRANCH  17  18
ENDBRANCH  14  15
ENDBRANCH  13  14
TORSDOF 9
ENDMDL
MODEL 3
REMARK VINA RESULT:      -9.7      1.191      4.739
REMARK  Name = 
REMARK  9 active torsions:
REMARK  status: ('A' for Active; 'I' for Inactive)
REMARK    1  A    between atoms: O_2  and  C_3
REMARK    2  A    between atoms: C_3  and  C_4
REMARK    3  A    between atoms: C_6  and  C_7
REMARK    4  A    between atoms: C_7  and  C_8
REMARK    5  A    between atoms: C_13  and  C_14
REMARK    6  A    between atoms: C_14  and  C_15
REMARK    7  A    between atoms: N_17  and  C_18
REMARK    8  A    between atoms: C_18  and  C_19
REMARK    9  A    between atoms: C_20  and  O_21
REMARK                            x       y       z     vdW  Elec       q    Type
REMARK                         _______ _______ _______ _____ _____    ______ ____
ROOT
ATOM      8  C   UNL     1      -4.891   1.368  24.795  0.00  0.00    +0.024 C 
ATOM      9  C   UNL     1      -5.449   1.045  25.310  0.00  0.00    +0.089 C 
ATOM     10  N   UNL     1      -5.920   1.540  25.773  0.00  0.00    -0.218 NA
ATOM     11  C   UNL     1      -5.832   2.358  25.721  0.00  0.00    +0.089 C 
ATOM     12  C   UNL     1      -5.274   2.682  25.207  0.00  0.00    +0.019 C 
ATOM     13  C   UNL     1      -4.804   2.187  24.744  0.00  0.00    +0.012 C 
ENDROOT
BRANCH   8   7
ATOM      7  C   UNL     1      -4.421   0.873  24.333  0.00  0.00    +0.051 C 
BRANCH   7   6
ATOM      4  C   UNL     1      -4.028  -1.202  24.638  0.00  0.00    +0.184 A 
ATOM      5  C   UNL     1      -4.265  -0.578  24.155  0.00  0.00    +0.056 A 
ATOM      6  C   UNL     1      -4.230   0.117  24.600  0.00  0.00    +0.100 A 
ATOM     27  N   UNL     1      -3.971  -0.079  25.359  0.00  0.00    -0.082 NA
ATOM     28  O   UNL     1      -3.846  -0.894  25.382  0.00  0.00    -0.356 OA
BRANCH   4   3
ATOM      3  C   UNL     1      -3.980  -1.995  24.417  0.00  0.00    +0.209 C 
BRANCH   3   2
ATOM      1  C   UNL     1      -3.327  -3.263  24.521  0.00  0.00    +0.175 C 
ATOM      2  O   UNL     1      -3.468  -2.505  24.816  0.00  0.00    -0.343 OA
ENDBRANCH   3   2
ENDBRANCH   4   3
ENDBRANCH   7   6
ENDBRANCH   8   7
BRANCH  13  14
ATOM     14  C   UNL     1      -4.245   2.511  24.229  0.00  0.00    +0.087 C 
BRANCH  14  15
ATOM     15  C   UNL     1      -3.781   3.148  24.473  0.00  0.00    +0.242 C 
ATOM     16  O   UNL     1      -4.107   3.905  24.514  0.00  0.00    -0.273 OA
ATOM     17  N   UNL     1      -2.991   3.028  24.675  0.00  0.00    -0.200 NA
BRANCH  17  18
ATOM     18  C   UNL     1      -2.526   3.665  24.919  0.00  0.00    +0.144 C 
BRANCH  18  19
ATOM     19  C   UNL     1      -1.746   3.539  25.157  0.00  0.00    +0.033 A 
ATOM     20  C   UNL     1      -1.207   4.164  25.151  0.00  0.00    +0.136 A 
ATOM     23  C   UNL     1      -0.427   4.038  25.388  0.00  0.00    +0.037 A 
ATOM     24  C   UNL     1      -0.186   3.289  25.631  0.00  0.00    +0.003 A 
ATOM     25  C   UNL     1      -0.724   2.664  25.637  0.00  0.00    -0.000 A 
ATOM     26  C   UNL     1      -1.505   2.789  25.400  0.00  0.00    +0.000 A 
BRANCH  20  21
ATOM     21  O   UNL     1      -1.449   4.915  24.907  0.00  0.00    -0.472 OA
ATOM     22  C   UNL     1      -0.894   5.520  24.825  0.00  0.00    +0.252 C 
ENDBRANCH  20  21
ENDBRANCH  18  19
ENDBRANCH  17  18
ENDBRANCH  14  15
ENDBRANCH  13  14
TORSDOF 9
ENDMDL
MODEL 4
REMARK VINA RESULT:      -9.7      2.033      4.486
REMARK  Name = 
REMARK  9 active torsions:
REMARK  status: ('A' for Active; 'I' for Inactive)
REMARK    1  A    between atoms: O_2  and  C_3
REMARK    2  A    between atoms: C_3  and  C_4
REMARK    3  A    between atoms: C_6  and  C_7
REMARK    4  A    between atoms: C_7  and  C_8
REMARK    5  A    between atoms: C_13  and  C_14
REMARK    6  A    between atoms: C_14  and  C_15
REMARK    7  A    between atoms: N_17  and  C_18
REMARK    8  A    between atoms: C_18  and  C_19
REMARK    9  A    between atoms: C_20  and  O_21
REMARK                            x       y       z     vdW  Elec       q    Type
REMARK                         _______ _______ _______ _____ _____    ______ ____
ROOT
ATOM      8  C   UNL     1      -0.540   1.894  24.624  0.00  0.00    +0.024 C 
ATOM      9  C   UNL     1       0.101   1.757  25.125  0.00  0.00    +0.089 C 
ATOM     10  N   UNL     1       0.269   2.286  25.735  0.00  0.00    -0.218 NA
ATOM     11  C   UNL     1      -0.205   2.952  25.845  0.00  0.00    +0.089 C 
ATOM     12  C   UNL     1      -0.847   3.090  25.345  0.00  0.00    +0.019 C 
ATOM     13  C   UNL     1      -1.014   2.560  24.735  0.00  0.00    +0.012 C 
ENDROOT
BRANCH   8   7
ATOM      7  C   UNL     1      -0.707   1.365  24.015  0.00  0.00    +0.051 C 
BRANCH   7   6
ATOM      4  C   UNL     1      -0.603  -0.731  24.405  0.00  0.00    +0.184 A 
ATOM      5  C   UNL     1      -1.006  -0.012  24.434  0.00  0.00    +0.056 A 
ATOM      6  C   UNL     1      -0.521   0.566  24.099  0.00  0.00    +0.100 A 
ATOM     27  N   UNL     1       0.182   0.204  23.862  0.00  0.00    -0.082 NA
ATOM     28  O   UNL     1       0.132  -0.598  24.051  0.00  0.00    -0.356 OA
BRANCH   4   3
ATOM      3  C   UNL     1      -0.883  -1.456  24.680  0.00  0.00    +0.209 C 
BRANCH   3   2
ATOM      1  C   UNL     1      -1.834  -2.521  24.607  0.00  0.00    +0.175 C 
ATOM      2  O   UNL     1      -1.508  -1.831  24.291  0.00  0.00    -0.343 OA
ENDBRANCH   3   2
ENDBRANCH   4   3
ENDBRANCH   7   6
ENDBRANCH   8   7
BRANCH  13  14
ATOM     14  C   UNL     1      -1.656   2.697  24.234  0.00  0.00    +0.087 C 
BRANCH  14  15
ATOM     15  C   UNL     1      -2.330   3.075  24.522  0.00  0.00    +0.242 C 
ATOM     16  O   UNL     1      -2.295   3.868  24.746  0.00  0.00    -0.273 OA
ATOM     17  N   UNL     1      -3.039   2.659  24.587  0.00  0.00    -0.200 NA
BRANCH  17  18
ATOM     18  C   UNL     1      -3.714   3.036  24.876  0.00  0.00    +0.144 C 
BRANCH  18  19
ATOM     19  C   UNL     1      -4.413   2.610  24.979  0.00  0.00    +0.033 A 
ATOM     20  C   UNL     1      -5.089   2.988  25.264  0.00  0.00    +0.136 A 
ATOM     23  C   UNL     1      -5.787   2.561  25.367  0.00  0.00    +0.037 A 
ATOM     24  C   UNL     1      -5.810   1.758  25.186  0.00  0.00    +0.003 A 
ATOM     25  C   UNL     1      -5.135   1.379  24.901  0.00  0.00    -0.000 A 
ATOM     26  C   UNL     1      -4.435   1.806  24.798  0.00  0.00    +0.000 A 
BRANCH  20  21
ATOM     21  O   UNL     1      -5.066   3.793  25.445  0.00  0.00    -0.472 OA
ATOM     22  C   UNL     1      -5.758   4.186  25.663  0.00  0.00    +0.252 C 
ENDBRANCH  20  21
ENDBRANCH  18  19
ENDBRANCH  17  18
ENDBRANCH  14  15
ENDBRANCH  13  14
TORSDOF 9
ENDMDL
MODEL 5
REMARK VINA RESULT:      -9.7      2.076      5.890
REMARK  Name = 
REMARK  9 active torsions:
REMARK  status: ('A' for Active; 'I' for Inactive)
REMARK    1  A    between atoms: O_2  and  C_3
REMARK    2  A    between atoms: C_3  and  C_4
REMARK    3  A    between atoms: C_6  and  C_7
REMARK    4  A    between atoms: C_7  and  C_8
REMARK    5  A    between atoms: C_13  and  C_14
REMARK    6  A    between atoms: C_14  and  C_15
REMARK    7  A    between atoms: N_17  and  C_18
REMARK    8  A    between atoms: C_18  and  C_19
REMARK    9  A    between atoms: C_20  and  O_21
REMARK                            x       y       z     vdW  Elec       q    Type
REMARK                         _______ _______ _______ _____ _____    ______ ____
ROOT
ATOM      8  C   UNL     1      -0.562  -0.305  24.714  0.00  0.00    +0.024 C 
ATOM      9  C   UNL     1      -0.231  -0.706  24.074  0.00  0.00    +0.089 C 
ATOM     10  N   UNL     1       0.197  -0.292  23.504  0.00  0.00    -0.218 NA
ATOM     11  C   UNL     1       0.296   0.524  23.574  0.00  0.00    +0.089 C 
ATOM     12  C   UNL     1      -0.035   0.926  24.215  0.00  0.00    +0.019 C 
ATOM     13  C   UNL     1      -0.464   0.511  24.785  0.00  0.00    +0.012 C 
ENDROOT
BRANCH   8   7
ATOM      7  C   UNL     1      -0.990  -0.720  25.284  0.00  0.00    +0.051 C 
BRANCH   7   6
ATOM      4  C   UNL     1      -2.504  -2.127  24.752  0.00  0.00    +0.184 A 
ATOM      5  C   UNL     1      -2.274  -1.368  24.979  0.00  0.00    +0.056 A 
ATOM      6  C   UNL     1      -1.452  -1.366  25.063  0.00  0.00    +0.100 A 
ATOM     27  N   UNL     1      -1.176  -2.124  24.888  0.00  0.00    -0.082 NA
ATOM     28  O   UNL     1      -1.826  -2.594  24.696  0.00  0.00    -0.356 OA
BRANCH   4   3
ATOM      3  C   UNL     1      -3.277  -2.376  24.607  0.00  0.00    +0.209 C 
BRANCH   3   2
ATOM      1  C   UNL     1      -4.463  -2.329  23.811  0.00  0.00    +0.175 C 
ATOM      2  O   UNL     1      -3.680  -2.103  23.941  0.00  0.00    -0.343 OA
ENDBRANCH   3   2
ENDBRANCH   4   3
ENDBRANCH   7   6
ENDBRANCH   8   7
BRANCH  13  14
ATOM     14  C   UNL     1      -0.794   0.913  25.426  0.00  0.00    +0.087 C 
BRANCH  14  15
ATOM     15  C   UNL     1      -0.619   1.710  25.547  0.00  0.00    +0.242 C 
ATOM     16  O   UNL     1       0.158   1.944  25.697  0.00  0.00    -0.273 OA
ATOM     17  N   UNL     1      -1.221   2.272  25.519  0.00  0.00    -0.200 NA
BRANCH  17  18
ATOM     18  C   UNL     1      -1.046   3.070  25.640  0.00  0.00    +0.144 C 
BRANCH  18  19
ATOM     19  C   UNL     1      -1.655   3.627  25.661  0.00  0.00    +0.033 A 
ATOM     20  C   UNL     1      -1.538   4.377  25.338  0.00  0.00    +0.136 A 
ATOM     23  C   UNL     1      -2.147   4.934  25.359  0.00  0.00    +0.037 A 
ATOM     24  C   UNL     1      -2.870   4.741  25.702  0.00  0.00    +0.003 A 
ATOM     25  C   UNL     1      -2.987   3.991  26.026  0.00  0.00    -0.000 A 
ATOM     26  C   UNL     1      -2.379   3.434  26.005  0.00  0.00    +0.000 A 
BRANCH  20  21
ATOM     21  O   UNL     1      -0.814   4.570  24.994  0.00  0.00    -0.472 OA
ATOM     22  C   UNL     1      -0.686   5.331  24.701  0.00  0.00    +0.252 C 
ENDBRANCH  20  21
ENDBRANCH  18  19
ENDBRANCH  17  18
ENDBRANCH  14  15
ENDBRANCH  13  14
TORSDOF 9
ENDMDL
MODEL 6
REMARK VINA RESULT:      -9.6      1.469      3.069
REMARK  Name = 
REMARK  9 active torsions:
REMARK  status: ('A' for Active; 'I' for Inactive)
REMARK    1  A    between atoms: O_2  and  C_3
REMARK    2  A    between atoms: C_3  and  C_4
REMARK    3  A    between atoms: C_6  and  C_7
REMARK    4  A    between atoms: C_7  and  C_8
REMARK    5  A    between atoms: C_13  and  C_14
REMARK    6  A    between atoms: C_14  and  C_15
REMARK    7  A    between atoms: N_17  and  C_18
REMARK    8  A    between atoms: C_18  and  C_19
REMARK    9  A    between atoms: C_20  and  O_21
REMARK                            x       y       z     vdW  Elec       q    Type
REMARK                         _______ _______ _______ _____ _____    ______ ____
ROOT
ATOM      8  C   UNL     1      -1.399   2.753  25.185  0.00  0.00    +0.024 C 
ATOM      9  C   UNL     1      -1.105   3.174  25.830  0.00  0.00    +0.089 C 
ATOM     10  N   UNL     1      -0.500   2.854  26.291  0.00  0.00    -0.218 NA
ATOM     11  C   UNL     1      -0.189   2.114  26.106  0.00  0.00    +0.089 C 
ATOM     12  C   UNL     1      -0.482   1.691  25.461  0.00  0.00    +0.019 C 
ATOM     13  C   UNL     1      -1.087   2.011  25.000  0.00  0.00    +0.012 C 
ENDROOT
BRANCH   8   7
ATOM      7  C   UNL     1      -2.003   3.073  24.724  0.00  0.00    +0.051 C 
BRANCH   7   6
ATOM      4  C   UNL     1      -3.910   3.652  25.489  0.00  0.00    +0.184 A 
ATOM      5  C   UNL     1      -3.435   3.139  25.051  0.00  0.00    +0.056 A 
ATOM      6  C   UNL     1      -2.659   3.419  25.086  0.00  0.00    +0.100 A 
ATOM     27  N   UNL     1      -2.654   4.104  25.545  0.00  0.00    -0.082 NA
ATOM     28  O   UNL     1      -3.427   4.248  25.794  0.00  0.00    -0.356 OA
BRANCH   4   3
ATOM      3  C   UNL     1      -4.723   3.581  25.602  0.00  0.00    +0.209 C 
BRANCH   3   2
ATOM      1  C   UNL     1      -5.863   2.765  25.883  0.00  0.00    +0.175 C 
ATOM      2  O   UNL     1      -5.044   2.865  25.859  0.00  0.00    -0.343 OA
ENDBRANCH   3   2
ENDBRANCH   4   3
ENDBRANCH   7   6
ENDBRANCH   8   7
BRANCH  13  14
ATOM     14  C   UNL     1      -1.381   1.589  24.354  0.00  0.00    +0.087 C 
BRANCH  14  15
ATOM     15  C   UNL     1      -1.364   0.765  24.358  0.00  0.00    +0.242 C 
ATOM     16  O   UNL     1      -0.642   0.367  24.321  0.00  0.00    -0.273 OA
ATOM     17  N   UNL     1      -2.069   0.339  24.399  0.00  0.00    -0.200 NA
BRANCH  17  18
ATOM     18  C   UNL     1      -2.051  -0.487  24.403  0.00  0.00    +0.144 C 
BRANCH  18  19
ATOM     19  C   UNL     1      -2.757  -0.913  24.370  0.00  0.00    +0.033 A 
ATOM     20  C   UNL     1      -2.742  -1.738  24.409  0.00  0.00    +0.136 A 
ATOM     23  C   UNL     1      -3.447  -2.165  24.375  0.00  0.00    +0.037 A 
ATOM     24  C   UNL     1      -4.166  -1.768  24.303  0.00  0.00    +0.003 A 
ATOM     25  C   UNL     1      -4.181  -0.945  24.264  0.00  0.00    -0.000 A 
ATOM     26  C   UNL     1      -3.475  -0.517  24.297  0.00  0.00    +0.000 A 
BRANCH  20  21
ATOM     21  O   UNL     1      -2.022  -2.135  24.481  0.00  0.00    -0.472 OA
ATOM     22  C   UNL     1      -2.000  -2.959  24.445  0.00  0.00    +0.252 C 
ENDBRANCH  20  21
ENDBRANCH  18  19
ENDBRANCH  17  18
ENDBRANCH  14  15
ENDBRANCH  13  14
TORSDOF 9
ENDMDL
MODEL 7
REMARK VINA RESULT:      -9.5      1.960      3.778
REMARK  Name = 
REMARK  9 active torsions:
REMARK  status: ('A' for Active; 'I' for Inactive)
REMARK    1  A    between atoms: O_2  and  C_3
REMARK    2  A    between atoms: C_3  and  C_4
REMARK    3  A    between atoms: C_6  and  C_7
REMARK    4  A    between atoms: C_7  and  C_8
REMARK    5  A    between atoms: C_13  and  C_14
REMARK    6  A    between atoms: C_14  and  C_15
REMARK    7  A    between atoms: N_17  and  C_18
REMARK    8  A    between atoms: C_18  and  C_19
REMARK    9  A    between atoms: C_20  and  O_21
REMARK                            x       y       z     vdW  Elec       q    Type
REMARK                         _______ _______ _______ _____ _____    ______ ____
ROOT
ATOM      8  C   UNL     1      -2.024   3.935  25.691  0.00  0.00    +0.024 C 
ATOM      9  C   UNL     1      -2.170   4.649  25.304  0.00  0.00    +0.089 C 
ATOM     10  N   UNL     1      -1.572   5.011  24.867  0.00  0.00    -0.218 NA
ATOM     11  C   UNL     1      -0.828   4.660  24.816  0.00  0.00    +0.089 C 
ATOM     12  C   UNL     1      -0.681   3.946  25.203  0.00  0.00    +0.019 C 
ATOM     13  C   UNL     1      -1.279   3.584  25.640  0.00  0.00    +0.012 C 
ENDROOT
BRANCH   8   7
ATOM      7  C   UNL     1      -2.622   3.574  26.128  0.00  0.00    +0.051 C 
BRANCH   7   6
ATOM      4  C   UNL     1      -4.576   3.267  25.325  0.00  0.00    +0.184 A 
ATOM      5  C   UNL     1      -3.814   2.997  25.490  0.00  0.00    +0.056 A 
ATOM      6  C   UNL     1      -3.403   3.606  25.866  0.00  0.00    +0.100 A 
ATOM     27  N   UNL     1      -3.911   4.254  25.933  0.00  0.00    -0.082 NA
ATOM     28  O   UNL     1      -4.635   4.044  25.598  0.00  0.00    -0.356 OA
BRANCH   4   3
ATOM      3  C   UNL     1      -5.172   2.838  24.952  0.00  0.00    +0.209 C 
BRANCH   3   2
ATOM      1  C   UNL     1      -6.194   1.840  25.009  0.00  0.00    +0.175 C 
ATOM      2  O   UNL     1      -5.655   2.333  25.392  0.00  0.00    -0.343 OA
ENDBRANCH   3   2
ENDBRANCH   4   3
ENDBRANCH   7   6
ENDBRANCH   8   7
BRANCH  13  14
ATOM     14  C   UNL     1      -1.133   2.869  26.028  0.00  0.00    +0.087 C 
BRANCH  14  15
ATOM     15  C   UNL     1      -0.617   2.318  25.695  0.00  0.00    +0.242 C 
ATOM     16  O   UNL     1       0.180   2.507  25.594  0.00  0.00    -0.273 OA
ATOM     17  N   UNL     1      -0.899   1.579  25.462  0.00  0.00    -0.200 NA
BRANCH  17  18
ATOM     18  C   UNL     1      -0.383   1.028  25.128  0.00  0.00    +0.144 C 
BRANCH  18  19
ATOM     19  C   UNL     1      -0.634   0.252  25.003  0.00  0.00    +0.033 A 
ATOM     20  C   UNL     1      -0.343  -0.177  24.361  0.00  0.00    +0.136 A 
ATOM     23  C   UNL     1      -0.594  -0.953  24.236  0.00  0.00    +0.037 A 
ATOM     24  C   UNL     1      -1.135  -1.300  24.752  0.00  0.00    +0.003 A 
ATOM     25  C   UNL     1      -1.426  -0.871  25.394  0.00  0.00    -0.000 A 
ATOM     26  C   UNL     1      -1.175  -0.095  25.519  0.00  0.00    +0.000 A 
BRANCH  20  21
ATOM     21  O   UNL     1       0.198   0.170  23.844  0.00  0.00    -0.472 OA
ATOM     22  C   UNL     1       0.538  -0.279  23.241  0.00  0.00    +0.252 C 
ENDBRANCH  20  21
ENDBRANCH  18  19
ENDBRANCH  17  18
ENDBRANCH  14  15
ENDBRANCH  13  14
TORSDOF 9
ENDMDL
MODEL 8
REMARK VINA RESULT:      -8.3     16.446     18.858
REMARK  Name = 
REMARK  9 active torsions:
REMARK  status: ('A' for Active; 'I' for Inactive)
REMARK    1  A    between atoms: O_2  and  C_3
REMARK    2  A    between atoms: C_3  and  C_4
REMARK    3  A    between atoms: C_6  and  C_7
REMARK    4  A    between atoms: C_7  and  C_8
REMARK    5  A    between atoms: C_13  and  C_14
REMARK    6  A    between atoms: C_14  and  C_15
REMARK    7  A    between atoms: N_17  and  C_18
REMARK    8  A    between atoms: C_18  and  C_19
REMARK    9  A    between atoms: C_20  and  O_21
REMARK                            x       y       z     vdW  Elec       q    Type
REMARK                         _______ _______ _______ _____ _____    ______ ____
ROOT
ATOM      8  C   UNL     1      11.765   7.876  20.618  0.00  0.00    +0.024 C 
ATOM      9  C   UNL     1      11.034   7.501  20.693  0.00  0.00    +0.089 C 
ATOM     10  N   UNL     1      10.953   6.851  21.194  0.00  0.00    -0.218 NA
ATOM     11  C   UNL     1      11.603   6.575  21.620  0.00  0.00    +0.089 C 
ATOM     12  C   UNL     1      12.335   6.950  21.545  0.00  0.00    +0.019 C 
ATOM     13  C   UNL     1      12.416   7.600  21.044  0.00  0.00    +0.012 C 
ENDROOT
BRANCH   8   7
ATOM      7  C   UNL     1      11.846   8.526  20.117  0.00  0.00    +0.051 C 
BRANCH   7   6
ATOM      4  C   UNL     1      11.137   8.603  18.106  0.00  0.00    +0.184 A 
ATOM      5  C   UNL     1      11.755   8.576  18.651  0.00  0.00    +0.056 A 
ATOM      6  C   UNL     1      11.426   8.556  19.408  0.00  0.00    +0.100 A 
ATOM     27  N   UNL     1      10.604   8.570  19.330  0.00  0.00    -0.082 NA
ATOM     28  O   UNL     1      10.426   8.599  18.525  0.00  0.00    -0.356 OA
BRANCH   4   3
ATOM      3  C   UNL     1      11.215   8.629  17.285  0.00  0.00    +0.209 C 
BRANCH   3   2
ATOM      1  C   UNL     1      10.590   8.642  16.000  0.00  0.00    +0.175 C 
ATOM      2  O   UNL     1      10.568   8.454  16.803  0.00  0.00    -0.343 OA
ENDBRANCH   3   2
ENDBRANCH   4   3
ENDBRANCH   7   6
ENDBRANCH   8   7
BRANCH  13  14
ATOM     14  C   UNL     1      13.148   7.975  20.969  0.00  0.00    +0.087 C 
BRANCH  14  15
ATOM     15  C   UNL     1      13.836   7.583  21.198  0.00  0.00    +0.242 C 
ATOM     16  O   UNL     1      13.978   7.430  21.996  0.00  0.00    -0.273 OA
ATOM     17  N   UNL     1      14.383   7.345  20.628  0.00  0.00    -0.200 NA
BRANCH  17  18
ATOM     18  C   UNL     1      15.073   6.953  20.857  0.00  0.00    +0.144 C 
BRANCH  18  19
ATOM     19  C   UNL     1      15.615   6.707  20.286  0.00  0.00    +0.033 A 
ATOM     20  C   UNL     1      16.384   6.505  20.509  0.00  0.00    +0.136 A 
ATOM     23  C   UNL     1      16.927   6.259  19.938  0.00  0.00    +0.037 A 
ATOM     24  C   UNL     1      16.702   6.215  19.147  0.00  0.00    +0.003 A 
ATOM     25  C   UNL     1      15.934   6.417  18.924  0.00  0.00    -0.000 A 
ATOM     26  C   UNL     1      15.390   6.663  19.495  0.00  0.00    +0.000 A 
BRANCH  20  21
ATOM     21  O   UNL     1      16.610   6.549  21.301  0.00  0.00    -0.472 OA
ATOM     22  C   UNL     1      17.405   6.478  21.508  0.00  0.00    +0.252 C 
ENDBRANCH  20  21
ENDBRANCH  18  19
ENDBRANCH  17  18
ENDBRANCH  14  15
ENDBRANCH  13  14
TORSDOF 9
ENDMDL
MODEL 9
REMARK VINA RESULT:      -7.9     16.327     19.297
REMARK  Name = 
REMARK  9 active torsions:
REMARK  status: ('A' for Active; 'I' for Inactive)
REMARK    1  A    between atoms: O_2  and  C_3
REMARK    2  A    between atoms: C_3  and  C_4
REMARK    3  A    between atoms: C_6  and  C_7
REMARK    4  A    between atoms: C_7  and  C_8
REMARK    5  A    between atoms: C_13  and  C_14
REMARK    6  A    between atoms: C_14  and  C_15
REMARK    7  A    between atoms: N_17  and  C_18
REMARK    8  A    between atoms: C_18  and  C_19
REMARK    9  A    between atoms: C_20  and  O_21
REMARK                            x       y       z     vdW  Elec       q    Type
REMARK                         _______ _______ _______ _____ _____    ______ ____
ROOT
ATOM      8  C   UNL     1      12.420   8.114  19.002  0.00  0.00    +0.024 C 
ATOM      9  C   UNL     1      11.800   7.883  18.509  0.00  0.00    +0.089 C 
ATOM     10  N   UNL     1      11.959   7.615  17.744  0.00  0.00    -0.218 NA
ATOM     11  C   UNL     1      12.736   7.578  17.474  0.00  0.00    +0.089 C 
ATOM     12  C   UNL     1      13.357   7.809  17.966  0.00  0.00    +0.019 C 
ATOM     13  C   UNL     1      13.199   8.076  18.731  0.00  0.00    +0.012 C 
ENDROOT
BRANCH   8   7
ATOM      7  C   UNL     1      12.262   8.381  19.765  0.00  0.00    +0.051 C 
BRANCH   7   6
ATOM      4  C   UNL     1      11.061   7.174  21.053  0.00  0.00    +0.184 A 
ATOM      5  C   UNL     1      11.786   7.354  20.704  0.00  0.00    +0.056 A 
ATOM      6  C   UNL     1      11.679   8.014  20.219  0.00  0.00    +0.100 A 
ATOM     27  N   UNL     1      10.887   8.241  20.268  0.00  0.00    -0.082 NA
ATOM     28  O   UNL     1      10.505   7.722  20.783  0.00  0.00    -0.356 OA
BRANCH   4   3
ATOM      3  C   UNL     1      10.916   6.555  21.578  0.00  0.00    +0.209 C 
BRANCH   3   2
ATOM      1  C   UNL     1      10.794   5.153  21.827  0.00  0.00    +0.175 C 
ATOM      2  O   UNL     1      11.029   5.774  21.336  0.00  0.00    -0.343 OA
ENDBRANCH   3   2
ENDBRANCH   4   3
ENDBRANCH   7   6
ENDBRANCH   8   7
BRANCH  13  14
ATOM     14  C   UNL     1      13.819   8.307  19.224  0.00  0.00    +0.087 C 
BRANCH  14  15
ATOM     15  C   UNL     1      14.595   8.106  19.031  0.00  0.00    +0.242 C 
ATOM     16  O   UNL     1      14.928   8.372  18.325  0.00  0.00    -0.273 OA
ATOM     17  N   UNL     1      15.039   7.638  19.546  0.00  0.00    -0.200 NA
BRANCH  17  18
ATOM     18  C   UNL     1      15.816   7.436  19.353  0.00  0.00    +0.144 C 
BRANCH  18  19
ATOM     19  C   UNL     1      16.315   7.122  19.930  0.00  0.00    +0.033 A 
ATOM     20  C   UNL     1      16.816   6.492  19.743  0.00  0.00    +0.136 A 
ATOM     23  C   UNL     1      17.314   6.178  20.320  0.00  0.00    +0.037 A 
ATOM     24  C   UNL     1      17.313   6.491  21.082  0.00  0.00    +0.003 A 
ATOM     25  C   UNL     1      16.812   7.119  21.269  0.00  0.00    -0.000 A 
ATOM     26  C   UNL     1      16.313   7.435  20.692  0.00  0.00    +0.000 A 
BRANCH  20  21
ATOM     21  O   UNL     1      16.817   6.179  18.980  0.00  0.00    -0.472 OA
ATOM     22  C   UNL     1      17.405   5.646  18.755  0.00  0.00    +0.252 C 
ENDBRANCH  20  21
ENDBRANCH  18  19
ENDBRANCH  17  18
ENDBRANCH  14  15
ENDBRANCH  13  14
TORSDOF 9
ENDMDL
MODEL 10
REMARK VINA RESULT:      -7.0     16.703     18.957
REMARK  Name = 
REMARK  9 active torsions:
REMARK  status: ('A' for Active; 'I' for Inactive)
REMARK    1  A    between atoms: O_2  and  C_3
REMARK    2  A    between atoms: C_3  and  C_4
REMARK    3  A    between atoms: C_6  and  C_7
REMARK    4  A    between atoms: C_7  and  C_8
REMARK    5  A    between atoms: C_13  and  C_14
REMARK    6  A    between atoms: C_14  and  C_15
REMARK    7  A    between atoms: N_17  and  C_18
REMARK    8  A    between atoms: C_18  and  C_19
REMARK    9  A    between atoms: C_20  and  O_21
REMARK                            x       y       z     vdW  Elec       q    Type
REMARK                         _______ _______ _______ _____ _____    ______ ____
ROOT
ATOM      8  C   UNL     1      12.740   7.923  21.001  0.00  0.00    +0.024 C 
ATOM      9  C   UNL     1      12.736   7.253  21.481  0.00  0.00    +0.089 C 
ATOM     10  N   UNL     1      12.104   6.724  21.448  0.00  0.00    -0.218 NA
ATOM     11  C   UNL     1      11.476   6.865  20.933  0.00  0.00    +0.089 C 
ATOM     12  C   UNL     1      11.478   7.535  20.452  0.00  0.00    +0.019 C 
ATOM     13  C   UNL     1      12.111   8.064  20.485  0.00  0.00    +0.012 C 
ENDROOT
BRANCH   8   7
ATOM      7  C   UNL     1      13.372   8.452  21.034  0.00  0.00    +0.051 C 
BRANCH   7   6
ATOM      4  C   UNL     1      15.359   7.808  21.474  0.00  0.00    +0.184 A 
ATOM      5  C   UNL     1      14.770   8.010  20.933  0.00  0.00    +0.056 A 
ATOM      6  C   UNL     1      14.092   8.214  21.358  0.00  0.00    +0.100 A 
ATOM     27  N   UNL     1      14.262   8.139  22.162  0.00  0.00    -0.082 NA
ATOM     28  O   UNL     1      15.045   7.888  22.234  0.00  0.00    -0.356 OA
BRANCH   4   3
ATOM      3  C   UNL     1      16.126   7.569  21.289  0.00  0.00    +0.209 C 
BRANCH   3   2
ATOM      1  C   UNL     1      16.981   6.424  21.249  0.00  0.00    +0.175 C 
ATOM      2  O   UNL     1      16.453   6.908  21.660  0.00  0.00    -0.343 OA
ENDBRANCH   3   2
ENDBRANCH   4   3
ENDBRANCH   7   6
ENDBRANCH   8   7
BRANCH  13  14
ATOM     14  C   UNL     1      12.114   8.735  20.004  0.00  0.00    +0.087 C 
BRANCH  14  15
ATOM     15  C   UNL     1      11.741   8.716  19.268  0.00  0.00    +0.242 C 
ATOM     16  O   UNL     1      10.928   8.583  19.221  0.00  0.00    -0.273 OA
ATOM     17  N   UNL     1      12.182   8.830  18.581  0.00  0.00    -0.200 NA
BRANCH  17  18
ATOM     18  C   UNL     1      11.809   8.810  17.844  0.00  0.00    +0.144 C 
BRANCH  18  19
ATOM     19  C   UNL     1      12.256   8.881  17.155  0.00  0.00    +0.033 A 
ATOM     20  C   UNL     1      11.881   9.023  16.433  0.00  0.00    +0.136 A 
ATOM     23  C   UNL     1      12.328   9.094  15.743  0.00  0.00    +0.037 A 
ATOM     24  C   UNL     1      13.148   9.023  15.774  0.00  0.00    +0.003 A 
ATOM     25  C   UNL     1      13.523   8.882  16.495  0.00  0.00    -0.000 A 
ATOM     26  C   UNL     1      13.077   8.811  17.186  0.00  0.00    +0.000 A 
BRANCH  20  21
ATOM     21  O   UNL     1      11.059   9.093  16.402  0.00  0.00    -0.472 OA
ATOM     22  C   UNL     1      10.672   9.078  15.673  0.00  0.00    +0.252 C 
ENDBRANCH  20  21
ENDBRANCH  18  19
ENDBRANCH  17  18
ENDBRANCH  14  15
ENDBRANCH  13  14
TORSDOF 9
ENDMDL
