MODEL 1
REMARK VINA RESULT:     -13.6      0.000      0.000
REMARK  Name = 
REMARK  3 active torsions:
REMARK  status: ('A' for Active; 'I' for Inactive)
REMARK    1  A    between atoms: C_1  and  N_2
REMARK    2  A    between atoms: C_1  and  C_16
REMARK    3  A    between atoms: C_5  and  C_7
REMARK                            x       y       z     vdW  Elec       q    Type
REMARK                         _______ _______ _______ _____ _____    ______ ____
ROOT
ATOM      2  N   UNL     1      -4.143   0.961  24.629  0.00  0.00    -0.268 NA
ATOM      3  C   UNL     1      -4.698   1.452  24.993  0.00  0.00    +0.073 C 
ATOM      4  C   UNL     1      -4.334   2.175  25.150  0.00  0.00    +0.026 C 
ATOM      5  C   UNL     1      -3.555   2.131  24.883  0.00  0.00    +0.076 C 
ATOM      6  C   UNL     1      -3.437   1.381  24.561  0.00  0.00    +0.080 C 
ENDROOT
BRANCH   5   7
ATOM      7  C   UNL     1      -2.992   2.733  24.930  0.00  0.00    +0.140 A 
ATOM      8  N   UNL     1      -3.129   3.507  25.180  0.00  0.00    -0.229 NA
ATOM      9  C   UNL     1      -2.416   3.919  25.139  0.00  0.00    +0.100 A 
ATOM     10  C   UNL     1      -1.837   3.400  24.864  0.00  0.00    +0.100 A 
ATOM     11  N   UNL     1      -2.193   2.667  24.734  0.00  0.00    -0.229 NA
ATOM     12  C   UNL     1      -1.061   3.661  24.766  0.00  0.00    +0.021 A 
ATOM     13  C   UNL     1      -0.862   4.442  24.945  0.00  0.00    +0.002 A 
ATOM     14  C   UNL     1      -1.441   4.961  25.220  0.00  0.00    +0.002 A 
ATOM     15  C   UNL     1      -2.217   4.700  25.318  0.00  0.00    +0.021 A 
ENDBRANCH   5   7
BRANCH   2   1
ATOM      1  C   UNL     1      -4.273   0.186  24.377  0.00  0.00    +0.101 C 
BRANCH   1  16
ATOM     16  C   UNL     1      -3.987  -0.446  24.823  0.00  0.00    +0.014 A 
ATOM     17  C   UNL     1      -3.705  -0.406  25.598  0.00  0.00    +0.096 A 
ATOM     18  N   UNL     1      -3.476  -1.164  25.826  0.00  0.00    -0.244 NA
ATOM     19  C   UNL     1      -3.616  -1.674  25.193  0.00  0.00    +0.081 A 
ATOM     20  C   UNL     1      -3.932  -1.230  24.573  0.00  0.00    +0.016 A 
ATOM     21  C   UNL     1      -4.128  -1.598  23.861  0.00  0.00    +0.001 A 
ATOM     22  C   UNL     1      -4.009  -2.409  23.769  0.00  0.00    +0.000 A 
ATOM     23  C   UNL     1      -3.694  -2.853  24.389  0.00  0.00    +0.002 A 
ATOM     24  C   UNL     1      -3.497  -2.486  25.101  0.00  0.00    +0.019 A 
ENDBRANCH   1  16
ENDBRANCH   2   1
TORSDOF 3
ENDMDL
MODEL 2
REMARK VINA RESULT:     -13.3      0.774      5.121
REMARK  Name = 
REMARK  3 active torsions:
REMARK  status: ('A' for Active; 'I' for Inactive)
REMARK    1  A    between atoms: C_1  and  N_2
REMARK    2  A    between atoms: C_1  and  C_16
REMARK    3  A    between atoms: C_5  and  C_7
REMARK                            x       y       z     vdW  Elec       q    Type
REMARK                         _______ _______ _______ _____ _____    ______ ____
ROOT
ATOM      2  N   UNL     1      -4.164   2.084  24.499  0.00  0.00    -0.268 NA
ATOM      3  C   UNL     1      -4.930   1.932  24.768  0.00  0.00    +0.073 C 
ATOM      4  C   UNL     1      -5.012   1.116  24.856  0.00  0.00    +0.026 C 
ATOM      5  C   UNL     1      -4.298   0.764  24.641  0.00  0.00    +0.076 C 
ATOM      6  C   UNL     1      -3.774   1.362  24.421  0.00  0.00    +0.080 C 
ENDROOT
BRANCH   5   7
ATOM      7  C   UNL     1      -4.136  -0.045  24.646  0.00  0.00    +0.140 A 
ATOM      8  N   UNL     1      -4.333  -0.583  24.052  0.00  0.00    -0.229 NA
ATOM      9  C   UNL     1      -4.067  -1.328  24.284  0.00  0.00    +0.100 A 
ATOM     10  C   UNL     1      -3.705  -1.252  25.021  0.00  0.00    +0.100 A 
ATOM     11  N   UNL     1      -3.747  -0.459  25.245  0.00  0.00    -0.229 NA
ATOM     12  C   UNL     1      -3.384  -1.914  25.394  0.00  0.00    +0.021 A 
ATOM     13  C   UNL     1      -3.425  -2.653  25.030  0.00  0.00    +0.002 A 
ATOM     14  C   UNL     1      -3.786  -2.730  24.292  0.00  0.00    +0.002 A 
ATOM     15  C   UNL     1      -4.108  -2.068  23.919  0.00  0.00    +0.021 A 
ENDBRANCH   5   7
BRANCH   2   1
ATOM      1  C   UNL     1      -3.846   2.828  24.337  0.00  0.00    +0.101 C 
BRANCH   1  16
ATOM     16  C   UNL     1      -3.568   3.301  24.953  0.00  0.00    +0.014 A 
ATOM     17  C   UNL     1      -3.979   3.491  25.643  0.00  0.00    +0.096 A 
ATOM     18  N   UNL     1      -3.494   3.974  26.103  0.00  0.00    -0.244 NA
ATOM     19  C   UNL     1      -2.785   4.083  25.698  0.00  0.00    +0.081 A 
ATOM     20  C   UNL     1      -2.830   3.667  24.987  0.00  0.00    +0.016 A 
ATOM     21  C   UNL     1      -2.192   3.677  24.463  0.00  0.00    +0.001 A 
ATOM     22  C   UNL     1      -1.511   4.101  24.650  0.00  0.00    +0.000 A 
ATOM     23  C   UNL     1      -1.465   4.517  25.361  0.00  0.00    +0.002 A 
ATOM     24  C   UNL     1      -2.102   4.509  25.885  0.00  0.00    +0.019 A 
ENDBRANCH   1  16
ENDBRANCH   2   1
TORSDOF 3
ENDMDL
MODEL 3
REMARK VINA RESULT:     -12.6      1.156      1.731
REMARK  Name = 
REMARK  3 active torsions:
REMARK  status: ('A' for Active; 'I' for Inactive)
REMARK    1  A    between atoms: C_1  and  N_2
REMARK    2  A    between atoms: C_1  and  C_16
REMARK    3  A    between atoms: C_5  and  C_7
REMARK                            x       y       z     vdW  Elec       q    Type
REMARK                         _______ _______ _______ _____ _____    ______ ____
ROOT
ATOM      2  N   UNL     1      -2.082   0.346  25.042  0.00  0.00    -0.268 NA
ATOM      3  C   UNL     1      -1.383   0.315  24.604  0.00  0.00    +0.073 C 
ATOM      4  C   UNL     1      -1.100   1.084  24.518  0.00  0.00    +0.026 C 
ATOM      5  C   UNL     1      -1.624   1.592  24.903  0.00  0.00    +0.076 C 
ATOM      6  C   UNL     1      -2.230   1.136  25.227  0.00  0.00    +0.080 C 
ENDROOT
BRANCH   5   7
ATOM      7  C   UNL     1      -1.553   2.412  24.955  0.00  0.00    +0.140 A 
ATOM      8  N   UNL     1      -0.900   2.859  24.721  0.00  0.00    -0.229 NA
ATOM      9  C   UNL     1      -1.066   3.653  24.872  0.00  0.00    +0.100 A 
ATOM     10  C   UNL     1      -1.822   3.697  25.200  0.00  0.00    +0.100 A 
ATOM     11  N   UNL     1      -2.123   2.931  25.251  0.00  0.00    -0.229 NA
ATOM     12  C   UNL     1      -2.139   4.430  25.409  0.00  0.00    +0.021 A 
ATOM     13  C   UNL     1      -1.700   5.119  25.290  0.00  0.00    +0.002 A 
ATOM     14  C   UNL     1      -0.944   5.075  24.962  0.00  0.00    +0.002 A 
ATOM     15  C   UNL     1      -0.627   4.342  24.753  0.00  0.00    +0.021 A 
ENDBRANCH   5   7
BRANCH   2   1
ATOM      1  C   UNL     1      -2.549  -0.299  25.257  0.00  0.00    +0.101 C 
BRANCH   1  16
ATOM     16  C   UNL     1      -3.130  -0.577  24.743  0.00  0.00    +0.014 A 
ATOM     17  C   UNL     1      -3.602  -0.115  24.247  0.00  0.00    +0.096 A 
ATOM     18  N   UNL     1      -4.105  -0.619  23.831  0.00  0.00    -0.244 NA
ATOM     19  C   UNL     1      -3.945  -1.392  24.070  0.00  0.00    +0.081 A 
ATOM     20  C   UNL     1      -3.343  -1.366  24.633  0.00  0.00    +0.016 A 
ATOM     21  C   UNL     1      -3.066  -2.065  24.972  0.00  0.00    +0.001 A 
ATOM     22  C   UNL     1      -3.391  -2.790  24.749  0.00  0.00    +0.000 A 
ATOM     23  C   UNL     1      -3.993  -2.815  24.186  0.00  0.00    +0.002 A 
ATOM     24  C   UNL     1      -4.271  -2.117  23.846  0.00  0.00    +0.019 A 
ENDBRANCH   1  16
ENDBRANCH   2   1
TORSDOF 3
ENDMDL
MODEL 4
REMARK VINA RESULT:     -12.4      1.223      5.486
REMARK  Name = 
REMARK  3 active torsions:
REMARK  status: ('A' for Active; 'I' for Inactive)
REMARK    1  A    between atoms: C_1  and  N_2
REMARK    2  A    between atoms: C_1  and  C_16
REMARK    3  A    between atoms: C_5  and  C_7
REMARK                            x       y       z     vdW  Elec       q    Type
REMARK                         _______ _______ _______ _____ _____    ______ ____
ROOT
ATOM      2  N   UNL     1      -1.331   1.414  24.984  0.00  0.00    -0.268 NA
ATOM      3  C   UNL     1      -1.007   0.971  25.601  0.00  0.00    +0.073 C 
ATOM      4  C   UNL     1      -1.367   0.230  25.600  0.00  0.00    +0.026 C 
ATOM      5  C   UNL     1      -1.915   0.214  24.983  0.00  0.00    +0.076 C 
ATOM      6  C   UNL     1      -1.892   0.946  24.603  0.00  0.00    +0.080 C 
ENDROOT
BRANCH   5   7
ATOM      7  C   UNL     1      -2.399  -0.422  24.781  0.00  0.00    +0.140 A 
ATOM      8  N   UNL     1      -2.251  -1.217  24.947  0.00  0.00    -0.229 NA
ATOM      9  C   UNL     1      -2.877  -1.662  24.647  0.00  0.00    +0.100 A 
ATOM     10  C   UNL     1      -3.413  -1.143  24.295  0.00  0.00    +0.100 A 
ATOM     11  N   UNL     1      -3.118  -0.376  24.378  0.00  0.00    -0.229 NA
ATOM     12  C   UNL     1      -4.101  -1.434  23.944  0.00  0.00    +0.021 A 
ATOM     13  C   UNL     1      -4.253  -2.245  23.946  0.00  0.00    +0.002 A 
ATOM     14  C   UNL     1      -3.718  -2.764  24.297  0.00  0.00    +0.002 A 
ATOM     15  C   UNL     1      -3.030  -2.473  24.648  0.00  0.00    +0.021 A 
ENDBRANCH   5   7
BRANCH   2   1
ATOM      1  C   UNL     1      -1.129   2.189  24.786  0.00  0.00    +0.101 C 
BRANCH   1  16
ATOM     16  C   UNL     1      -1.582   2.819  25.066  0.00  0.00    +0.014 A 
ATOM     17  C   UNL     1      -2.315   2.760  25.441  0.00  0.00    +0.096 A 
ATOM     18  N   UNL     1      -2.567   3.523  25.628  0.00  0.00    -0.244 NA
ATOM     19  C   UNL     1      -1.991   4.052  25.369  0.00  0.00    +0.081 A 
ATOM     20  C   UNL     1      -1.382   3.617  25.022  0.00  0.00    +0.016 A 
ATOM     21  C   UNL     1      -0.724   4.006  24.710  0.00  0.00    +0.001 A 
ATOM     22  C   UNL     1      -0.675   4.828  24.745  0.00  0.00    +0.000 A 
ATOM     23  C   UNL     1      -1.284   5.263  25.092  0.00  0.00    +0.002 A 
ATOM     24  C   UNL     1      -1.942   4.876  25.404  0.00  0.00    +0.019 A 
ENDBRANCH   1  16
ENDBRANCH   2   1
TORSDOF 3
ENDMDL
