MODEL 1
REMARK VINA RESULT:     -12.3      0.000      0.000
REMARK  Name = 
REMARK  8 active torsions:
REMARK  status: ('A' for Active; 'I' for Inactive)
REMARK    1  A    between atoms: N_2  and  C_3
REMARK    2  A    between atoms: N_2  and  C_28
REMARK    3  A    between atoms: C_3  and  C_4
REMARK    4  A    between atoms: C_6  and  C_7
REMARK    5  A    between atoms: C_7  and  C_8
REMARK    6  A    between atoms: C_13  and  C_14
REMARK    7  A    between atoms: C_14  and  C_15
REMARK    8  A    between atoms: C_28  and  C_29
REMARK                            x       y       z     vdW  Elec       q    Type
REMARK                         _______ _______ _______ _____ _____    ______ ____
ROOT
ATOM      8  C   UNL     1      -0.450   2.239  24.986  0.00  0.00    +0.024 C 
ATOM      9  C   UNL     1       0.280   2.084  25.336  0.00  0.00    +0.089 C 
ATOM     10  N   UNL     1       0.462   2.406  26.073  0.00  0.00    -0.218 NA
ATOM     11  C   UNL     1      -0.088   2.885  26.460  0.00  0.00    +0.089 C 
ATOM     12  C   UNL     1      -0.819   3.041  26.110  0.00  0.00    +0.019 C 
ATOM     13  C   UNL     1      -1.000   2.718  25.373  0.00  0.00    +0.012 C 
ENDROOT
BRANCH   8   7
ATOM      7  C   UNL     1      -0.632   1.916  24.249  0.00  0.00    +0.051 C 
BRANCH   7   6
ATOM      4  C   UNL     1      -0.856  -0.192  23.993  0.00  0.00    +0.170 A 
ATOM      5  C   UNL     1      -1.176   0.554  24.144  0.00  0.00    +0.055 A 
ATOM      6  C   UNL     1      -0.561   1.103  24.127  0.00  0.00    +0.100 A 
ATOM     26  N   UNL     1       0.139   0.697  23.966  0.00  0.00    -0.082 NA
ATOM     27  O   UNL     1      -0.044  -0.103  23.883  0.00  0.00    -0.357 OA
BRANCH   4   3
ATOM      3  C   UNL     1      -1.276  -0.901  23.959  0.00  0.00    +0.141 C 
BRANCH   3   2
ATOM      1  C   UNL     1      -1.123  -1.674  25.151  0.00  0.00    +0.090 C 
ATOM      2  N   UNL     1      -1.597  -1.224  24.648  0.00  0.00    -0.261 NA
BRANCH   2  28
ATOM     28  C   UNL     1      -2.391  -1.098  24.831  0.00  0.00    +0.100 C 
BRANCH  28  29
ATOM     29  C   UNL     1      -2.960  -1.647  24.599  0.00  0.00    -0.006 A 
ATOM     30  C   UNL     1      -3.613  -1.402  24.158  0.00  0.00    -0.003 A 
ATOM     31  C   UNL     1      -4.184  -1.952  23.925  0.00  0.00    -0.000 A 
ATOM     32  C   UNL     1      -4.100  -2.746  24.133  0.00  0.00    -0.000 A 
ATOM     33  C   UNL     1      -3.447  -2.990  24.574  0.00  0.00    -0.000 A 
ATOM     34  C   UNL     1      -2.878  -2.441  24.807  0.00  0.00    -0.003 A 
ENDBRANCH  28  29
ENDBRANCH   2  28
ENDBRANCH   3   2
ENDBRANCH   4   3
ENDBRANCH   7   6
ENDBRANCH   8   7
BRANCH  13  14
ATOM     14  C   UNL     1      -1.731   2.873  25.023  0.00  0.00    +0.085 C 
BRANCH  14  15
ATOM     15  C   UNL     1      -2.223   3.455  25.338  0.00  0.00    +0.226 C 
ATOM     16  O   UNL     1      -1.901   4.159  25.624  0.00  0.00    -0.275 OA
ATOM     17  N   UNL     1      -3.039   3.334  25.367  0.00  0.00    -0.276 N 
ATOM     18  C   UNL     1      -3.531   3.916  25.682  0.00  0.00    +0.115 C 
ATOM     19  C   UNL     1      -4.347   3.794  25.711  0.00  0.00    +0.115 C 
ATOM     20  N   UNL     1      -4.670   3.091  25.425  0.00  0.00    -0.276 N 
ATOM     21  C   UNL     1      -4.176   2.509  25.110  0.00  0.00    +0.115 C 
ATOM     22  C   UNL     1      -3.362   2.630  25.081  0.00  0.00    +0.115 C 
ATOM     23  C   UNL     1      -5.486   2.969  25.454  0.00  0.00    +0.226 C 
ATOM     24  C   UNL     1      -5.808   2.266  25.168  0.00  0.00    +0.095 C 
ATOM     25  O   UNL     1      -5.978   3.551  25.769  0.00  0.00    -0.275 OA
ENDBRANCH  14  15
ENDBRANCH  13  14
TORSDOF 8
ENDMDL
MODEL 2
REMARK VINA RESULT:     -12.0      1.265      3.831
REMARK  Name = 
REMARK  8 active torsions:
REMARK  status: ('A' for Active; 'I' for Inactive)
REMARK    1  A    between atoms: N_2  and  C_3
REMARK    2  A    between atoms: N_2  and  C_28
REMARK    3  A    between atoms: C_3  and  C_4
REMARK    4  A    between atoms: C_6  and  C_7
REMARK    5  A    between atoms: C_7  and  C_8
REMARK    6  A    between atoms: C_13  and  C_14
REMARK    7  A    between atoms: C_14  and  C_15
REMARK    8  A    between atoms: C_28  and  C_29
REMARK                            x       y       z     vdW  Elec       q    Type
REMARK                         _______ _______ _______ _____ _____    ______ ____
ROOT
ATOM      8  C   UNL     1      -3.248   3.383  25.014  0.00  0.00    +0.024 C 
ATOM      9  C   UNL     1      -3.690   3.784  25.582  0.00  0.00    +0.089 C 
ATOM     10  N   UNL     1      -3.312   4.164  26.209  0.00  0.00    -0.218 NA
ATOM     11  C   UNL     1      -2.489   4.142  26.267  0.00  0.00    +0.089 C 
ATOM     12  C   UNL     1      -2.045   3.741  25.699  0.00  0.00    +0.019 C 
ATOM     13  C   UNL     1      -2.424   3.361  25.072  0.00  0.00    +0.012 C 
ENDROOT
BRANCH   8   7
ATOM      7  C   UNL     1      -3.626   3.003  24.388  0.00  0.00    +0.051 C 
BRANCH   7   6
ATOM      4  C   UNL     1      -4.753   1.207  24.636  0.00  0.00    +0.170 A 
ATOM      5  C   UNL     1      -4.064   1.600  24.407  0.00  0.00    +0.055 A 
ATOM      6  C   UNL     1      -4.175   2.406  24.539  0.00  0.00    +0.100 A 
ATOM     26  N   UNL     1      -4.932   2.511  24.850  0.00  0.00    -0.082 NA
ATOM     27  O   UNL     1      -5.289   1.770  24.910  0.00  0.00    -0.357 OA
BRANCH   4   3
ATOM      3  C   UNL     1      -4.882   0.393  24.598  0.00  0.00    +0.141 C 
BRANCH   3   2
ATOM      1  C   UNL     1      -4.097  -0.254  25.602  0.00  0.00    +0.090 C 
ATOM      2  N   UNL     1      -4.279  -0.132  24.807  0.00  0.00    -0.261 NA
BRANCH   2  28
ATOM     28  C   UNL     1      -3.859  -0.532  24.221  0.00  0.00    +0.100 C 
BRANCH  28  29
ATOM     29  C   UNL     1      -3.767  -1.350  24.266  0.00  0.00    -0.006 A 
ATOM     30  C   UNL     1      -3.129  -1.672  24.678  0.00  0.00    -0.003 A 
ATOM     31  C   UNL     1      -3.037  -2.491  24.724  0.00  0.00    -0.000 A 
ATOM     32  C   UNL     1      -3.584  -2.988  24.356  0.00  0.00    -0.000 A 
ATOM     33  C   UNL     1      -4.222  -2.666  23.943  0.00  0.00    -0.000 A 
ATOM     34  C   UNL     1      -4.313  -1.848  23.898  0.00  0.00    -0.003 A 
ENDBRANCH  28  29
ENDBRANCH   2  28
ENDBRANCH   3   2
ENDBRANCH   4   3
ENDBRANCH   7   6
ENDBRANCH   8   7
BRANCH  13  14
ATOM     14  C   UNL     1      -1.981   2.959  24.504  0.00  0.00    +0.085 C 
BRANCH  14  15
ATOM     15  C   UNL     1      -1.159   3.028  24.499  0.00  0.00    +0.226 C 
ATOM     16  O   UNL     1      -0.802   3.733  24.737  0.00  0.00    -0.275 OA
ATOM     17  N   UNL     1      -0.693   2.392  24.255  0.00  0.00    -0.276 N 
ATOM     18  C   UNL     1       0.129   2.461  24.250  0.00  0.00    +0.115 C 
ATOM     19  C   UNL     1       0.594   1.824  24.005  0.00  0.00    +0.115 C 
ATOM     20  N   UNL     1       0.237   1.120  23.767  0.00  0.00    -0.276 N 
ATOM     21  C   UNL     1      -0.586   1.052  23.773  0.00  0.00    +0.115 C 
ATOM     22  C   UNL     1      -1.051   1.687  24.016  0.00  0.00    +0.115 C 
ATOM     23  C   UNL     1       0.702   0.484  23.523  0.00  0.00    +0.226 C 
ATOM     24  C   UNL     1       0.346  -0.220  23.285  0.00  0.00    +0.095 C 
ATOM     25  O   UNL     1       1.524   0.552  23.518  0.00  0.00    -0.275 OA
ENDBRANCH  14  15
ENDBRANCH  13  14
TORSDOF 8
ENDMDL
MODEL 3
REMARK VINA RESULT:     -11.5      1.134      4.537
REMARK  Name = 
REMARK  8 active torsions:
REMARK  status: ('A' for Active; 'I' for Inactive)
REMARK    1  A    between atoms: N_2  and  C_3
REMARK    2  A    between atoms: N_2  and  C_28
REMARK    3  A    between atoms: C_3  and  C_4
REMARK    4  A    between atoms: C_6  and  C_7
REMARK    5  A    between atoms: C_7  and  C_8
REMARK    6  A    between atoms: C_13  and  C_14
REMARK    7  A    between atoms: C_14  and  C_15
REMARK    8  A    between atoms: C_28  and  C_29
REMARK                            x       y       z     vdW  Elec       q    Type
REMARK                         _______ _______ _______ _____ _____    ______ ____
ROOT
ATOM      8  C   UNL     1      -0.324   1.479  24.949  0.00  0.00    +0.024 C 
ATOM      9  C   UNL     1       0.281   1.967  24.673  0.00  0.00    +0.089 C 
ATOM     10  N   UNL     1       0.768   1.714  24.058  0.00  0.00    -0.218 NA
ATOM     11  C   UNL     1       0.650   0.972  23.717  0.00  0.00    +0.089 C 
ATOM     12  C   UNL     1       0.044   0.483  23.993  0.00  0.00    +0.019 C 
ATOM     13  C   UNL     1      -0.442   0.736  24.609  0.00  0.00    +0.012 C 
ENDROOT
BRANCH   8   7
ATOM      7  C   UNL     1      -0.810   1.732  25.565  0.00  0.00    +0.051 C 
BRANCH   7   6
ATOM      4  C   UNL     1      -1.998   3.477  25.250  0.00  0.00    +0.170 A 
ATOM      5  C   UNL     1      -1.853   2.673  25.133  0.00  0.00    +0.055 A 
ATOM      6  C   UNL     1      -1.160   2.479  25.534  0.00  0.00    +0.100 A 
ATOM     26  N   UNL     1      -0.876   3.162  25.898  0.00  0.00    -0.082 NA
ATOM     27  O   UNL     1      -1.394   3.779  25.723  0.00  0.00    -0.357 OA
BRANCH   4   3
ATOM      3  C   UNL     1      -2.636   3.904  24.947  0.00  0.00    +0.141 C 
BRANCH   3   2
ATOM      1  C   UNL     1      -3.521   3.775  26.061  0.00  0.00    +0.090 C 
ATOM      2  N   UNL     1      -3.395   3.780  25.246  0.00  0.00    -0.261 NA
BRANCH   2  28
ATOM     28  C   UNL     1      -4.028   3.662  24.730  0.00  0.00    +0.100 C 
BRANCH  28  29
ATOM     29  C   UNL     1      -4.639   3.149  24.937  0.00  0.00    -0.006 A 
ATOM     30  C   UNL     1      -5.192   3.375  25.507  0.00  0.00    -0.003 A 
ATOM     31  C   UNL     1      -5.804   2.862  25.715  0.00  0.00    -0.000 A 
ATOM     32  C   UNL     1      -5.862   2.123  25.353  0.00  0.00    -0.000 A 
ATOM     33  C   UNL     1      -5.309   1.897  24.784  0.00  0.00    -0.000 A 
ATOM     34  C   UNL     1      -4.698   2.410  24.576  0.00  0.00    -0.003 A 
ENDBRANCH  28  29
ENDBRANCH   2  28
ENDBRANCH   3   2
ENDBRANCH   4   3
ENDBRANCH   7   6
ENDBRANCH   8   7
BRANCH  13  14
ATOM     14  C   UNL     1      -1.047   0.248  24.885  0.00  0.00    +0.085 C 
BRANCH  14  15
ATOM     15  C   UNL     1      -0.971  -0.572  24.833  0.00  0.00    +0.226 C 
ATOM     16  O   UNL     1      -0.229  -0.924  24.921  0.00  0.00    -0.275 OA
ATOM     17  N   UNL     1      -1.635  -1.041  24.693  0.00  0.00    -0.276 N 
ATOM     18  C   UNL     1      -1.559  -1.860  24.641  0.00  0.00    +0.115 C 
ATOM     19  C   UNL     1      -2.224  -2.328  24.501  0.00  0.00    +0.115 C 
ATOM     20  N   UNL     1      -2.964  -1.977  24.413  0.00  0.00    -0.276 N 
ATOM     21  C   UNL     1      -3.041  -1.156  24.465  0.00  0.00    +0.115 C 
ATOM     22  C   UNL     1      -2.377  -0.688  24.605  0.00  0.00    +0.115 C 
ATOM     23  C   UNL     1      -3.630  -2.445  24.273  0.00  0.00    +0.226 C 
ATOM     24  C   UNL     1      -4.370  -2.093  24.185  0.00  0.00    +0.095 C 
ATOM     25  O   UNL     1      -3.553  -3.264  24.221  0.00  0.00    -0.275 OA
ENDBRANCH  14  15
ENDBRANCH  13  14
TORSDOF 8
ENDMDL
MODEL 4
REMARK VINA RESULT:     -10.9      1.516      4.422
REMARK  Name = 
REMARK  8 active torsions:
REMARK  status: ('A' for Active; 'I' for Inactive)
REMARK    1  A    between atoms: N_2  and  C_3
REMARK    2  A    between atoms: N_2  and  C_28
REMARK    3  A    between atoms: C_3  and  C_4
REMARK    4  A    between atoms: C_6  and  C_7
REMARK    5  A    between atoms: C_7  and  C_8
REMARK    6  A    between atoms: C_13  and  C_14
REMARK    7  A    between atoms: C_14  and  C_15
REMARK    8  A    between atoms: C_28  and  C_29
REMARK                            x       y       z     vdW  Elec       q    Type
REMARK                         _______ _______ _______ _____ _____    ______ ____
ROOT
ATOM      8  C   UNL     1      -1.708  -1.112  25.127  0.00  0.00    +0.024 C 
ATOM      9  C   UNL     1      -1.225  -1.723  24.855  0.00  0.00    +0.089 C 
ATOM     10  N   UNL     1      -1.553  -2.356  24.441  0.00  0.00    -0.218 NA
ATOM     11  C   UNL     1      -2.366  -2.377  24.298  0.00  0.00    +0.089 C 
ATOM     12  C   UNL     1      -2.849  -1.766  24.570  0.00  0.00    +0.019 C 
ATOM     13  C   UNL     1      -2.520  -1.133  24.984  0.00  0.00    +0.012 C 
ENDROOT
BRANCH   8   7
ATOM      7  C   UNL     1      -1.380  -0.479  25.542  0.00  0.00    +0.051 C 
BRANCH   7   6
ATOM      4  C   UNL     1      -0.206   1.146  24.806  0.00  0.00    +0.170 A 
ATOM      5  C   UNL     1      -0.785   0.846  25.312  0.00  0.00    +0.055 A 
ATOM      6  C   UNL     1      -0.862   0.039  25.160  0.00  0.00    +0.100 A 
ATOM     26  N   UNL     1      -0.331  -0.160  24.561  0.00  0.00    -0.082 NA
ATOM     27  O   UNL     1       0.074   0.524  24.342  0.00  0.00    -0.357 OA
BRANCH   4   3
ATOM      3  C   UNL     1       0.048   1.930  24.770  0.00  0.00    +0.141 C 
BRANCH   3   2
ATOM      1  C   UNL     1      -0.947   2.652  24.042  0.00  0.00    +0.090 C 
ATOM      2  N   UNL     1      -0.505   2.542  24.730  0.00  0.00    -0.261 NA
BRANCH   2  28
ATOM     28  C   UNL     1      -0.616   3.041  25.377  0.00  0.00    +0.100 C 
BRANCH  28  29
ATOM     29  C   UNL     1      -0.911   3.803  25.264  0.00  0.00    -0.006 A 
ATOM     30  C   UNL     1      -0.443   4.377  24.900  0.00  0.00    -0.003 A 
ATOM     31  C   UNL     1      -0.739   5.139  24.787  0.00  0.00    -0.000 A 
ATOM     32  C   UNL     1      -1.502   5.326  25.037  0.00  0.00    -0.000 A 
ATOM     33  C   UNL     1      -1.970   4.752  25.401  0.00  0.00    -0.000 A 
ATOM     34  C   UNL     1      -1.675   3.991  25.514  0.00  0.00    -0.003 A 
ENDBRANCH  28  29
ENDBRANCH   2  28
ENDBRANCH   3   2
ENDBRANCH   4   3
ENDBRANCH   7   6
ENDBRANCH   8   7
BRANCH  13  14
ATOM     14  C   UNL     1      -3.004  -0.522  25.256  0.00  0.00    +0.085 C 
BRANCH  14  15
ATOM     15  C   UNL     1      -3.818  -0.552  25.127  0.00  0.00    +0.226 C 
ATOM     16  O   UNL     1      -4.191  -1.279  25.013  0.00  0.00    -0.275 OA
ATOM     17  N   UNL     1      -4.260   0.145  25.113  0.00  0.00    -0.276 N 
ATOM     18  C   UNL     1      -5.074   0.114  24.984  0.00  0.00    +0.115 C 
ATOM     19  C   UNL     1      -5.515   0.812  24.970  0.00  0.00    +0.115 C 
ATOM     20  N   UNL     1      -5.142   1.538  25.084  0.00  0.00    -0.276 N 
ATOM     21  C   UNL     1      -4.327   1.568  25.213  0.00  0.00    +0.115 C 
ATOM     22  C   UNL     1      -3.886   0.872  25.227  0.00  0.00    +0.115 C 
ATOM     23  C   UNL     1      -5.583   2.236  25.070  0.00  0.00    +0.226 C 
ATOM     24  C   UNL     1      -5.210   2.962  25.184  0.00  0.00    +0.095 C 
ATOM     25  O   UNL     1      -6.397   2.206  24.941  0.00  0.00    -0.275 OA
ENDBRANCH  14  15
ENDBRANCH  13  14
TORSDOF 8
ENDMDL
MODEL 5
REMARK VINA RESULT:     -10.6      1.681      3.483
REMARK  Name = 
REMARK  8 active torsions:
REMARK  status: ('A' for Active; 'I' for Inactive)
REMARK    1  A    between atoms: N_2  and  C_3
REMARK    2  A    between atoms: N_2  and  C_28
REMARK    3  A    between atoms: C_3  and  C_4
REMARK    4  A    between atoms: C_6  and  C_7
REMARK    5  A    between atoms: C_7  and  C_8
REMARK    6  A    between atoms: C_13  and  C_14
REMARK    7  A    between atoms: C_14  and  C_15
REMARK    8  A    between atoms: C_28  and  C_29
REMARK                            x       y       z     vdW  Elec       q    Type
REMARK                         _______ _______ _______ _____ _____    ______ ____
ROOT
ATOM      8  C   UNL     1      -0.445  -0.217  24.689  0.00  0.00    +0.024 C 
ATOM      9  C   UNL     1      -0.252  -0.873  24.228  0.00  0.00    +0.089 C 
ATOM     10  N   UNL     1       0.188  -0.778  23.537  0.00  0.00    -0.218 NA
ATOM     11  C   UNL     1       0.436  -0.025  23.307  0.00  0.00    +0.089 C 
ATOM     12  C   UNL     1       0.243   0.632  23.769  0.00  0.00    +0.019 C 
ATOM     13  C   UNL     1      -0.197   0.536  24.459  0.00  0.00    +0.012 C 
ENDROOT
BRANCH   8   7
ATOM      7  C   UNL     1      -0.886  -0.312  25.380  0.00  0.00    +0.051 C 
BRANCH   7   6
ATOM      4  C   UNL     1      -2.949  -0.861  25.368  0.00  0.00    +0.170 A 
ATOM      5  C   UNL     1      -2.354  -0.293  25.439  0.00  0.00    +0.055 A 
ATOM      6  C   UNL     1      -1.628  -0.672  25.348  0.00  0.00    +0.100 A 
ATOM     26  N   UNL     1      -1.773  -1.474  25.220  0.00  0.00    -0.082 NA
ATOM     27  O   UNL     1      -2.589  -1.590  25.233  0.00  0.00    -0.357 OA
BRANCH   4   3
ATOM      3  C   UNL     1      -3.761  -0.722  25.422  0.00  0.00    +0.141 C 
BRANCH   3   2
ATOM      1  C   UNL     1      -4.425  -0.267  24.242  0.00  0.00    +0.090 C 
ATOM      2  N   UNL     1      -4.106  -0.112  24.986  0.00  0.00    -0.261 NA
BRANCH   2  28
ATOM     28  C   UNL     1      -4.131   0.653  25.295  0.00  0.00    +0.100 C 
BRANCH  28  29
ATOM     29  C   UNL     1      -4.796   1.125  25.175  0.00  0.00    -0.006 A 
ATOM     30  C   UNL     1      -4.762   1.757  24.646  0.00  0.00    -0.003 A 
ATOM     31  C   UNL     1      -5.428   2.229  24.524  0.00  0.00    -0.000 A 
ATOM     32  C   UNL     1      -6.127   2.069  24.932  0.00  0.00    -0.000 A 
ATOM     33  C   UNL     1      -6.160   1.437  25.461  0.00  0.00    -0.000 A 
ATOM     34  C   UNL     1      -5.495   0.965  25.582  0.00  0.00    -0.003 A 
ENDBRANCH  28  29
ENDBRANCH   2  28
ENDBRANCH   3   2
ENDBRANCH   4   3
ENDBRANCH   7   6
ENDBRANCH   8   7
BRANCH  13  14
ATOM     14  C   UNL     1      -0.390   1.193  24.920  0.00  0.00    +0.085 C 
BRANCH  14  15
ATOM     15  C   UNL     1      -0.031   1.920  24.772  0.00  0.00    +0.226 C 
ATOM     16  O   UNL     1       0.743   1.948  24.486  0.00  0.00    -0.275 OA
ATOM     17  N   UNL     1      -0.444   2.620  24.910  0.00  0.00    -0.276 N 
ATOM     18  C   UNL     1      -0.085   3.348  24.762  0.00  0.00    +0.115 C 
ATOM     19  C   UNL     1      -0.499   4.048  24.900  0.00  0.00    +0.115 C 
ATOM     20  N   UNL     1      -1.272   4.020  25.186  0.00  0.00    -0.276 N 
ATOM     21  C   UNL     1      -1.631   3.292  25.334  0.00  0.00    +0.115 C 
ATOM     22  C   UNL     1      -1.218   2.593  25.197  0.00  0.00    +0.115 C 
ATOM     23  C   UNL     1      -1.686   4.721  25.325  0.00  0.00    +0.226 C 
ATOM     24  C   UNL     1      -2.459   4.693  25.611  0.00  0.00    +0.095 C 
ATOM     25  O   UNL     1      -1.326   5.448  25.176  0.00  0.00    -0.275 OA
ENDBRANCH  14  15
ENDBRANCH  13  14
TORSDOF 8
ENDMDL
MODEL 6
REMARK VINA RESULT:     -10.6      1.440      5.368
REMARK  Name = 
REMARK  8 active torsions:
REMARK  status: ('A' for Active; 'I' for Inactive)
REMARK    1  A    between atoms: N_2  and  C_3
REMARK    2  A    between atoms: N_2  and  C_28
REMARK    3  A    between atoms: C_3  and  C_4
REMARK    4  A    between atoms: C_6  and  C_7
REMARK    5  A    between atoms: C_7  and  C_8
REMARK    6  A    between atoms: C_13  and  C_14
REMARK    7  A    between atoms: C_14  and  C_15
REMARK    8  A    between atoms: C_28  and  C_29
REMARK                            x       y       z     vdW  Elec       q    Type
REMARK                         _______ _______ _______ _____ _____    ______ ____
ROOT
ATOM      8  C   UNL     1      -4.994   1.984  24.688  0.00  0.00    +0.024 C 
ATOM      9  C   UNL     1      -5.622   2.401  25.022  0.00  0.00    +0.089 C 
ATOM     10  N   UNL     1      -6.105   2.041  25.585  0.00  0.00    -0.218 NA
ATOM     11  C   UNL     1      -5.959   1.262  25.815  0.00  0.00    +0.089 C 
ATOM     12  C   UNL     1      -5.330   0.844  25.481  0.00  0.00    +0.019 C 
ATOM     13  C   UNL     1      -4.848   1.205  24.918  0.00  0.00    +0.012 C 
ENDROOT
BRANCH   8   7
ATOM      7  C   UNL     1      -4.511   2.344  24.125  0.00  0.00    +0.051 C 
BRANCH   7   6
ATOM      4  C   UNL     1      -3.110   3.906  24.521  0.00  0.00    +0.170 A 
ATOM      5  C   UNL     1      -3.281   3.134  24.284  0.00  0.00    +0.055 A 
ATOM      6  C   UNL     1      -4.099   3.034  24.317  0.00  0.00    +0.100 A 
ATOM     26  N   UNL     1      -4.433   3.743  24.574  0.00  0.00    -0.082 NA
ATOM     27  O   UNL     1      -3.822   4.281  24.700  0.00  0.00    -0.357 OA
BRANCH   4   3
ATOM      3  C   UNL     1      -2.358   4.242  24.571  0.00  0.00    +0.141 C 
BRANCH   3   2
ATOM      1  C   UNL     1      -2.249   3.983  25.972  0.00  0.00    +0.090 C 
ATOM      2  N   UNL     1      -1.892   4.114  25.240  0.00  0.00    -0.261 NA
BRANCH   2  28
ATOM     28  C   UNL     1      -1.069   4.118  25.177  0.00  0.00    +0.100 C 
BRANCH  28  29
ATOM     29  C   UNL     1      -0.642   3.425  25.312  0.00  0.00    -0.006 A 
ATOM     30  C   UNL     1      -0.294   3.025  24.680  0.00  0.00    -0.003 A 
ATOM     31  C   UNL     1       0.133   2.332  24.815  0.00  0.00    -0.000 A 
ATOM     32  C   UNL     1       0.212   2.039  25.582  0.00  0.00    -0.000 A 
ATOM     33  C   UNL     1      -0.136   2.439  26.215  0.00  0.00    -0.000 A 
ATOM     34  C   UNL     1      -0.563   3.132  26.079  0.00  0.00    -0.003 A 
ENDBRANCH  28  29
ENDBRANCH   2  28
ENDBRANCH   3   2
ENDBRANCH   4   3
ENDBRANCH   7   6
ENDBRANCH   8   7
BRANCH  13  14
ATOM     14  C   UNL     1      -4.219   0.787  24.585  0.00  0.00    +0.085 C 
BRANCH  14  15
ATOM     15  C   UNL     1      -4.266  -0.032  24.502  0.00  0.00    +0.226 C 
ATOM     16  O   UNL     1      -4.995  -0.391  24.358  0.00  0.00    -0.275 OA
ATOM     17  N   UNL     1      -3.585  -0.493  24.562  0.00  0.00    -0.276 N 
ATOM     18  C   UNL     1      -3.633  -1.312  24.479  0.00  0.00    +0.115 C 
ATOM     19  C   UNL     1      -2.950  -1.773  24.539  0.00  0.00    +0.115 C 
ATOM     20  N   UNL     1      -2.222  -1.415  24.683  0.00  0.00    -0.276 N 
ATOM     21  C   UNL     1      -2.175  -0.595  24.766  0.00  0.00    +0.115 C 
ATOM     22  C   UNL     1      -2.856  -0.134  24.706  0.00  0.00    +0.115 C 
ATOM     23  C   UNL     1      -1.540  -1.876  24.744  0.00  0.00    +0.226 C 
ATOM     24  C   UNL     1      -0.811  -1.517  24.887  0.00  0.00    +0.095 C 
ATOM     25  O   UNL     1      -1.587  -2.695  24.660  0.00  0.00    -0.275 OA
ENDBRANCH  14  15
ENDBRANCH  13  14
TORSDOF 8
ENDMDL
MODEL 7
REMARK VINA RESULT:     -10.4      1.627      5.719
REMARK  Name = 
REMARK  8 active torsions:
REMARK  status: ('A' for Active; 'I' for Inactive)
REMARK    1  A    between atoms: N_2  and  C_3
REMARK    2  A    between atoms: N_2  and  C_28
REMARK    3  A    between atoms: C_3  and  C_4
REMARK    4  A    between atoms: C_6  and  C_7
REMARK    5  A    between atoms: C_7  and  C_8
REMARK    6  A    between atoms: C_13  and  C_14
REMARK    7  A    between atoms: C_14  and  C_15
REMARK    8  A    between atoms: C_28  and  C_29
REMARK                            x       y       z     vdW  Elec       q    Type
REMARK                         _______ _______ _______ _____ _____    ______ ____
ROOT
ATOM      8  C   UNL     1      -3.528  -0.153  24.953  0.00  0.00    +0.024 C 
ATOM      9  C   UNL     1      -4.144  -0.428  25.427  0.00  0.00    +0.089 C 
ATOM     10  N   UNL     1      -4.005  -1.019  25.985  0.00  0.00    -0.218 NA
ATOM     11  C   UNL     1      -3.247  -1.335  26.069  0.00  0.00    +0.089 C 
ATOM     12  C   UNL     1      -2.630  -1.060  25.595  0.00  0.00    +0.019 C 
ATOM     13  C   UNL     1      -2.770  -0.469  25.037  0.00  0.00    +0.012 C 
ENDROOT
BRANCH   8   7
ATOM      7  C   UNL     1      -3.667   0.438  24.395  0.00  0.00    +0.051 C 
BRANCH   7   6
ATOM      4  C   UNL     1      -4.210   2.386  25.079  0.00  0.00    +0.170 A 
ATOM      5  C   UNL     1      -3.640   1.810  24.923  0.00  0.00    +0.055 A 
ATOM      6  C   UNL     1      -4.026   1.145  24.625  0.00  0.00    +0.100 A 
ATOM     26  N   UNL     1      -4.834   1.310  24.597  0.00  0.00    -0.082 NA
ATOM     27  O   UNL     1      -4.948   2.077  24.877  0.00  0.00    -0.357 OA
BRANCH   4   3
ATOM      3  C   UNL     1      -4.067   3.140  25.383  0.00  0.00    +0.141 C 
BRANCH   3   2
ATOM      1  C   UNL     1      -3.354   3.825  24.351  0.00  0.00    +0.090 C 
ATOM      2  N   UNL     1      -3.406   3.567  25.133  0.00  0.00    -0.261 NA
BRANCH   2  28
ATOM     28  C   UNL     1      -2.799   3.737  25.665  0.00  0.00    +0.100 C 
BRANCH  28  29
ATOM     29  C   UNL     1      -2.150   4.183  25.421  0.00  0.00    -0.006 A 
ATOM     30  C   UNL     1      -2.214   5.004  25.359  0.00  0.00    -0.003 A 
ATOM     31  C   UNL     1      -1.564   5.451  25.115  0.00  0.00    -0.000 A 
ATOM     32  C   UNL     1      -0.852   5.077  24.933  0.00  0.00    -0.000 A 
ATOM     33  C   UNL     1      -0.788   4.257  24.995  0.00  0.00    -0.000 A 
ATOM     34  C   UNL     1      -1.437   3.810  25.239  0.00  0.00    -0.003 A 
ENDBRANCH  28  29
ENDBRANCH   2  28
ENDBRANCH   3   2
ENDBRANCH   4   3
ENDBRANCH   7   6
ENDBRANCH   8   7
BRANCH  13  14
ATOM     14  C   UNL     1      -2.153  -0.194  24.563  0.00  0.00    +0.085 C 
BRANCH  14  15
ATOM     15  C   UNL     1      -1.557  -0.710  24.322  0.00  0.00    +0.226 C 
ATOM     16  O   UNL     1      -1.686  -1.526  24.335  0.00  0.00    -0.275 OA
ATOM     17  N   UNL     1      -0.831  -0.413  24.068  0.00  0.00    -0.276 N 
ATOM     18  C   UNL     1      -0.235  -0.929  23.827  0.00  0.00    +0.115 C 
ATOM     19  C   UNL     1       0.492  -0.631  23.573  0.00  0.00    +0.115 C 
ATOM     20  N   UNL     1       0.621   0.183  23.560  0.00  0.00    -0.276 N 
ATOM     21  C   UNL     1       0.024   0.700  23.802  0.00  0.00    +0.115 C 
ATOM     22  C   UNL     1      -0.701   0.402  24.055  0.00  0.00    +0.115 C 
ATOM     23  C   UNL     1       1.348   0.482  23.306  0.00  0.00    +0.226 C 
ATOM     24  C   UNL     1       1.477   1.296  23.294  0.00  0.00    +0.095 C 
ATOM     25  O   UNL     1       1.944  -0.035  23.065  0.00  0.00    -0.275 OA
ENDBRANCH  14  15
ENDBRANCH  13  14
TORSDOF 8
ENDMDL
MODEL 8
REMARK VINA RESULT:      -8.7     14.297     16.365
REMARK  Name = 
REMARK  8 active torsions:
REMARK  status: ('A' for Active; 'I' for Inactive)
REMARK    1  A    between atoms: N_2  and  C_3
REMARK    2  A    between atoms: N_2  and  C_28
REMARK    3  A    between atoms: C_3  and  C_4
REMARK    4  A    between atoms: C_6  and  C_7
REMARK    5  A    between atoms: C_7  and  C_8
REMARK    6  A    between atoms: C_13  and  C_14
REMARK    7  A    between atoms: C_14  and  C_15
REMARK    8  A    between atoms: C_28  and  C_29
REMARK                            x       y       z     vdW  Elec       q    Type
REMARK                         _______ _______ _______ _____ _____    ______ ____
ROOT
ATOM      8  C   UNL     1      -2.328 -10.615  14.726  0.00  0.00    +0.024 C 
ATOM      9  C   UNL     1      -1.522 -10.613  14.549  0.00  0.00    +0.089 C 
ATOM     10  N   UNL     1      -0.968 -10.470  15.142  0.00  0.00    -0.218 NA
ATOM     11  C   UNL     1      -1.220 -10.329  15.916  0.00  0.00    +0.089 C 
ATOM     12  C   UNL     1      -2.026 -10.331  16.094  0.00  0.00    +0.019 C 
ATOM     13  C   UNL     1      -2.579 -10.474  15.500  0.00  0.00    +0.012 C 
ENDROOT
BRANCH   8   7
ATOM      7  C   UNL     1      -2.882 -10.757  14.133  0.00  0.00    +0.051 C 
BRANCH   7   6
ATOM      4  C   UNL     1      -2.734 -10.558  12.012  0.00  0.00    +0.170 A 
ATOM      5  C   UNL     1      -3.184 -10.650  12.698  0.00  0.00    +0.055 A 
ATOM      6  C   UNL     1      -2.667 -10.672  13.340  0.00  0.00    +0.100 A 
ATOM     26  N   UNL     1      -1.898 -10.594  13.052  0.00  0.00    -0.082 NA
ATOM     27  O   UNL     1      -1.940 -10.524  12.231  0.00  0.00    -0.357 OA
BRANCH   4   3
ATOM      3  C   UNL     1      -3.028 -10.510  11.243  0.00  0.00    +0.141 C 
BRANCH   3   2
ATOM      1  C   UNL     1      -2.445  -9.321  10.705  0.00  0.00    +0.090 C 
ATOM      2  N   UNL     1      -3.113  -9.773  10.879  0.00  0.00    -0.261 NA
BRANCH   2  28
ATOM     28  C   UNL     1      -3.864  -9.491  10.690  0.00  0.00    +0.100 C 
BRANCH  28  29
ATOM     29  C   UNL     1      -4.144  -9.548   9.916  0.00  0.00    -0.006 A 
ATOM     30  C   UNL     1      -4.513 -10.240   9.662  0.00  0.00    -0.003 A 
ATOM     31  C   UNL     1      -4.792 -10.298   8.887  0.00  0.00    -0.000 A 
ATOM     32  C   UNL     1      -4.703  -9.663   8.368  0.00  0.00    -0.000 A 
ATOM     33  C   UNL     1      -4.333  -8.971   8.623  0.00  0.00    -0.000 A 
ATOM     34  C   UNL     1      -4.054  -8.913   9.396  0.00  0.00    -0.003 A 
ENDBRANCH  28  29
ENDBRANCH   2  28
ENDBRANCH   3   2
ENDBRANCH   4   3
ENDBRANCH   7   6
ENDBRANCH   8   7
BRANCH  13  14
ATOM     14  C   UNL     1      -3.385 -10.476  15.678  0.00  0.00    +0.085 C 
BRANCH  14  15
ATOM     15  C   UNL     1      -3.634 -10.552  16.461  0.00  0.00    +0.226 C 
ATOM     16  O   UNL     1      -3.095 -10.776  17.045  0.00  0.00    -0.275 OA
ATOM     17  N   UNL     1      -4.421 -10.405  16.661  0.00  0.00    -0.276 N 
ATOM     18  C   UNL     1      -4.669 -10.482  17.443  0.00  0.00    +0.115 C 
ATOM     19  C   UNL     1      -5.457 -10.334  17.642  0.00  0.00    +0.115 C 
ATOM     20  N   UNL     1      -5.994 -10.111  17.058  0.00  0.00    -0.276 N 
ATOM     21  C   UNL     1      -5.745 -10.034  16.275  0.00  0.00    +0.115 C 
ATOM     22  C   UNL     1      -4.959 -10.181  16.076  0.00  0.00    +0.115 C 
ATOM     23  C   UNL     1      -6.782  -9.963  17.257  0.00  0.00    +0.226 C 
ATOM     24  C   UNL     1      -7.320  -9.740  16.674  0.00  0.00    +0.095 C 
ATOM     25  O   UNL     1      -7.030 -10.040  18.040  0.00  0.00    -0.275 OA
ENDBRANCH  14  15
ENDBRANCH  13  14
TORSDOF 8
ENDMDL
