MODEL 1
REMARK VINA RESULT:     -10.1      0.000      0.000
REMARK  Name = 
REMARK  6 active torsions:
REMARK  status: ('A' for Active; 'I' for Inactive)
REMARK    1  A    between atoms: C_2  and  C_4
REMARK    2  A    between atoms: C_6  and  C_7
REMARK    3  A    between atoms: C_7  and  C_8
REMARK    4  A    between atoms: N_13  and  C_14
REMARK    5  A    between atoms: C_14  and  C_15
REMARK    6  A    between atoms: C_22  and  C_23
REMARK                            x       y       z     vdW  Elec       q    Type
REMARK                         _______ _______ _______ _____ _____    ______ ____
ROOT
ATOM      4  C   UNL     1      -2.184  -1.071  24.946  0.00  0.00    +0.007 C 
ATOM      5  C   UNL     1      -2.811  -0.534  24.936  0.00  0.00    +0.005 C 
ATOM      6  C   UNL     1      -3.534  -0.752  24.606  0.00  0.00    +0.027 C 
ATOM     19  C   UNL     1      -3.631  -1.507  24.285  0.00  0.00    -0.048 C 
ATOM     20  C   UNL     1      -4.355  -1.725  23.955  0.00  0.00    +0.026 C 
ATOM     21  C   UNL     1      -3.003  -2.044  24.296  0.00  0.00    -0.032 C 
ATOM     22  C   UNL     1      -2.280  -1.826  24.626  0.00  0.00    +0.054 C 
ENDROOT
BRANCH   4   2
ATOM      1  C   UNL     1      -0.834  -0.630  24.788  0.00  0.00    +0.000 C 
ATOM      2  C   UNL     1      -1.460  -0.853  25.277  0.00  0.00    +0.000 C 
ATOM      3  C   UNL     1      -1.363  -0.857  26.096  0.00  0.00    +0.000 C 
ENDBRANCH   4   2
BRANCH  22  23
ATOM     23  C   UNL     1      -1.653  -2.361  24.637  0.00  0.00    +0.186 C 
ATOM     24  O   UNL     1      -1.725  -3.087  24.251  0.00  0.00    -0.220 OA
ENDBRANCH  22  23
BRANCH   6   7
ATOM      7  C   UNL     1      -4.161  -0.217  24.595  0.00  0.00    +0.089 C 
BRANCH   7   8
ATOM      8  C   UNL     1      -4.055   0.538  24.280  0.00  0.00    +0.226 C 
ATOM      9  O   UNL     1      -3.529   0.653  23.655  0.00  0.00    -0.275 OA
ATOM     10  N   UNL     1      -4.474   1.177  24.589  0.00  0.00    -0.277 N 
ATOM     11  C   UNL     1      -5.001   1.062  25.214  0.00  0.00    +0.111 C 
ATOM     12  C   UNL     1      -5.420   1.700  25.523  0.00  0.00    +0.094 C 
ATOM     13  N   UNL     1      -5.313   2.456  25.207  0.00  0.00    -0.268 NA
ATOM     17  C   UNL     1      -4.787   2.572  24.583  0.00  0.00    +0.094 C 
ATOM     18  C   UNL     1      -4.367   1.933  24.273  0.00  0.00    +0.111 C 
BRANCH  13  14
ATOM     14  C   UNL     1      -5.733   3.095  25.517  0.00  0.00    +0.108 C 
BRANCH  14  15
ATOM     15  C   UNL     1      -5.392   3.846  25.529  0.00  0.00    +0.199 C 
ATOM     16  O   UNL     1      -5.818   4.489  25.821  0.00  0.00    -0.219 OA
ENDBRANCH  14  15
ENDBRANCH  13  14
ENDBRANCH   7   8
ENDBRANCH   6   7
TORSDOF 6
ENDMDL
MODEL 2
REMARK VINA RESULT:      -9.8      2.357      4.631
REMARK  Name = 
REMARK  6 active torsions:
REMARK  status: ('A' for Active; 'I' for Inactive)
REMARK    1  A    between atoms: C_2  and  C_4
REMARK    2  A    between atoms: C_6  and  C_7
REMARK    3  A    between atoms: C_7  and  C_8
REMARK    4  A    between atoms: N_13  and  C_14
REMARK    5  A    between atoms: C_14  and  C_15
REMARK    6  A    between atoms: C_22  and  C_23
REMARK                            x       y       z     vdW  Elec       q    Type
REMARK                         _______ _______ _______ _____ _____    ______ ____
ROOT
ATOM      4  C   UNL     1      -1.674   3.219  25.145  0.00  0.00    +0.007 C 
ATOM      5  C   UNL     1      -2.203   2.592  25.049  0.00  0.00    +0.005 C 
ATOM      6  C   UNL     1      -3.014   2.736  25.029  0.00  0.00    +0.027 C 
ATOM     19  C   UNL     1      -3.299   3.507  25.105  0.00  0.00    -0.048 C 
ATOM     20  C   UNL     1      -4.111   3.651  25.085  0.00  0.00    +0.026 C 
ATOM     21  C   UNL     1      -2.770   4.134  25.201  0.00  0.00    -0.032 C 
ATOM     22  C   UNL     1      -1.959   3.990  25.221  0.00  0.00    +0.054 C 
ENDROOT
BRANCH   4   2
ATOM      1  C   UNL     1      -0.503   2.838  25.870  0.00  0.00    +0.000 C 
ATOM      2  C   UNL     1      -0.862   3.074  25.166  0.00  0.00    +0.000 C 
ATOM      3  C   UNL     1      -0.410   3.167  24.481  0.00  0.00    +0.000 C 
ENDBRANCH   4   2
BRANCH  22  23
ATOM     23  C   UNL     1      -1.431   4.616  25.318  0.00  0.00    +0.186 C 
ATOM     24  O   UNL     1      -1.707   5.393  25.308  0.00  0.00    -0.220 OA
ENDBRANCH  22  23
BRANCH   6   7
ATOM      7  C   UNL     1      -3.542   2.110  24.932  0.00  0.00    +0.089 C 
BRANCH   7   8
ATOM      8  C   UNL     1      -3.472   1.606  24.283  0.00  0.00    +0.226 C 
ATOM      9  O   UNL     1      -3.267   1.911  23.545  0.00  0.00    -0.275 OA
ATOM     10  N   UNL     1      -3.607   0.798  24.372  0.00  0.00    -0.277 N 
ATOM     11  C   UNL     1      -3.812   0.491  25.110  0.00  0.00    +0.111 C 
ATOM     12  C   UNL     1      -3.946  -0.317  25.199  0.00  0.00    +0.094 C 
ATOM     13  N   UNL     1      -3.876  -0.821  24.549  0.00  0.00    -0.268 NA
ATOM     17  C   UNL     1      -3.671  -0.516  23.811  0.00  0.00    +0.094 C 
ATOM     18  C   UNL     1      -3.536   0.293  23.721  0.00  0.00    +0.111 C 
BRANCH  13  14
ATOM     14  C   UNL     1      -4.011  -1.630  24.638  0.00  0.00    +0.108 C 
BRANCH  14  15
ATOM     15  C   UNL     1      -3.436  -2.107  24.988  0.00  0.00    +0.199 C 
ATOM     16  O   UNL     1      -3.555  -2.921  25.049  0.00  0.00    -0.219 OA
ENDBRANCH  14  15
ENDBRANCH  13  14
ENDBRANCH   7   8
ENDBRANCH   6   7
TORSDOF 6
ENDMDL
MODEL 3
REMARK VINA RESULT:      -9.7      2.435      3.207
REMARK  Name = 
REMARK  6 active torsions:
REMARK  status: ('A' for Active; 'I' for Inactive)
REMARK    1  A    between atoms: C_2  and  C_4
REMARK    2  A    between atoms: C_6  and  C_7
REMARK    3  A    between atoms: C_7  and  C_8
REMARK    4  A    between atoms: N_13  and  C_14
REMARK    5  A    between atoms: C_14  and  C_15
REMARK    6  A    between atoms: C_22  and  C_23
REMARK                            x       y       z     vdW  Elec       q    Type
REMARK                         _______ _______ _______ _____ _____    ______ ____
ROOT
ATOM      4  C   UNL     1      -3.181  -0.769  24.893  0.00  0.00    +0.007 C 
ATOM      5  C   UNL     1      -2.630  -0.156  24.941  0.00  0.00    +0.005 C 
ATOM      6  C   UNL     1      -1.843  -0.322  25.120  0.00  0.00    +0.027 C 
ATOM     19  C   UNL     1      -1.605  -1.102  25.251  0.00  0.00    -0.048 C 
ATOM     20  C   UNL     1      -0.817  -1.268  25.431  0.00  0.00    +0.026 C 
ATOM     21  C   UNL     1      -2.156  -1.715  25.203  0.00  0.00    -0.032 C 
ATOM     22  C   UNL     1      -2.943  -1.549  25.024  0.00  0.00    +0.054 C 
ENDROOT
BRANCH   4   2
ATOM      1  C   UNL     1      -4.284  -0.835  23.987  0.00  0.00    +0.000 C 
ATOM      2  C   UNL     1      -3.969  -0.603  24.713  0.00  0.00    +0.000 C 
ATOM      3  C   UNL     1      -4.441  -0.205  25.261  0.00  0.00    +0.000 C 
ENDBRANCH   4   2
BRANCH  22  23
ATOM     23  C   UNL     1      -3.494  -2.161  24.976  0.00  0.00    +0.186 C 
ATOM     24  O   UNL     1      -3.274  -2.929  25.182  0.00  0.00    -0.220 OA
ENDBRANCH  22  23
BRANCH   6   7
ATOM      7  C   UNL     1      -1.292   0.290  25.168  0.00  0.00    +0.089 C 
BRANCH   7   8
ATOM      8  C   UNL     1      -1.215   0.825  24.545  0.00  0.00    +0.226 C 
ATOM      9  O   UNL     1      -1.253   0.559  23.765  0.00  0.00    -0.275 OA
ATOM     10  N   UNL     1      -1.098   1.626  24.702  0.00  0.00    -0.277 N 
ATOM     11  C   UNL     1      -1.060   1.893  25.482  0.00  0.00    +0.111 C 
ATOM     12  C   UNL     1      -0.943   2.694  25.639  0.00  0.00    +0.094 C 
ATOM     13  N   UNL     1      -0.865   3.230  25.015  0.00  0.00    -0.268 NA
ATOM     17  C   UNL     1      -0.904   2.964  24.236  0.00  0.00    +0.094 C 
ATOM     18  C   UNL     1      -1.020   2.162  24.078  0.00  0.00    +0.111 C 
BRANCH  13  14
ATOM     14  C   UNL     1      -0.749   4.032  25.173  0.00  0.00    +0.108 C 
BRANCH  14  15
ATOM     15  C   UNL     1      -1.374   4.563  25.086  0.00  0.00    +0.199 C 
ATOM     16  O   UNL     1      -1.237   5.375  25.146  0.00  0.00    -0.219 OA
ENDBRANCH  14  15
ENDBRANCH  13  14
ENDBRANCH   7   8
ENDBRANCH   6   7
TORSDOF 6
ENDMDL
MODEL 4
REMARK VINA RESULT:      -9.6      1.811      2.027
REMARK  Name = 
REMARK  6 active torsions:
REMARK  status: ('A' for Active; 'I' for Inactive)
REMARK    1  A    between atoms: C_2  and  C_4
REMARK    2  A    between atoms: C_6  and  C_7
REMARK    3  A    between atoms: C_7  and  C_8
REMARK    4  A    between atoms: N_13  and  C_14
REMARK    5  A    between atoms: C_14  and  C_15
REMARK    6  A    between atoms: C_22  and  C_23
REMARK                            x       y       z     vdW  Elec       q    Type
REMARK                         _______ _______ _______ _____ _____    ______ ____
ROOT
ATOM      4  C   UNL     1      -2.558  -1.187  24.805  0.00  0.00    +0.007 C 
ATOM      5  C   UNL     1      -2.703  -0.375  24.786  0.00  0.00    +0.005 C 
ATOM      6  C   UNL     1      -3.464  -0.096  24.636  0.00  0.00    +0.027 C 
ATOM     19  C   UNL     1      -4.081  -0.629  24.505  0.00  0.00    -0.048 C 
ATOM     20  C   UNL     1      -4.843  -0.349  24.355  0.00  0.00    +0.026 C 
ATOM     21  C   UNL     1      -3.936  -1.441  24.525  0.00  0.00    -0.032 C 
ATOM     22  C   UNL     1      -3.175  -1.720  24.675  0.00  0.00    +0.054 C 
ENDROOT
BRANCH   4   2
ATOM      1  C   UNL     1      -1.350  -1.796  24.344  0.00  0.00    +0.000 C 
ATOM      2  C   UNL     1      -1.796  -1.466  24.955  0.00  0.00    +0.000 C 
ATOM      3  C   UNL     1      -1.482  -1.416  25.717  0.00  0.00    +0.000 C 
ENDBRANCH   4   2
BRANCH  22  23
ATOM     23  C   UNL     1      -3.029  -2.532  24.695  0.00  0.00    +0.186 C 
ATOM     24  O   UNL     1      -3.647  -3.064  24.572  0.00  0.00    -0.220 OA
ENDBRANCH  22  23
BRANCH   6   7
ATOM      7  C   UNL     1      -3.610   0.716  24.616  0.00  0.00    +0.089 C 
BRANCH   7   8
ATOM      8  C   UNL     1      -3.180   1.201  24.105  0.00  0.00    +0.226 C 
ATOM      9  O   UNL     1      -2.940   0.914  23.370  0.00  0.00    -0.275 OA
ATOM     10  N   UNL     1      -2.992   1.971  24.329  0.00  0.00    -0.277 N 
ATOM     11  C   UNL     1      -3.232   2.258  25.064  0.00  0.00    +0.111 C 
ATOM     12  C   UNL     1      -3.043   3.029  25.288  0.00  0.00    +0.094 C 
ATOM     13  N   UNL     1      -2.613   3.514  24.777  0.00  0.00    -0.268 NA
ATOM     17  C   UNL     1      -2.373   3.227  24.042  0.00  0.00    +0.094 C 
ATOM     18  C   UNL     1      -2.561   2.456  23.817  0.00  0.00    +0.111 C 
BRANCH  13  14
ATOM     14  C   UNL     1      -2.424   4.285  25.001  0.00  0.00    +0.108 C 
BRANCH  14  15
ATOM     15  C   UNL     1      -1.652   4.472  25.222  0.00  0.00    +0.199 C 
ATOM     16  O   UNL     1      -1.431   5.261  25.325  0.00  0.00    -0.219 OA
ENDBRANCH  14  15
ENDBRANCH  13  14
ENDBRANCH   7   8
ENDBRANCH   6   7
TORSDOF 6
ENDMDL
MODEL 5
REMARK VINA RESULT:      -9.4      2.609      4.988
REMARK  Name = 
REMARK  6 active torsions:
REMARK  status: ('A' for Active; 'I' for Inactive)
REMARK    1  A    between atoms: C_2  and  C_4
REMARK    2  A    between atoms: C_6  and  C_7
REMARK    3  A    between atoms: C_7  and  C_8
REMARK    4  A    between atoms: N_13  and  C_14
REMARK    5  A    between atoms: C_14  and  C_15
REMARK    6  A    between atoms: C_22  and  C_23
REMARK                            x       y       z     vdW  Elec       q    Type
REMARK                         _______ _______ _______ _____ _____    ______ ____
ROOT
ATOM      4  C   UNL     1      -2.175   3.584  25.270  0.00  0.00    +0.007 C 
ATOM      5  C   UNL     1      -2.217   2.763  25.185  0.00  0.00    +0.005 C 
ATOM      6  C   UNL     1      -1.553   2.340  24.942  0.00  0.00    +0.027 C 
ATOM     19  C   UNL     1      -0.846   2.735  24.785  0.00  0.00    -0.048 C 
ATOM     20  C   UNL     1      -0.181   2.311  24.542  0.00  0.00    +0.026 C 
ATOM     21  C   UNL     1      -0.804   3.556  24.870  0.00  0.00    -0.032 C 
ATOM     22  C   UNL     1      -1.468   3.979  25.112  0.00  0.00    +0.054 C 
ENDROOT
BRANCH   4   2
ATOM      1  C   UNL     1      -3.374   4.293  24.951  0.00  0.00    +0.000 C 
ATOM      2  C   UNL     1      -2.840   4.008  25.512  0.00  0.00    +0.000 C 
ATOM      3  C   UNL     1      -2.970   4.146  26.315  0.00  0.00    +0.000 C 
ENDBRANCH   4   2
BRANCH  22  23
ATOM     23  C   UNL     1      -1.427   4.799  25.197  0.00  0.00    +0.186 C 
ATOM     24  O   UNL     1      -0.749   5.203  24.958  0.00  0.00    -0.220 OA
ENDBRANCH  22  23
BRANCH   6   7
ATOM      7  C   UNL     1      -1.595   1.520  24.857  0.00  0.00    +0.089 C 
BRANCH   7   8
ATOM      8  C   UNL     1      -2.183   1.183  24.388  0.00  0.00    +0.226 C 
ATOM      9  O   UNL     1      -2.449   1.577  23.714  0.00  0.00    -0.275 OA
ATOM     10  N   UNL     1      -2.505   0.452  24.593  0.00  0.00    -0.277 N 
ATOM     11  C   UNL     1      -2.239   0.058  25.267  0.00  0.00    +0.111 C 
ATOM     12  C   UNL     1      -2.561  -0.673  25.471  0.00  0.00    +0.094 C 
ATOM     13  N   UNL     1      -3.150  -1.011  25.001  0.00  0.00    -0.268 NA
ATOM     17  C   UNL     1      -3.416  -0.617  24.328  0.00  0.00    +0.094 C 
ATOM     18  C   UNL     1      -3.094   0.114  24.123  0.00  0.00    +0.111 C 
BRANCH  13  14
ATOM     14  C   UNL     1      -3.472  -1.743  25.207  0.00  0.00    +0.108 C 
BRANCH  14  15
ATOM     15  C   UNL     1      -3.236  -2.424  24.805  0.00  0.00    +0.199 C 
ATOM     16  O   UNL     1      -3.557  -3.156  25.010  0.00  0.00    -0.219 OA
ENDBRANCH  14  15
ENDBRANCH  13  14
ENDBRANCH   7   8
ENDBRANCH   6   7
TORSDOF 6
ENDMDL
MODEL 6
REMARK VINA RESULT:      -9.3      1.298      4.902
REMARK  Name = 
REMARK  6 active torsions:
REMARK  status: ('A' for Active; 'I' for Inactive)
REMARK    1  A    between atoms: C_2  and  C_4
REMARK    2  A    between atoms: C_6  and  C_7
REMARK    3  A    between atoms: C_7  and  C_8
REMARK    4  A    between atoms: N_13  and  C_14
REMARK    5  A    between atoms: C_14  and  C_15
REMARK    6  A    between atoms: C_22  and  C_23
REMARK                            x       y       z     vdW  Elec       q    Type
REMARK                         _______ _______ _______ _____ _____    ______ ____
ROOT
ATOM      4  C   UNL     1      -4.195   3.075  25.269  0.00  0.00    +0.007 C 
ATOM      5  C   UNL     1      -3.966   2.290  25.153  0.00  0.00    +0.005 C 
ATOM      6  C   UNL     1      -4.536   1.697  25.103  0.00  0.00    +0.027 C 
ATOM     19  C   UNL     1      -5.337   1.888  25.170  0.00  0.00    -0.048 C 
ATOM     20  C   UNL     1      -5.908   1.294  25.120  0.00  0.00    +0.026 C 
ATOM     21  C   UNL     1      -5.566   2.672  25.286  0.00  0.00    -0.032 C 
ATOM     22  C   UNL     1      -4.996   3.265  25.336  0.00  0.00    +0.054 C 
ENDROOT
BRANCH   4   2
ATOM      1  C   UNL     1      -3.272   3.841  26.045  0.00  0.00    +0.000 C 
ATOM      2  C   UNL     1      -3.625   3.669  25.319  0.00  0.00    +0.000 C 
ATOM      3  C   UNL     1      -3.407   4.089  24.643  0.00  0.00    +0.000 C 
ENDBRANCH   4   2
BRANCH  22  23
ATOM     23  C   UNL     1      -5.225   4.049  25.452  0.00  0.00    +0.186 C 
ATOM     24  O   UNL     1      -6.003   4.224  25.662  0.00  0.00    -0.220 OA
ENDBRANCH  22  23
BRANCH   6   7
ATOM      7  C   UNL     1      -4.308   0.913  24.987  0.00  0.00    +0.089 C 
BRANCH   7   8
ATOM      8  C   UNL     1      -3.724   0.731  24.434  0.00  0.00    +0.226 C 
ATOM      9  O   UNL     1      -3.698   1.132  23.714  0.00  0.00    -0.275 OA
ATOM     10  N   UNL     1      -3.166   0.148  24.601  0.00  0.00    -0.277 N 
ATOM     11  C   UNL     1      -3.190  -0.254  25.321  0.00  0.00    +0.111 C 
ATOM     12  C   UNL     1      -2.632  -0.837  25.488  0.00  0.00    +0.094 C 
ATOM     13  N   UNL     1      -2.048  -1.020  24.934  0.00  0.00    -0.268 NA
ATOM     17  C   UNL     1      -2.022  -0.619  24.215  0.00  0.00    +0.094 C 
ATOM     18  C   UNL     1      -2.581  -0.035  24.047  0.00  0.00    +0.111 C 
BRANCH  13  14
ATOM     14  C   UNL     1      -1.489  -1.604  25.102  0.00  0.00    +0.108 C 
BRANCH  14  15
ATOM     15  C   UNL     1      -0.706  -1.393  25.252  0.00  0.00    +0.199 C 
ATOM     16  O   UNL     1      -0.160  -1.968  25.481  0.00  0.00    -0.219 OA
ENDBRANCH  14  15
ENDBRANCH  13  14
ENDBRANCH   7   8
ENDBRANCH   6   7
TORSDOF 6
ENDMDL
MODEL 7
REMARK VINA RESULT:      -9.2      2.097      4.917
REMARK  Name = 
REMARK  6 active torsions:
REMARK  status: ('A' for Active; 'I' for Inactive)
REMARK    1  A    between atoms: C_2  and  C_4
REMARK    2  A    between atoms: C_6  and  C_7
REMARK    3  A    between atoms: C_7  and  C_8
REMARK    4  A    between atoms: N_13  and  C_14
REMARK    5  A    between atoms: C_14  and  C_15
REMARK    6  A    between atoms: C_22  and  C_23
REMARK                            x       y       z     vdW  Elec       q    Type
REMARK                         _______ _______ _______ _____ _____    ______ ____
ROOT
ATOM      4  C   UNL     1      -4.286   2.295  24.835  0.00  0.00    +0.007 C 
ATOM      5  C   UNL     1      -3.591   1.895  24.643  0.00  0.00    +0.005 C 
ATOM      6  C   UNL     1      -3.595   1.074  24.567  0.00  0.00    +0.027 C 
ATOM     19  C   UNL     1      -4.296   0.653  24.682  0.00  0.00    -0.048 C 
ATOM     20  C   UNL     1      -4.301  -0.169  24.605  0.00  0.00    +0.026 C 
ATOM     21  C   UNL     1      -4.992   1.053  24.874  0.00  0.00    -0.032 C 
ATOM     22  C   UNL     1      -4.987   1.874  24.951  0.00  0.00    +0.054 C 
ENDROOT
BRANCH   4   2
ATOM      1  C   UNL     1      -4.306   3.461  25.662  0.00  0.00    +0.000 C 
ATOM      2  C   UNL     1      -4.282   3.117  24.912  0.00  0.00    +0.000 C 
ATOM      3  C   UNL     1      -4.253   3.593  24.239  0.00  0.00    +0.000 C 
ENDBRANCH   4   2
BRANCH  22  23
ATOM     23  C   UNL     1      -5.682   2.275  25.143  0.00  0.00    +0.186 C 
ATOM     24  O   UNL     1      -6.400   1.869  25.157  0.00  0.00    -0.220 OA
ENDBRANCH  22  23
BRANCH   6   7
ATOM      7  C   UNL     1      -2.900   0.673  24.375  0.00  0.00    +0.089 C 
BRANCH   7   8
ATOM      8  C   UNL     1      -2.227   0.767  24.842  0.00  0.00    +0.226 C 
ATOM      9  O   UNL     1      -2.303   0.894  25.653  0.00  0.00    -0.275 OA
ATOM     10  N   UNL     1      -1.479   0.733  24.498  0.00  0.00    -0.277 N 
ATOM     11  C   UNL     1      -1.402   0.606  23.686  0.00  0.00    +0.111 C 
ATOM     12  C   UNL     1      -0.654   0.572  23.342  0.00  0.00    +0.094 C 
ATOM     13  N   UNL     1       0.020   0.665  23.810  0.00  0.00    -0.268 NA
ATOM     17  C   UNL     1      -0.056   0.792  24.621  0.00  0.00    +0.094 C 
ATOM     18  C   UNL     1      -0.805   0.826  24.966  0.00  0.00    +0.111 C 
BRANCH  13  14
ATOM     14  C   UNL     1       0.769   0.631  23.465  0.00  0.00    +0.108 C 
BRANCH  14  15
ATOM     15  C   UNL     1       1.000  -0.042  23.048  0.00  0.00    +0.199 C 
ATOM     16  O   UNL     1       1.740  -0.068  22.683  0.00  0.00    -0.219 OA
ENDBRANCH  14  15
ENDBRANCH  13  14
ENDBRANCH   7   8
ENDBRANCH   6   7
TORSDOF 6
ENDMDL
