MODEL 1
REMARK VINA RESULT:     -11.0      0.000      0.000
REMARK  Name = 
REMARK  5 active torsions:
REMARK  status: ('A' for Active; 'I' for Inactive)
REMARK    1  A    between atoms: C_3  and  N_18
REMARK    2  A    between atoms: C_6  and  C_7
REMARK    3  A    between atoms: C_7  and  N_8
REMARK    4  A    between atoms: C_9  and  C_11
REMARK    5  A    between atoms: N_18  and  C_19
REMARK                            x       y       z     vdW  Elec       q    Type
REMARK                         _______ _______ _______ _____ _____    ______ ____
ROOT
ATOM      1  O   UNL     1      -4.974   1.084  25.414  0.00  0.00    -0.219 OA
ATOM      2  C   UNL     1      -4.309   0.962  24.942  0.00  0.00    +0.199 C 
ATOM      3  C   UNL     1      -4.115   0.264  24.548  0.00  0.00    +0.135 C 
ATOM      4  C   UNL     1      -3.407   0.388  24.143  0.00  0.00    +0.162 C 
ATOM      5  O   UNL     1      -3.163   1.163  24.285  0.00  0.00    -0.350 OA
ATOM      6  C   UNL     1      -3.721   1.518  24.779  0.00  0.00    +0.169 C 
ENDROOT
BRANCH   6   7
ATOM      7  C   UNL     1      -3.695   2.293  25.061  0.00  0.00    +0.148 C 
BRANCH   7   8
ATOM      8  N   UNL     1      -3.015   2.748  24.955  0.00  0.00    -0.199 NA
ATOM      9  C   UNL     1      -2.943   3.477  25.333  0.00  0.00    +0.265 C 
ATOM     10  O   UNL     1      -3.551   3.753  25.818  0.00  0.00    -0.268 OA
BRANCH   9  11
ATOM     11  C   UNL     1      -2.263   3.932  25.228  0.00  0.00    +0.055 A 
ATOM     12  C   UNL     1      -1.526   3.565  25.168  0.00  0.00    +0.007 A 
ATOM     13  C   UNL     1      -0.846   4.020  25.062  0.00  0.00    +0.030 A 
ATOM     14  C   UNL     1      -0.903   4.841  25.016  0.00  0.00    +0.140 A 
ATOM     15  F   UNL     1      -0.222   5.296  24.910  0.00  0.00    -0.204 F 
ATOM     16  C   UNL     1      -1.639   5.209  25.076  0.00  0.00    +0.030 A 
ATOM     17  C   UNL     1      -2.319   4.754  25.181  0.00  0.00    +0.007 A 
ENDBRANCH   9  11
ENDBRANCH   7   8
ENDBRANCH   6   7
BRANCH   3  18
ATOM     18  N   UNL     1      -4.552  -0.436  24.559  0.00  0.00    -0.216 NA
BRANCH  18  19
ATOM     19  C   UNL     1      -4.165  -1.164  24.560  0.00  0.00    +0.076 C 
ATOM     20  C   UNL     1      -3.770  -1.420  25.237  0.00  0.00    +0.036 C 
ATOM     21  C   UNL     1      -3.382  -2.149  25.239  0.00  0.00    +0.090 C 
ATOM     22  N   UNL     1      -3.390  -2.621  24.562  0.00  0.00    -0.218 NA
ATOM     23  C   UNL     1      -3.785  -2.365  23.885  0.00  0.00    +0.090 C 
ATOM     24  C   UNL     1      -4.172  -1.636  23.883  0.00  0.00    +0.036 C 
ENDBRANCH  18  19
ENDBRANCH   3  18
TORSDOF 5
ENDMDL
MODEL 2
REMARK VINA RESULT:     -10.4      1.699      2.071
REMARK  Name = 
REMARK  5 active torsions:
REMARK  status: ('A' for Active; 'I' for Inactive)
REMARK    1  A    between atoms: C_3  and  N_18
REMARK    2  A    between atoms: C_6  and  C_7
REMARK    3  A    between atoms: C_7  and  N_8
REMARK    4  A    between atoms: C_9  and  C_11
REMARK    5  A    between atoms: N_18  and  C_19
REMARK                            x       y       z     vdW  Elec       q    Type
REMARK                         _______ _______ _______ _____ _____    ______ ____
ROOT
ATOM      1  O   UNL     1      -1.378  -0.338  26.382  0.00  0.00    -0.219 OA
ATOM      2  C   UNL     1      -1.555  -0.171  25.593  0.00  0.00    +0.199 C 
ATOM      3  C   UNL     1      -1.979  -0.655  25.078  0.00  0.00    +0.135 C 
ATOM      4  C   UNL     1      -2.025  -0.273  24.348  0.00  0.00    +0.162 C 
ATOM      5  O   UNL     1      -1.630   0.448  24.412  0.00  0.00    -0.350 OA
ATOM      6  C   UNL     1      -1.339   0.512  25.182  0.00  0.00    +0.169 C 
ENDROOT
BRANCH   6   7
ATOM      7  C   UNL     1      -0.908   1.145  25.486  0.00  0.00    +0.148 C 
BRANCH   7   8
ATOM      8  N   UNL     1      -1.139   1.919  25.320  0.00  0.00    -0.199 NA
ATOM      9  C   UNL     1      -0.731   2.553  25.655  0.00  0.00    +0.265 C 
ATOM     10  O   UNL     1      -0.091   2.414  26.157  0.00  0.00    -0.268 OA
BRANCH   9  11
ATOM     11  C   UNL     1      -0.963   3.327  25.488  0.00  0.00    +0.055 A 
ATOM     12  C   UNL     1      -1.673   3.620  25.788  0.00  0.00    +0.007 A 
ATOM     13  C   UNL     1      -1.904   4.394  25.622  0.00  0.00    +0.030 A 
ATOM     14  C   UNL     1      -1.425   4.875  25.154  0.00  0.00    +0.140 A 
ATOM     15  F   UNL     1      -1.657   5.649  24.988  0.00  0.00    -0.204 F 
ATOM     16  C   UNL     1      -0.715   4.584  24.853  0.00  0.00    +0.030 A 
ATOM     17  C   UNL     1      -0.483   3.810  25.020  0.00  0.00    +0.007 A 
ENDBRANCH   9  11
ENDBRANCH   7   8
ENDBRANCH   6   7
BRANCH   3  18
ATOM     18  N   UNL     1      -2.301  -1.393  25.261  0.00  0.00    -0.216 NA
BRANCH  18  19
ATOM     19  C   UNL     1      -2.934  -1.687  24.821  0.00  0.00    +0.076 C 
ATOM     20  C   UNL     1      -3.644  -1.271  24.791  0.00  0.00    +0.036 C 
ATOM     21  C   UNL     1      -4.278  -1.565  24.351  0.00  0.00    +0.090 C 
ATOM     22  N   UNL     1      -4.199  -2.276  23.941  0.00  0.00    -0.218 NA
ATOM     23  C   UNL     1      -3.487  -2.694  23.971  0.00  0.00    +0.090 C 
ATOM     24  C   UNL     1      -2.855  -2.399  24.411  0.00  0.00    +0.036 C 
ENDBRANCH  18  19
ENDBRANCH   3  18
TORSDOF 5
ENDMDL
MODEL 3
REMARK VINA RESULT:     -10.3      2.596      5.776
REMARK  Name = 
REMARK  5 active torsions:
REMARK  status: ('A' for Active; 'I' for Inactive)
REMARK    1  A    between atoms: C_3  and  N_18
REMARK    2  A    between atoms: C_6  and  C_7
REMARK    3  A    between atoms: C_7  and  N_8
REMARK    4  A    between atoms: C_9  and  C_11
REMARK    5  A    between atoms: N_18  and  C_19
REMARK                            x       y       z     vdW  Elec       q    Type
REMARK                         _______ _______ _______ _____ _____    ______ ____
ROOT
ATOM      1  O   UNL     1      -0.610   1.184  26.222  0.00  0.00    -0.219 OA
ATOM      2  C   UNL     1      -0.905   1.393  25.481  0.00  0.00    +0.199 C 
ATOM      3  C   UNL     1      -0.914   2.152  25.158  0.00  0.00    +0.135 C 
ATOM      4  C   UNL     1      -1.258   2.106  24.409  0.00  0.00    +0.162 C 
ATOM      5  O   UNL     1      -1.461   1.319  24.269  0.00  0.00    -0.350 OA
ATOM      6  C   UNL     1      -1.243   0.878  24.931  0.00  0.00    +0.169 C 
ENDROOT
BRANCH   6   7
ATOM      7  C   UNL     1      -1.345   0.065  25.027  0.00  0.00    +0.148 C 
BRANCH   7   8
ATOM      8  N   UNL     1      -2.027  -0.301  24.742  0.00  0.00    -0.199 NA
ATOM      9  C   UNL     1      -2.132  -1.113  24.843  0.00  0.00    +0.265 C 
ATOM     10  O   UNL     1      -1.556  -1.559  25.230  0.00  0.00    -0.268 OA
BRANCH   9  11
ATOM     11  C   UNL     1      -2.814  -1.480  24.558  0.00  0.00    +0.055 A 
ATOM     12  C   UNL     1      -3.475  -1.027  24.362  0.00  0.00    +0.007 A 
ATOM     13  C   UNL     1      -4.157  -1.394  24.076  0.00  0.00    +0.030 A 
ATOM     14  C   UNL     1      -4.177  -2.213  23.987  0.00  0.00    +0.140 A 
ATOM     15  F   UNL     1      -4.859  -2.579  23.702  0.00  0.00    -0.204 F 
ATOM     16  C   UNL     1      -3.517  -2.667  24.184  0.00  0.00    +0.030 A 
ATOM     17  C   UNL     1      -2.835  -2.300  24.469  0.00  0.00    +0.007 A 
ENDBRANCH   9  11
ENDBRANCH   7   8
ENDBRANCH   6   7
BRANCH   3  18
ATOM     18  N   UNL     1      -0.630   2.836  25.520  0.00  0.00    -0.216 NA
BRANCH  18  19
ATOM     19  C   UNL     1      -1.031   3.551  25.425  0.00  0.00    +0.076 C 
ATOM     20  C   UNL     1      -1.755   3.670  25.799  0.00  0.00    +0.036 C 
ATOM     21  C   UNL     1      -2.157   4.385  25.704  0.00  0.00    +0.090 C 
ATOM     22  N   UNL     1      -1.833   4.980  25.234  0.00  0.00    -0.218 NA
ATOM     23  C   UNL     1      -1.107   4.861  24.859  0.00  0.00    +0.090 C 
ATOM     24  C   UNL     1      -0.706   4.146  24.955  0.00  0.00    +0.036 C 
ENDBRANCH  18  19
ENDBRANCH   3  18
TORSDOF 5
ENDMDL
MODEL 4
REMARK VINA RESULT:     -10.3      2.083      5.476
REMARK  Name = 
REMARK  5 active torsions:
REMARK  status: ('A' for Active; 'I' for Inactive)
REMARK    1  A    between atoms: C_3  and  N_18
REMARK    2  A    between atoms: C_6  and  C_7
REMARK    3  A    between atoms: C_7  and  N_8
REMARK    4  A    between atoms: C_9  and  C_11
REMARK    5  A    between atoms: N_18  and  C_19
REMARK                            x       y       z     vdW  Elec       q    Type
REMARK                         _______ _______ _______ _____ _____    ______ ____
ROOT
ATOM      1  O   UNL     1      -4.151   2.696  25.743  0.00  0.00    -0.219 OA
ATOM      2  C   UNL     1      -3.558   2.554  25.187  0.00  0.00    +0.199 C 
ATOM      3  C   UNL     1      -2.900   3.031  25.047  0.00  0.00    +0.135 C 
ATOM      4  C   UNL     1      -2.455   2.681  24.446  0.00  0.00    +0.162 C 
ATOM      5  O   UNL     1      -2.838   1.988  24.215  0.00  0.00    -0.350 OA
ATOM      6  C   UNL     1      -3.520   1.909  24.673  0.00  0.00    +0.169 C 
ENDROOT
BRANCH   6   7
ATOM      7  C   UNL     1      -4.068   1.295  24.625  0.00  0.00    +0.148 C 
BRANCH   7   8
ATOM      8  N   UNL     1      -3.809   0.511  24.620  0.00  0.00    -0.199 NA
ATOM      9  C   UNL     1      -4.358  -0.105  24.605  0.00  0.00    +0.265 C 
ATOM     10  O   UNL     1      -5.166   0.062  24.596  0.00  0.00    -0.268 OA
BRANCH   9  11
ATOM     11  C   UNL     1      -4.099  -0.888  24.600  0.00  0.00    +0.055 A 
ATOM     12  C   UNL     1      -3.710  -1.198  25.258  0.00  0.00    +0.007 A 
ATOM     13  C   UNL     1      -3.451  -1.982  25.252  0.00  0.00    +0.030 A 
ATOM     14  C   UNL     1      -3.581  -2.454  24.590  0.00  0.00    +0.140 A 
ATOM     15  F   UNL     1      -3.323  -3.238  24.585  0.00  0.00    -0.204 F 
ATOM     16  C   UNL     1      -3.971  -2.145  23.932  0.00  0.00    +0.030 A 
ATOM     17  C   UNL     1      -4.230  -1.361  23.937  0.00  0.00    +0.007 A 
ENDBRANCH   9  11
ENDBRANCH   7   8
ENDBRANCH   6   7
BRANCH   3  18
ATOM     18  N   UNL     1      -2.718   3.734  25.438  0.00  0.00    -0.216 NA
BRANCH  18  19
ATOM     19  C   UNL     1      -2.002   4.115  25.291  0.00  0.00    +0.076 C 
ATOM     20  C   UNL     1      -1.290   3.738  25.466  0.00  0.00    +0.036 C 
ATOM     21  C   UNL     1      -0.573   4.119  25.318  0.00  0.00    +0.090 C 
ATOM     22  N   UNL     1      -0.569   4.878  24.995  0.00  0.00    -0.218 NA
ATOM     23  C   UNL     1      -1.282   5.256  24.820  0.00  0.00    +0.090 C 
ATOM     24  C   UNL     1      -1.998   4.874  24.967  0.00  0.00    +0.036 C 
ENDBRANCH  18  19
ENDBRANCH   3  18
TORSDOF 5
ENDMDL
MODEL 5
REMARK VINA RESULT:      -7.7     16.333     18.640
REMARK  Name = 
REMARK  5 active torsions:
REMARK  status: ('A' for Active; 'I' for Inactive)
REMARK    1  A    between atoms: C_3  and  N_18
REMARK    2  A    between atoms: C_6  and  C_7
REMARK    3  A    between atoms: C_7  and  N_8
REMARK    4  A    between atoms: C_9  and  C_11
REMARK    5  A    between atoms: N_18  and  C_19
REMARK                            x       y       z     vdW  Elec       q    Type
REMARK                         _______ _______ _______ _____ _____    ______ ____
ROOT
ATOM      1  O   UNL     1      14.137   8.411  18.756  0.00  0.00    -0.219 OA
ATOM      2  C   UNL     1      14.134   7.693  19.163  0.00  0.00    +0.199 C 
ATOM      3  C   UNL     1      14.784   7.200  19.282  0.00  0.00    +0.135 C 
ATOM      4  C   UNL     1      14.532   6.544  19.715  0.00  0.00    +0.162 C 
ATOM      5  O   UNL     1      13.725   6.632  19.864  0.00  0.00    -0.350 OA
ATOM      6  C   UNL     1      13.479   7.342  19.523  0.00  0.00    +0.169 C 
ENDROOT
BRANCH   6   7
ATOM      7  C   UNL     1      12.713   7.648  19.538  0.00  0.00    +0.148 C 
BRANCH   7   8
ATOM      8  N   UNL     1      12.347   7.806  20.260  0.00  0.00    -0.199 NA
ATOM      9  C   UNL     1      11.545   7.999  20.283  0.00  0.00    +0.265 C 
ATOM     10  O   UNL     1      11.109   8.035  19.583  0.00  0.00    -0.268 OA
BRANCH   9  11
ATOM     11  C   UNL     1      11.179   8.157  21.005  0.00  0.00    +0.055 A 
ATOM     12  C   UNL     1      11.018   8.936  21.225  0.00  0.00    +0.007 A 
ATOM     13  C   UNL     1      10.652   9.094  21.947  0.00  0.00    +0.030 A 
ATOM     14  C   UNL     1      10.446   8.473  22.449  0.00  0.00    +0.140 A 
ATOM     15  F   UNL     1      10.080   8.631  23.171  0.00  0.00    -0.204 F 
ATOM     16  C   UNL     1      10.607   7.694  22.230  0.00  0.00    +0.030 A 
ATOM     17  C   UNL     1      10.973   7.536  21.508  0.00  0.00    +0.007 A 
ENDBRANCH   9  11
ENDBRANCH   7   8
ENDBRANCH   6   7
BRANCH   3  18
ATOM     18  N   UNL     1      15.553   7.338  19.015  0.00  0.00    -0.216 NA
BRANCH  18  19
ATOM     19  C   UNL     1      16.170   6.852  19.266  0.00  0.00    +0.076 C 
ATOM     20  C   UNL     1      16.534   6.990  19.993  0.00  0.00    +0.036 C 
ATOM     21  C   UNL     1      17.152   6.504  20.245  0.00  0.00    +0.090 C 
ATOM     22  N   UNL     1      17.405   5.880  19.768  0.00  0.00    -0.218 NA
ATOM     23  C   UNL     1      17.041   5.742  19.040  0.00  0.00    +0.090 C 
ATOM     24  C   UNL     1      16.424   6.228  18.789  0.00  0.00    +0.036 C 
ENDBRANCH  18  19
ENDBRANCH   3  18
TORSDOF 5
ENDMDL
MODEL 6
REMARK VINA RESULT:      -7.5     17.397     19.042
REMARK  Name = 
REMARK  5 active torsions:
REMARK  status: ('A' for Active; 'I' for Inactive)
REMARK    1  A    between atoms: C_3  and  N_18
REMARK    2  A    between atoms: C_6  and  C_7
REMARK    3  A    between atoms: C_7  and  N_8
REMARK    4  A    between atoms: C_9  and  C_11
REMARK    5  A    between atoms: N_18  and  C_19
REMARK                            x       y       z     vdW  Elec       q    Type
REMARK                         _______ _______ _______ _____ _____    ______ ____
ROOT
ATOM      1  O   UNL     1      13.166   6.753  20.713  0.00  0.00    -0.219 OA
ATOM      2  C   UNL     1      13.641   6.991  20.081  0.00  0.00    +0.199 C 
ATOM      3  C   UNL     1      14.452   6.862  20.010  0.00  0.00    +0.135 C 
ATOM      4  C   UNL     1      14.700   7.191  19.294  0.00  0.00    +0.162 C 
ATOM      5  O   UNL     1      14.042   7.522  18.924  0.00  0.00    -0.350 OA
ATOM      6  C   UNL     1      13.387   7.398  19.410  0.00  0.00    +0.169 C 
ENDROOT
BRANCH   6   7
ATOM      7  C   UNL     1      12.614   7.640  19.253  0.00  0.00    +0.148 C 
BRANCH   7   8
ATOM      8  N   UNL     1      12.405   7.885  18.494  0.00  0.00    -0.199 NA
ATOM      9  C   UNL     1      11.628   8.112  18.332  0.00  0.00    +0.265 C 
ATOM     10  O   UNL     1      11.060   8.092  18.930  0.00  0.00    -0.268 OA
BRANCH   9  11
ATOM     11  C   UNL     1      11.419   8.357  17.573  0.00  0.00    +0.055 A 
ATOM     12  C   UNL     1      11.973   8.741  17.096  0.00  0.00    +0.007 A 
ATOM     13  C   UNL     1      11.764   8.986  16.337  0.00  0.00    +0.030 A 
ATOM     14  C   UNL     1      11.002   8.848  16.054  0.00  0.00    +0.140 A 
ATOM     15  F   UNL     1      10.793   9.094  15.295  0.00  0.00    -0.204 F 
ATOM     16  C   UNL     1      10.448   8.465  16.530  0.00  0.00    +0.030 A 
ATOM     17  C   UNL     1      10.656   8.219  17.290  0.00  0.00    +0.007 A 
ENDBRANCH   9  11
ENDBRANCH   7   8
ENDBRANCH   6   7
BRANCH   3  18
ATOM     18  N   UNL     1      14.932   6.474  20.558  0.00  0.00    -0.216 NA
BRANCH  18  19
ATOM     19  C   UNL     1      15.751   6.564  20.525  0.00  0.00    +0.076 C 
ATOM     20  C   UNL     1      16.197   6.095  20.013  0.00  0.00    +0.036 C 
ATOM     21  C   UNL     1      17.017   6.185  19.980  0.00  0.00    +0.090 C 
ATOM     22  N   UNL     1      17.390   6.743  20.460  0.00  0.00    -0.218 NA
ATOM     23  C   UNL     1      16.943   7.211  20.972  0.00  0.00    +0.090 C 
ATOM     24  C   UNL     1      16.124   7.122  21.005  0.00  0.00    +0.036 C 
ENDBRANCH  18  19
ENDBRANCH   3  18
TORSDOF 5
ENDMDL
