MODEL 1
REMARK VINA RESULT:     -12.1      0.000      0.000
REMARK  Name = 
REMARK  9 active torsions:
REMARK  status: ('A' for Active; 'I' for Inactive)
REMARK    1  A    between atoms: C_5  and  C_6
REMARK    2  A    between atoms: C_6  and  N_7
REMARK    3  A    between atoms: C_8  and  C_10
REMARK    4  A    between atoms: C_10  and  C_11
REMARK    5  A    between atoms: C_16  and  C_17
REMARK    6  A    between atoms: C_17  and  C_18
REMARK    7  A    between atoms: C_21  and  C_22
REMARK    8  A    between atoms: C_22  and  O_23
REMARK    9  A    between atoms: O_23  and  C_24
REMARK                            x       y       z     vdW  Elec       q    Type
REMARK                         _______ _______ _______ _____ _____    ______ ____
ROOT
ATOM     11  C   UNL     1      -1.074   2.761  25.231  0.00  0.00    +0.012 C 
ATOM     12  C   UNL     1      -0.858   3.167  25.916  0.00  0.00    +0.019 C 
ATOM     13  C   UNL     1      -0.144   2.997  26.290  0.00  0.00    +0.089 C 
ATOM     14  N   UNL     1       0.357   2.419  25.978  0.00  0.00    -0.218 NA
ATOM     15  C   UNL     1       0.142   2.012  25.294  0.00  0.00    +0.089 C 
ATOM     16  C   UNL     1      -0.573   2.182  24.920  0.00  0.00    +0.024 C 
ENDROOT
BRANCH  11  10
ATOM     10  C   UNL     1      -1.789   2.931  24.857  0.00  0.00    +0.087 C 
BRANCH  10   8
ATOM      7  N   UNL     1      -3.073   3.497  25.126  0.00  0.00    -0.201 NA
ATOM      8  C   UNL     1      -2.251   3.562  25.120  0.00  0.00    +0.242 C 
ATOM      9  O   UNL     1      -1.892   4.259  25.376  0.00  0.00    -0.273 OA
BRANCH   7   6
ATOM      6  C   UNL     1      -3.433   2.799  24.870  0.00  0.00    +0.141 C 
BRANCH   6   5
ATOM      1  F   UNL     1      -6.639   2.283  25.463  0.00  0.00    -0.204 F 
ATOM      2  C   UNL     1      -5.837   2.412  25.314  0.00  0.00    +0.140 A 
ATOM      3  C   UNL     1      -5.374   1.808  24.998  0.00  0.00    +0.029 A 
ATOM      4  C   UNL     1      -4.573   1.937  24.850  0.00  0.00    -0.000 A 
ATOM      5  C   UNL     1      -4.235   2.671  25.018  0.00  0.00    -0.000 A 
ATOM     31  C   UNL     1      -4.697   3.275  25.335  0.00  0.00    -0.000 A 
ATOM     32  C   UNL     1      -5.499   3.146  25.483  0.00  0.00    +0.029 A 
ENDBRANCH   6   5
ENDBRANCH   7   6
ENDBRANCH  10   8
ENDBRANCH  11  10
BRANCH  16  17
ATOM     17  C   UNL     1      -0.788   1.776  24.235  0.00  0.00    +0.051 C 
BRANCH  17  18
ATOM     18  C   UNL     1      -0.771   0.951  24.223  0.00  0.00    +0.100 A 
ATOM     19  N   UNL     1      -0.099   0.481  24.141  0.00  0.00    -0.082 NA
ATOM     20  O   UNL     1      -0.336  -0.308  24.158  0.00  0.00    -0.354 OA
ATOM     21  C   UNL     1      -1.156  -0.326  24.252  0.00  0.00    +0.198 A 
ATOM     30  C   UNL     1      -1.425   0.452  24.292  0.00  0.00    +0.057 A 
BRANCH  21  22
ATOM     22  C   UNL     1      -1.624  -1.005  24.297  0.00  0.00    +0.272 C 
BRANCH  22  23
ATOM     23  O   UNL     1      -2.374  -0.966  24.639  0.00  0.00    -0.467 OA
BRANCH  23  24
ATOM     24  C   UNL     1      -2.920  -1.570  24.504  0.00  0.00    +0.139 A 
ATOM     25  C   UNL     1      -3.610  -1.415  24.079  0.00  0.00    +0.037 A 
ATOM     26  C   UNL     1      -4.155  -2.019  23.945  0.00  0.00    +0.003 A 
ATOM     27  C   UNL     1      -4.011  -2.778  24.235  0.00  0.00    +0.000 A 
ATOM     28  C   UNL     1      -3.321  -2.932  24.660  0.00  0.00    +0.003 A 
ATOM     29  C   UNL     1      -2.776  -2.328  24.794  0.00  0.00    +0.037 A 
ENDBRANCH  23  24
ENDBRANCH  22  23
ENDBRANCH  21  22
ENDBRANCH  17  18
ENDBRANCH  16  17
TORSDOF 9
ENDMDL
MODEL 2
REMARK VINA RESULT:     -11.7      1.396      4.326
REMARK  Name = 
REMARK  9 active torsions:
REMARK  status: ('A' for Active; 'I' for Inactive)
REMARK    1  A    between atoms: C_5  and  C_6
REMARK    2  A    between atoms: C_6  and  N_7
REMARK    3  A    between atoms: C_8  and  C_10
REMARK    4  A    between atoms: C_10  and  C_11
REMARK    5  A    between atoms: C_16  and  C_17
REMARK    6  A    between atoms: C_17  and  C_18
REMARK    7  A    between atoms: C_21  and  C_22
REMARK    8  A    between atoms: C_22  and  O_23
REMARK    9  A    between atoms: O_23  and  C_24
REMARK                            x       y       z     vdW  Elec       q    Type
REMARK                         _______ _______ _______ _____ _____    ______ ____
ROOT
ATOM     11  C   UNL     1      -0.411   0.297  24.572  0.00  0.00    +0.012 C 
ATOM     12  C   UNL     1      -0.033  -0.002  23.902  0.00  0.00    +0.019 C 
ATOM     13  C   UNL     1       0.469   0.481  23.462  0.00  0.00    +0.089 C 
ATOM     14  N   UNL     1       0.595   1.265  23.692  0.00  0.00    -0.218 NA
ATOM     15  C   UNL     1       0.217   1.563  24.361  0.00  0.00    +0.089 C 
ATOM     16  C   UNL     1      -0.286   1.080  24.802  0.00  0.00    +0.024 C 
ENDROOT
BRANCH  11  10
ATOM     10  C   UNL     1      -0.913  -0.187  25.013  0.00  0.00    +0.087 C 
BRANCH  10   8
ATOM      7  N   UNL     1      -1.530  -1.470  24.890  0.00  0.00    -0.201 NA
ATOM      8  C   UNL     1      -0.851  -1.007  24.956  0.00  0.00    +0.242 C 
ATOM      9  O   UNL     1      -0.108  -1.366  24.965  0.00  0.00    -0.273 OA
BRANCH   7   6
ATOM      6  C   UNL     1      -2.274  -1.111  24.881  0.00  0.00    +0.141 C 
BRANCH   6   5
ATOM      1  F   UNL     1      -4.891  -2.767  23.742  0.00  0.00    -0.204 F 
ATOM      2  C   UNL     1      -4.236  -2.352  24.027  0.00  0.00    +0.140 A 
ATOM      3  C   UNL     1      -4.203  -1.533  23.951  0.00  0.00    +0.029 A 
ATOM      4  C   UNL     1      -3.549  -1.118  24.236  0.00  0.00    -0.000 A 
ATOM      5  C   UNL     1      -2.928  -1.525  24.596  0.00  0.00    -0.000 A 
ATOM     31  C   UNL     1      -2.961  -2.345  24.672  0.00  0.00    -0.000 A 
ATOM     32  C   UNL     1      -3.616  -2.760  24.387  0.00  0.00    +0.029 A 
ENDBRANCH   6   5
ENDBRANCH   7   6
ENDBRANCH  10   8
ENDBRANCH  11  10
BRANCH  16  17
ATOM     17  C   UNL     1      -0.663   1.379  25.471  0.00  0.00    +0.051 C 
BRANCH  17  18
ATOM     18  C   UNL     1      -1.110   2.070  25.419  0.00  0.00    +0.100 A 
ATOM     19  N   UNL     1      -0.813   2.834  25.326  0.00  0.00    -0.082 NA
ATOM     20  O   UNL     1      -1.452   3.354  25.299  0.00  0.00    -0.354 OA
ATOM     21  C   UNL     1      -2.144   2.913  25.376  0.00  0.00    +0.198 A 
ATOM     30  C   UNL     1      -1.934   2.119  25.450  0.00  0.00    +0.057 A 
BRANCH  21  22
ATOM     22  C   UNL     1      -2.913   3.213  25.378  0.00  0.00    +0.272 C 
BRANCH  22  23
ATOM     23  O   UNL     1      -3.467   2.935  24.833  0.00  0.00    -0.467 OA
BRANCH  23  24
ATOM     24  C   UNL     1      -4.268   2.926  25.027  0.00  0.00    +0.139 A 
ATOM     25  C   UNL     1      -4.728   2.264  24.851  0.00  0.00    +0.037 A 
ATOM     26  C   UNL     1      -5.530   2.255  25.045  0.00  0.00    +0.003 A 
ATOM     27  C   UNL     1      -5.872   2.909  25.416  0.00  0.00    +0.000 A 
ATOM     28  C   UNL     1      -5.411   3.571  25.592  0.00  0.00    +0.003 A 
ATOM     29  C   UNL     1      -4.610   3.579  25.397  0.00  0.00    +0.037 A 
ENDBRANCH  23  24
ENDBRANCH  22  23
ENDBRANCH  21  22
ENDBRANCH  17  18
ENDBRANCH  16  17
TORSDOF 9
ENDMDL
MODEL 3
REMARK VINA RESULT:     -11.6      1.872      4.101
REMARK  Name = 
REMARK  9 active torsions:
REMARK  status: ('A' for Active; 'I' for Inactive)
REMARK    1  A    between atoms: C_5  and  C_6
REMARK    2  A    between atoms: C_6  and  N_7
REMARK    3  A    between atoms: C_8  and  C_10
REMARK    4  A    between atoms: C_10  and  C_11
REMARK    5  A    between atoms: C_16  and  C_17
REMARK    6  A    between atoms: C_17  and  C_18
REMARK    7  A    between atoms: C_21  and  C_22
REMARK    8  A    between atoms: C_22  and  O_23
REMARK    9  A    between atoms: O_23  and  C_24
REMARK                            x       y       z     vdW  Elec       q    Type
REMARK                         _______ _______ _______ _____ _____    ______ ____
ROOT
ATOM     11  C   UNL     1      -4.644   2.446  24.915  0.00  0.00    +0.012 C 
ATOM     12  C   UNL     1      -5.125   2.608  25.565  0.00  0.00    +0.019 C 
ATOM     13  C   UNL     1      -5.108   3.354  25.916  0.00  0.00    +0.089 C 
ATOM     14  N   UNL     1      -4.609   3.940  25.615  0.00  0.00    -0.218 NA
ATOM     15  C   UNL     1      -4.128   3.778  24.965  0.00  0.00    +0.089 C 
ATOM     16  C   UNL     1      -4.145   3.032  24.614  0.00  0.00    +0.024 C 
ENDROOT
BRANCH  11  10
ATOM     10  C   UNL     1      -4.661   1.700  24.564  0.00  0.00    +0.087 C 
BRANCH  10   8
ATOM      7  N   UNL     1      -5.023   0.346  24.846  0.00  0.00    -0.201 NA
ATOM      8  C   UNL     1      -5.223   1.145  24.802  0.00  0.00    +0.242 C 
ATOM      9  O   UNL     1      -5.987   1.389  24.995  0.00  0.00    -0.273 OA
BRANCH   7   6
ATOM      6  C   UNL     1      -4.258   0.102  24.653  0.00  0.00    +0.141 C 
BRANCH   6   5
ATOM      1  F   UNL     1      -3.467  -3.099  24.793  0.00  0.00    -0.204 F 
ATOM      2  C   UNL     1      -3.665  -2.298  24.758  0.00  0.00    +0.140 A 
ATOM      3  C   UNL     1      -3.548  -1.815  25.416  0.00  0.00    +0.029 A 
ATOM      4  C   UNL     1      -3.746  -1.015  25.381  0.00  0.00    -0.000 A 
ATOM      5  C   UNL     1      -4.061  -0.698  24.687  0.00  0.00    -0.000 A 
ATOM     31  C   UNL     1      -4.177  -1.180  24.029  0.00  0.00    -0.000 A 
ATOM     32  C   UNL     1      -3.979  -1.981  24.064  0.00  0.00    +0.029 A 
ENDBRANCH   6   5
ENDBRANCH   7   6
ENDBRANCH  10   8
ENDBRANCH  11  10
BRANCH  16  17
ATOM     17  C   UNL     1      -3.664   2.870  23.964  0.00  0.00    +0.051 C 
BRANCH  17  18
ATOM     18  C   UNL     1      -2.844   2.857  24.051  0.00  0.00    +0.100 A 
ATOM     19  N   UNL     1      -2.383   3.450  24.391  0.00  0.00    -0.082 NA
ATOM     20  O   UNL     1      -1.595   3.207  24.363  0.00  0.00    -0.354 OA
ATOM     21  C   UNL     1      -1.569   2.464  24.006  0.00  0.00    +0.198 A 
ATOM     30  C   UNL     1      -2.341   2.247  23.812  0.00  0.00    +0.057 A 
BRANCH  21  22
ATOM     22  C   UNL     1      -0.890   2.017  23.866  0.00  0.00    +0.272 C 
BRANCH  22  23
ATOM     23  O   UNL     1      -0.652   1.446  24.412  0.00  0.00    -0.467 OA
BRANCH  23  24
ATOM     24  C   UNL     1      -0.290   0.752  24.152  0.00  0.00    +0.139 A 
ATOM     25  C   UNL     1      -0.506   0.026  24.480  0.00  0.00    +0.037 A 
ATOM     26  C   UNL     1      -0.143  -0.667  24.219  0.00  0.00    +0.003 A 
ATOM     27  C   UNL     1       0.436  -0.636  23.632  0.00  0.00    +0.000 A 
ATOM     28  C   UNL     1       0.651   0.091  23.305  0.00  0.00    +0.003 A 
ATOM     29  C   UNL     1       0.289   0.784  23.565  0.00  0.00    +0.037 A 
ENDBRANCH  23  24
ENDBRANCH  22  23
ENDBRANCH  21  22
ENDBRANCH  17  18
ENDBRANCH  16  17
TORSDOF 9
ENDMDL
MODEL 4
REMARK VINA RESULT:     -11.5      1.446      4.297
REMARK  Name = 
REMARK  9 active torsions:
REMARK  status: ('A' for Active; 'I' for Inactive)
REMARK    1  A    between atoms: C_5  and  C_6
REMARK    2  A    between atoms: C_6  and  N_7
REMARK    3  A    between atoms: C_8  and  C_10
REMARK    4  A    between atoms: C_10  and  C_11
REMARK    5  A    between atoms: C_16  and  C_17
REMARK    6  A    between atoms: C_17  and  C_18
REMARK    7  A    between atoms: C_21  and  C_22
REMARK    8  A    between atoms: C_22  and  O_23
REMARK    9  A    between atoms: O_23  and  C_24
REMARK                            x       y       z     vdW  Elec       q    Type
REMARK                         _______ _______ _______ _____ _____    ______ ____
ROOT
ATOM     11  C   UNL     1      -2.292  -1.199  25.109  0.00  0.00    +0.012 C 
ATOM     12  C   UNL     1      -2.505  -1.846  24.643  0.00  0.00    +0.019 C 
ATOM     13  C   UNL     1      -1.923  -2.330  24.317  0.00  0.00    +0.089 C 
ATOM     14  N   UNL     1      -1.125  -2.168  24.458  0.00  0.00    -0.218 NA
ATOM     15  C   UNL     1      -0.912  -1.522  24.924  0.00  0.00    +0.089 C 
ATOM     16  C   UNL     1      -1.495  -1.037  25.249  0.00  0.00    +0.024 C 
ENDROOT
BRANCH  11  10
ATOM     10  C   UNL     1      -2.875  -0.715  25.434  0.00  0.00    +0.087 C 
BRANCH  10   8
ATOM      7  N   UNL     1      -4.249  -0.381  25.228  0.00  0.00    -0.201 NA
ATOM      8  C   UNL     1      -3.667  -0.941  25.397  0.00  0.00    +0.242 C 
ATOM      9  O   UNL     1      -3.879  -1.727  25.529  0.00  0.00    -0.273 OA
BRANCH   7   6
ATOM      6  C   UNL     1      -4.038   0.406  25.096  0.00  0.00    +0.141 C 
BRANCH   6   5
ATOM      1  F   UNL     1      -6.365   2.744  24.997  0.00  0.00    -0.204 F 
ATOM      2  C   UNL     1      -5.783   2.159  25.022  0.00  0.00    +0.140 A 
ATOM      3  C   UNL     1      -5.098   2.240  24.571  0.00  0.00    +0.029 A 
ATOM      4  C   UNL     1      -4.516   1.656  24.595  0.00  0.00    -0.000 A 
ATOM      5  C   UNL     1      -4.620   0.990  25.072  0.00  0.00    -0.000 A 
ATOM     31  C   UNL     1      -5.305   0.909  25.523  0.00  0.00    -0.000 A 
ATOM     32  C   UNL     1      -5.887   1.494  25.498  0.00  0.00    +0.029 A 
ENDBRANCH   6   5
ENDBRANCH   7   6
ENDBRANCH  10   8
ENDBRANCH  11  10
BRANCH  16  17
ATOM     17  C   UNL     1      -1.282  -0.391  25.715  0.00  0.00    +0.051 C 
BRANCH  17  18
ATOM     18  C   UNL     1      -0.887   0.250  25.376  0.00  0.00    +0.100 A 
ATOM     19  N   UNL     1      -0.258   0.206  24.845  0.00  0.00    -0.082 NA
ATOM     20  O   UNL     1      -0.035   0.975  24.649  0.00  0.00    -0.354 OA
ATOM     21  C   UNL     1      -0.528   1.495  25.059  0.00  0.00    +0.198 A 
ATOM     30  C   UNL     1      -1.054   1.047  25.508  0.00  0.00    +0.057 A 
BRANCH  21  22
ATOM     22  C   UNL     1      -0.498   2.319  25.025  0.00  0.00    +0.272 C 
BRANCH  22  23
ATOM     23  O   UNL     1      -1.146   2.745  24.741  0.00  0.00    -0.467 OA
BRANCH  23  24
ATOM     24  C   UNL     1      -1.192   3.558  24.867  0.00  0.00    +0.139 A 
ATOM     25  C   UNL     1      -1.836   3.876  25.273  0.00  0.00    +0.037 A 
ATOM     26  C   UNL     1      -1.883   4.690  25.399  0.00  0.00    +0.003 A 
ATOM     27  C   UNL     1      -1.285   5.186  25.120  0.00  0.00    +0.000 A 
ATOM     28  C   UNL     1      -0.642   4.867  24.714  0.00  0.00    +0.003 A 
ATOM     29  C   UNL     1      -0.595   4.054  24.588  0.00  0.00    +0.037 A 
ENDBRANCH  23  24
ENDBRANCH  22  23
ENDBRANCH  21  22
ENDBRANCH  17  18
ENDBRANCH  16  17
TORSDOF 9
ENDMDL
MODEL 5
REMARK VINA RESULT:     -11.5      2.027      3.856
REMARK  Name = 
REMARK  9 active torsions:
REMARK  status: ('A' for Active; 'I' for Inactive)
REMARK    1  A    between atoms: C_5  and  C_6
REMARK    2  A    between atoms: C_6  and  N_7
REMARK    3  A    between atoms: C_8  and  C_10
REMARK    4  A    between atoms: C_10  and  C_11
REMARK    5  A    between atoms: C_16  and  C_17
REMARK    6  A    between atoms: C_17  and  C_18
REMARK    7  A    between atoms: C_21  and  C_22
REMARK    8  A    between atoms: C_22  and  O_23
REMARK    9  A    between atoms: O_23  and  C_24
REMARK                            x       y       z     vdW  Elec       q    Type
REMARK                         _______ _______ _______ _____ _____    ______ ____
ROOT
ATOM     11  C   UNL     1      -2.575   3.375  25.155  0.00  0.00    +0.012 C 
ATOM     12  C   UNL     1      -2.282   3.825  25.782  0.00  0.00    +0.019 C 
ATOM     13  C   UNL     1      -2.802   4.164  26.325  0.00  0.00    +0.089 C 
ATOM     14  N   UNL     1      -3.616   4.054  26.242  0.00  0.00    -0.218 NA
ATOM     15  C   UNL     1      -3.909   3.604  25.616  0.00  0.00    +0.089 C 
ATOM     16  C   UNL     1      -3.390   3.265  25.072  0.00  0.00    +0.024 C 
ENDROOT
BRANCH  11  10
ATOM     10  C   UNL     1      -2.056   3.036  24.612  0.00  0.00    +0.087 C 
BRANCH  10   8
ATOM      7  N   UNL     1      -0.671   2.726  24.446  0.00  0.00    -0.201 NA
ATOM      8  C   UNL     1      -1.268   3.277  24.590  0.00  0.00    +0.242 C 
ATOM      9  O   UNL     1      -1.075   4.070  24.711  0.00  0.00    -0.273 OA
BRANCH   7   6
ATOM      6  C   UNL     1      -0.864   1.932  24.325  0.00  0.00    +0.141 C 
BRANCH   6   5
ATOM      1  F   UNL     1       1.413  -0.161  23.175  0.00  0.00    -0.204 F 
ATOM      2  C   UNL     1       0.844   0.362  23.462  0.00  0.00    +0.140 A 
ATOM      3  C   UNL     1       0.056   0.126  23.515  0.00  0.00    +0.029 A 
ATOM      4  C   UNL     1      -0.514   0.649  23.803  0.00  0.00    -0.000 A 
ATOM      5  C   UNL     1      -0.294   1.409  24.038  0.00  0.00    -0.000 A 
ATOM     31  C   UNL     1       0.494   1.646  23.985  0.00  0.00    -0.000 A 
ATOM     32  C   UNL     1       1.063   1.122  23.697  0.00  0.00    +0.029 A 
ENDBRANCH   6   5
ENDBRANCH   7   6
ENDBRANCH  10   8
ENDBRANCH  11  10
BRANCH  16  17
ATOM     17  C   UNL     1      -3.683   2.815  24.447  0.00  0.00    +0.051 C 
BRANCH  17  18
ATOM     18  C   UNL     1      -4.135   2.142  24.598  0.00  0.00    +0.100 A 
ATOM     19  N   UNL     1      -4.913   2.133  24.872  0.00  0.00    -0.082 NA
ATOM     20  O   UNL     1      -5.148   1.346  24.946  0.00  0.00    -0.354 OA
ATOM     21  C   UNL     1      -4.514   0.868  24.718  0.00  0.00    +0.198 A 
ATOM     30  C   UNL     1      -3.888   1.360  24.504  0.00  0.00    +0.057 A 
BRANCH  21  22
ATOM     22  C   UNL     1      -4.508   0.043  24.708  0.00  0.00    +0.272 C 
BRANCH  22  23
ATOM     23  O   UNL     1      -3.889  -0.361  24.340  0.00  0.00    -0.467 OA
BRANCH  23  24
ATOM     24  C   UNL     1      -3.839  -1.181  24.401  0.00  0.00    +0.139 A 
ATOM     25  C   UNL     1      -3.407  -1.523  25.017  0.00  0.00    +0.037 A 
ATOM     26  C   UNL     1      -3.356  -2.344  25.078  0.00  0.00    +0.003 A 
ATOM     27  C   UNL     1      -3.737  -2.824  24.525  0.00  0.00    +0.000 A 
ATOM     28  C   UNL     1      -4.168  -2.482  23.910  0.00  0.00    +0.003 A 
ATOM     29  C   UNL     1      -4.219  -1.661  23.849  0.00  0.00    +0.037 A 
ENDBRANCH  23  24
ENDBRANCH  22  23
ENDBRANCH  21  22
ENDBRANCH  17  18
ENDBRANCH  16  17
TORSDOF 9
ENDMDL
MODEL 6
REMARK VINA RESULT:     -11.4      2.207      3.910
REMARK  Name = 
REMARK  9 active torsions:
REMARK  status: ('A' for Active; 'I' for Inactive)
REMARK    1  A    between atoms: C_5  and  C_6
REMARK    2  A    between atoms: C_6  and  N_7
REMARK    3  A    between atoms: C_8  and  C_10
REMARK    4  A    between atoms: C_10  and  C_11
REMARK    5  A    between atoms: C_16  and  C_17
REMARK    6  A    between atoms: C_17  and  C_18
REMARK    7  A    between atoms: C_21  and  C_22
REMARK    8  A    between atoms: C_22  and  O_23
REMARK    9  A    between atoms: O_23  and  C_24
REMARK                            x       y       z     vdW  Elec       q    Type
REMARK                         _______ _______ _______ _____ _____    ______ ____
ROOT
ATOM     11  C   UNL     1      -5.061   2.484  25.395  0.00  0.00    +0.012 C 
ATOM     12  C   UNL     1      -5.555   2.780  25.985  0.00  0.00    +0.019 C 
ATOM     13  C   UNL     1      -6.174   2.319  26.276  0.00  0.00    +0.089 C 
ATOM     14  N   UNL     1      -6.299   1.559  25.976  0.00  0.00    -0.218 NA
ATOM     15  C   UNL     1      -5.805   1.263  25.386  0.00  0.00    +0.089 C 
ATOM     16  C   UNL     1      -5.186   1.724  25.095  0.00  0.00    +0.024 C 
ENDROOT
BRANCH  11  10
ATOM     10  C   UNL     1      -4.443   2.945  25.104  0.00  0.00    +0.087 C 
BRANCH  10   8
ATOM      7  N   UNL     1      -3.663   4.119  25.344  0.00  0.00    -0.201 NA
ATOM      8  C   UNL     1      -4.397   3.745  25.300  0.00  0.00    +0.242 C 
ATOM      9  O   UNL     1      -5.086   4.172  25.453  0.00  0.00    -0.273 OA
BRANCH   7   6
ATOM      6  C   UNL     1      -2.974   3.691  25.190  0.00  0.00    +0.141 C 
BRANCH   6   5
ATOM      1  F   UNL     1      -0.082   5.262  24.941  0.00  0.00    -0.204 F 
ATOM      2  C   UNL     1      -0.805   4.869  25.003  0.00  0.00    +0.140 A 
ATOM      3  C   UNL     1      -0.831   4.045  24.978  0.00  0.00    +0.029 A 
ATOM      4  C   UNL     1      -1.553   3.652  25.040  0.00  0.00    -0.000 A 
ATOM      5  C   UNL     1      -2.251   4.084  25.128  0.00  0.00    -0.000 A 
ATOM     31  C   UNL     1      -2.226   4.908  25.153  0.00  0.00    -0.000 A 
ATOM     32  C   UNL     1      -1.502   5.301  25.091  0.00  0.00    +0.029 A 
ENDBRANCH   6   5
ENDBRANCH   7   6
ENDBRANCH  10   8
ENDBRANCH  11  10
BRANCH  16  17
ATOM     17  C   UNL     1      -4.692   1.428  24.505  0.00  0.00    +0.051 C 
BRANCH  17  18
ATOM     18  C   UNL     1      -4.455   0.638  24.525  0.00  0.00    +0.100 A 
ATOM     19  N   UNL     1      -4.909  -0.011  24.294  0.00  0.00    -0.082 NA
ATOM     20  O   UNL     1      -4.456  -0.691  24.405  0.00  0.00    -0.354 OA
ATOM     21  C   UNL     1      -3.722  -0.463  24.704  0.00  0.00    +0.198 A 
ATOM     30  C   UNL     1      -3.721   0.358  24.778  0.00  0.00    +0.057 A 
BRANCH  21  22
ATOM     22  C   UNL     1      -3.099  -0.969  24.896  0.00  0.00    +0.272 C 
BRANCH  22  23
ATOM     23  O   UNL     1      -2.411  -0.968  24.439  0.00  0.00    -0.467 OA
BRANCH  23  24
ATOM     24  C   UNL     1      -1.750  -1.392  24.689  0.00  0.00    +0.139 A 
ATOM     25  C   UNL     1      -1.718  -2.210  24.581  0.00  0.00    +0.037 A 
ATOM     26  C   UNL     1      -1.056  -2.633  24.832  0.00  0.00    +0.003 A 
ATOM     27  C   UNL     1      -0.426  -2.240  25.191  0.00  0.00    +0.000 A 
ATOM     28  C   UNL     1      -0.458  -1.422  25.298  0.00  0.00    +0.003 A 
ATOM     29  C   UNL     1      -1.120  -0.999  25.048  0.00  0.00    +0.037 A 
ENDBRANCH  23  24
ENDBRANCH  22  23
ENDBRANCH  21  22
ENDBRANCH  17  18
ENDBRANCH  16  17
TORSDOF 9
ENDMDL
MODEL 7
REMARK VINA RESULT:     -11.3      1.937      3.694
REMARK  Name = 
REMARK  9 active torsions:
REMARK  status: ('A' for Active; 'I' for Inactive)
REMARK    1  A    between atoms: C_5  and  C_6
REMARK    2  A    between atoms: C_6  and  N_7
REMARK    3  A    between atoms: C_8  and  C_10
REMARK    4  A    between atoms: C_10  and  C_11
REMARK    5  A    between atoms: C_16  and  C_17
REMARK    6  A    between atoms: C_17  and  C_18
REMARK    7  A    between atoms: C_21  and  C_22
REMARK    8  A    between atoms: C_22  and  O_23
REMARK    9  A    between atoms: O_23  and  C_24
REMARK                            x       y       z     vdW  Elec       q    Type
REMARK                         _______ _______ _______ _____ _____    ______ ____
ROOT
ATOM     11  C   UNL     1      -0.237   0.554  24.457  0.00  0.00    +0.012 C 
ATOM     12  C   UNL     1       0.242   0.525  23.785  0.00  0.00    +0.019 C 
ATOM     13  C   UNL     1       0.332  -0.183  23.372  0.00  0.00    +0.089 C 
ATOM     14  N   UNL     1      -0.057  -0.864  23.631  0.00  0.00    -0.218 NA
ATOM     15  C   UNL     1      -0.535  -0.836  24.302  0.00  0.00    +0.089 C 
ATOM     16  C   UNL     1      -0.626  -0.127  24.716  0.00  0.00    +0.024 C 
ENDROOT
BRANCH  11  10
ATOM     10  C   UNL     1      -0.327   1.262  24.869  0.00  0.00    +0.087 C 
BRANCH  10   8
ATOM      7  N   UNL     1      -0.023   2.658  24.850  0.00  0.00    -0.201 NA
ATOM      8  C   UNL     1       0.216   1.874  24.762  0.00  0.00    +0.242 C 
ATOM      9  O   UNL     1       0.999   1.701  24.567  0.00  0.00    -0.273 OA
BRANCH   7   6
ATOM      6  C   UNL     1      -0.806   2.831  25.046  0.00  0.00    +0.141 C 
BRANCH   6   5
ATOM      1  F   UNL     1      -1.796   5.971  25.268  0.00  0.00    -0.204 F 
ATOM      2  C   UNL     1      -1.548   5.186  25.213  0.00  0.00    +0.140 A 
ATOM      3  C   UNL     1      -2.013   4.584  25.531  0.00  0.00    +0.029 A 
ATOM      4  C   UNL     1      -1.766   3.799  25.476  0.00  0.00    -0.000 A 
ATOM      5  C   UNL     1      -1.053   3.616  25.101  0.00  0.00    -0.000 A 
ATOM     31  C   UNL     1      -0.589   4.218  24.783  0.00  0.00    -0.000 A 
ATOM     32  C   UNL     1      -0.836   5.004  24.838  0.00  0.00    +0.029 A 
ENDBRANCH   6   5
ENDBRANCH   7   6
ENDBRANCH  10   8
ENDBRANCH  11  10
BRANCH  16  17
ATOM     17  C   UNL     1      -1.104  -0.099  25.387  0.00  0.00    +0.051 C 
BRANCH  17  18
ATOM     18  C   UNL     1      -1.900  -0.310  25.335  0.00  0.00    +0.100 A 
ATOM     19  N   UNL     1      -2.194  -1.078  25.271  0.00  0.00    -0.082 NA
ATOM     20  O   UNL     1      -3.016  -1.033  25.235  0.00  0.00    -0.354 OA
ATOM     21  C   UNL     1      -3.231  -0.238  25.277  0.00  0.00    +0.198 A 
ATOM     30  C   UNL     1      -2.541   0.209  25.339  0.00  0.00    +0.057 A 
BRANCH  21  22
ATOM     22  C   UNL     1      -4.001   0.058  25.260  0.00  0.00    +0.272 C 
BRANCH  22  23
ATOM     23  O   UNL     1      -4.225   0.592  24.671  0.00  0.00    -0.467 OA
BRANCH  23  24
ATOM     24  C   UNL     1      -4.757   1.198  24.846  0.00  0.00    +0.139 A 
ATOM     25  C   UNL     1      -4.636   1.954  24.539  0.00  0.00    +0.037 A 
ATOM     26  C   UNL     1      -5.168   2.560  24.713  0.00  0.00    +0.003 A 
ATOM     27  C   UNL     1      -5.822   2.410  25.194  0.00  0.00    +0.000 A 
ATOM     28  C   UNL     1      -5.942   1.653  25.500  0.00  0.00    +0.003 A 
ATOM     29  C   UNL     1      -5.410   1.048  25.326  0.00  0.00    +0.037 A 
ENDBRANCH  23  24
ENDBRANCH  22  23
ENDBRANCH  21  22
ENDBRANCH  17  18
ENDBRANCH  16  17
TORSDOF 9
ENDMDL
MODEL 8
REMARK VINA RESULT:      -8.4     15.974     18.207
REMARK  Name = 
REMARK  9 active torsions:
REMARK  status: ('A' for Active; 'I' for Inactive)
REMARK    1  A    between atoms: C_5  and  C_6
REMARK    2  A    between atoms: C_6  and  N_7
REMARK    3  A    between atoms: C_8  and  C_10
REMARK    4  A    between atoms: C_10  and  C_11
REMARK    5  A    between atoms: C_16  and  C_17
REMARK    6  A    between atoms: C_17  and  C_18
REMARK    7  A    between atoms: C_21  and  C_22
REMARK    8  A    between atoms: C_22  and  O_23
REMARK    9  A    between atoms: O_23  and  C_24
REMARK                            x       y       z     vdW  Elec       q    Type
REMARK                         _______ _______ _______ _____ _____    ______ ____
ROOT
ATOM     11  C   UNL     1      15.108   7.263  20.542  0.00  0.00    +0.012 C 
ATOM     12  C   UNL     1      15.445   6.624  20.940  0.00  0.00    +0.019 C 
ATOM     13  C   UNL     1      16.053   6.192  20.589  0.00  0.00    +0.089 C 
ATOM     14  N   UNL     1      16.325   6.399  19.837  0.00  0.00    -0.218 NA
ATOM     15  C   UNL     1      15.989   7.038  19.439  0.00  0.00    +0.089 C 
ATOM     16  C   UNL     1      15.380   7.470  19.790  0.00  0.00    +0.024 C 
ENDROOT
BRANCH  11  10
ATOM     10  C   UNL     1      14.500   7.695  20.893  0.00  0.00    +0.087 C 
BRANCH  10   8
ATOM      7  N   UNL     1      13.549   7.586  21.955  0.00  0.00    -0.201 NA
ATOM      8  C   UNL     1      14.332   7.593  21.694  0.00  0.00    +0.242 C 
ATOM      9  O   UNL     1      14.946   7.498  22.236  0.00  0.00    -0.273 OA
BRANCH   7   6
ATOM      6  C   UNL     1      12.934   7.681  21.412  0.00  0.00    +0.141 C 
BRANCH   6   5
ATOM      1  F   UNL     1       9.800   7.503  22.430  0.00  0.00    -0.204 F 
ATOM      2  C   UNL     1      10.584   7.548  22.176  0.00  0.00    +0.140 A 
ATOM      3  C   UNL     1      11.022   8.233  22.309  0.00  0.00    +0.029 A 
ATOM      4  C   UNL     1      11.805   8.278  22.055  0.00  0.00    -0.000 A 
ATOM      5  C   UNL     1      12.150   7.636  21.666  0.00  0.00    -0.000 A 
ATOM     31  C   UNL     1      11.712   6.951  21.533  0.00  0.00    -0.000 A 
ATOM     32  C   UNL     1      10.928   6.907  21.788  0.00  0.00    +0.029 A 
ENDBRANCH   6   5
ENDBRANCH   7   6
ENDBRANCH  10   8
ENDBRANCH  11  10
BRANCH  16  17
ATOM     17  C   UNL     1      15.044   8.108  19.391  0.00  0.00    +0.051 C 
BRANCH  17  18
ATOM     18  C   UNL     1      14.727   8.003  18.637  0.00  0.00    +0.100 A 
ATOM     19  N   UNL     1      15.045   7.532  18.039  0.00  0.00    -0.082 NA
ATOM     20  O   UNL     1      14.551   7.588  17.381  0.00  0.00    -0.354 OA
ATOM     21  C   UNL     1      13.927   8.093  17.573  0.00  0.00    +0.198 A 
ATOM     30  C   UNL     1      14.036   8.350  18.349  0.00  0.00    +0.057 A 
BRANCH  21  22
ATOM     22  C   UNL     1      13.304   8.305  17.074  0.00  0.00    +0.272 C 
BRANCH  22  23
ATOM     23  O   UNL     1      12.573   8.514  17.394  0.00  0.00    -0.467 OA
BRANCH  23  24
ATOM     24  C   UNL     1      11.931   8.658  16.896  0.00  0.00    +0.139 A 
ATOM     25  C   UNL     1      11.163   8.516  17.162  0.00  0.00    +0.037 A 
ATOM     26  C   UNL     1      10.521   8.660  16.664  0.00  0.00    +0.003 A 
ATOM     27  C   UNL     1      10.648   8.947  15.900  0.00  0.00    +0.000 A 
ATOM     28  C   UNL     1      11.416   9.089  15.635  0.00  0.00    +0.003 A 
ATOM     29  C   UNL     1      12.057   8.945  16.133  0.00  0.00    +0.037 A 
ENDBRANCH  23  24
ENDBRANCH  22  23
ENDBRANCH  21  22
ENDBRANCH  17  18
ENDBRANCH  16  17
TORSDOF 9
ENDMDL
