MODEL 1
REMARK VINA RESULT:     -11.1      0.000      0.000
REMARK  Name = 
REMARK  4 active torsions:
REMARK  status: ('A' for Active; 'I' for Inactive)
REMARK    1  A    between atoms: O_2  and  C_3
REMARK    2  A    between atoms: C_6  and  C_7
REMARK    3  A    between atoms: C_7  and  N_8
REMARK    4  A    between atoms: N_20  and  C_21
REMARK                            x       y       z     vdW  Elec       q    Type
REMARK                         _______ _______ _______ _____ _____    ______ ____
ROOT
ATOM      8  N   UNL     1      -4.433   1.002  24.819  0.00  0.00    -0.258 N 
ATOM      9  C   UNL     1      -3.642   1.219  24.729  0.00  0.00    +0.117 C 
ATOM     10  C   UNL     1      -3.565   2.006  24.964  0.00  0.00    +0.117 C 
ATOM     11  C   UNL     1      -2.915   2.513  24.995  0.00  0.00    +0.117 C 
ATOM     12  N   UNL     1      -3.007   3.287  25.260  0.00  0.00    -0.259 N 
ATOM     13  C   UNL     1      -3.750   3.557  25.496  0.00  0.00    +0.117 C 
ATOM     14  C   UNL     1      -4.401   3.051  25.466  0.00  0.00    +0.117 C 
ATOM     15  N   UNL     1      -4.308   2.275  25.200  0.00  0.00    -0.261 N 
ATOM     16  C   UNL     1      -4.845   1.655  25.111  0.00  0.00    +0.308 C 
ATOM     17  O   UNL     1      -5.651   1.683  25.282  0.00  0.00    -0.252 OA
ATOM     18  C   UNL     1      -2.356   3.794  25.291  0.00  0.00    +0.323 C 
ATOM     19  O   UNL     1      -2.448   4.569  25.556  0.00  0.00    -0.251 OA
ATOM     20  N   UNL     1      -1.613   3.525  25.055  0.00  0.00    -0.190 NA
ENDROOT
BRANCH  20  21
ATOM     21  C   UNL     1      -0.962   4.030  25.085  0.00  0.00    +0.097 C 
ATOM     22  C   UNL     1      -0.996   4.770  24.721  0.00  0.00    +0.023 C 
ATOM     23  C   UNL     1      -0.276   3.796  25.479  0.00  0.00    +0.023 C 
ENDBRANCH  20  21
BRANCH   8   7
ATOM      7  C   UNL     1      -4.755   0.262  24.649  0.00  0.00    +0.122 C 
BRANCH   7   6
ATOM      3  C   UNL     1      -3.323  -1.755  24.697  0.00  0.00    +0.139 A 
ATOM      4  C   UNL     1      -3.530  -1.380  25.401  0.00  0.00    +0.037 A 
ATOM      5  C   UNL     1      -4.007  -0.707  25.386  0.00  0.00    +0.001 A 
ATOM      6  C   UNL     1      -4.278  -0.410  24.665  0.00  0.00    -0.002 A 
ATOM     24  C   UNL     1      -4.071  -0.786  23.960  0.00  0.00    +0.001 A 
ATOM     25  C   UNL     1      -3.593  -1.458  23.976  0.00  0.00    +0.037 A 
BRANCH   3   2
ATOM      1  C   UNL     1      -2.034  -2.362  24.576  0.00  0.00    +0.252 C 
ATOM      2  O   UNL     1      -2.845  -2.428  24.712  0.00  0.00    -0.471 OA
ENDBRANCH   3   2
ENDBRANCH   7   6
ENDBRANCH   8   7
TORSDOF 4
ENDMDL
MODEL 2
REMARK VINA RESULT:     -10.4      1.848      5.148
REMARK  Name = 
REMARK  4 active torsions:
REMARK  status: ('A' for Active; 'I' for Inactive)
REMARK    1  A    between atoms: O_2  and  C_3
REMARK    2  A    between atoms: C_6  and  C_7
REMARK    3  A    between atoms: C_7  and  N_8
REMARK    4  A    between atoms: N_20  and  C_21
REMARK                            x       y       z     vdW  Elec       q    Type
REMARK                         _______ _______ _______ _____ _____    ______ ____
ROOT
ATOM      8  N   UNL     1      -1.832   1.946  24.450  0.00  0.00    -0.258 N 
ATOM      9  C   UNL     1      -2.425   1.375  24.506  0.00  0.00    +0.117 C 
ATOM     10  C   UNL     1      -2.063   0.635  24.531  0.00  0.00    +0.117 C 
ATOM     11  C   UNL     1      -2.370  -0.129  24.586  0.00  0.00    +0.117 C 
ATOM     12  N   UNL     1      -1.862  -0.779  24.599  0.00  0.00    -0.259 N 
ATOM     13  C   UNL     1      -1.046  -0.665  24.558  0.00  0.00    +0.117 C 
ATOM     14  C   UNL     1      -0.738   0.098  24.503  0.00  0.00    +0.117 C 
ATOM     15  N   UNL     1      -1.246   0.748  24.490  0.00  0.00    -0.261 N 
ATOM     16  C   UNL     1      -1.104   1.559  24.440  0.00  0.00    +0.308 C 
ATOM     17  O   UNL     1      -0.363   1.919  24.389  0.00  0.00    -0.252 OA
ATOM     18  C   UNL     1      -2.170  -1.543  24.654  0.00  0.00    +0.323 C 
ATOM     19  O   UNL     1      -1.662  -2.192  24.667  0.00  0.00    -0.251 OA
ATOM     20  N   UNL     1      -2.986  -1.656  24.695  0.00  0.00    -0.190 NA
ENDROOT
BRANCH  20  21
ATOM     21  C   UNL     1      -3.294  -2.419  24.749  0.00  0.00    +0.097 C 
ATOM     22  C   UNL     1      -3.288  -2.817  25.472  0.00  0.00    +0.023 C 
ATOM     23  C   UNL     1      -3.609  -2.785  24.079  0.00  0.00    +0.023 C 
ENDBRANCH  20  21
BRANCH   8   7
ATOM      7  C   UNL     1      -1.947   2.762  24.411  0.00  0.00    +0.122 C 
BRANCH   7   6
ATOM      3  C   UNL     1      -4.106   3.744  25.121  0.00  0.00    +0.139 A 
ATOM      4  C   UNL     1      -4.000   3.502  24.340  0.00  0.00    +0.037 A 
ATOM      5  C   UNL     1      -3.280   3.175  24.102  0.00  0.00    +0.001 A 
ATOM      6  C   UNL     1      -2.667   3.089  24.647  0.00  0.00    -0.002 A 
ATOM     24  C   UNL     1      -2.773   3.331  25.429  0.00  0.00    +0.001 A 
ATOM     25  C   UNL     1      -3.492   3.658  25.665  0.00  0.00    +0.037 A 
BRANCH   3   2
ATOM      1  C   UNL     1      -5.436   3.582  25.617  0.00  0.00    +0.252 C 
ATOM      2  O   UNL     1      -4.825   4.071  25.358  0.00  0.00    -0.471 OA
ENDBRANCH   3   2
ENDBRANCH   7   6
ENDBRANCH   8   7
TORSDOF 4
ENDMDL
MODEL 3
REMARK VINA RESULT:     -10.2      2.131      4.920
REMARK  Name = 
REMARK  4 active torsions:
REMARK  status: ('A' for Active; 'I' for Inactive)
REMARK    1  A    between atoms: O_2  and  C_3
REMARK    2  A    between atoms: C_6  and  C_7
REMARK    3  A    between atoms: C_7  and  N_8
REMARK    4  A    between atoms: N_20  and  C_21
REMARK                            x       y       z     vdW  Elec       q    Type
REMARK                         _______ _______ _______ _____ _____    ______ ____
ROOT
ATOM      8  N   UNL     1      -1.571   2.997  24.877  0.00  0.00    -0.258 N 
ATOM      9  C   UNL     1      -1.814   2.239  25.095  0.00  0.00    +0.117 C 
ATOM     10  C   UNL     1      -1.271   1.700  24.787  0.00  0.00    +0.117 C 
ATOM     11  C   UNL     1      -1.227   0.877  24.825  0.00  0.00    +0.117 C 
ATOM     12  N   UNL     1      -0.606   0.479  24.457  0.00  0.00    -0.259 N 
ATOM     13  C   UNL     1      -0.029   0.904  24.049  0.00  0.00    +0.117 C 
ATOM     14  C   UNL     1      -0.071   1.727  24.010  0.00  0.00    +0.117 C 
ATOM     15  N   UNL     1      -0.693   2.125  24.380  0.00  0.00    -0.261 N 
ATOM     16  C   UNL     1      -0.879   2.926  24.435  0.00  0.00    +0.308 C 
ATOM     17  O   UNL     1      -0.447   3.548  24.106  0.00  0.00    -0.252 OA
ATOM     18  C   UNL     1      -0.563  -0.344  24.495  0.00  0.00    +0.323 C 
ATOM     19  O   UNL     1       0.058  -0.742  24.126  0.00  0.00    -0.251 OA
ATOM     20  N   UNL     1      -1.141  -0.769  24.902  0.00  0.00    -0.190 NA
ENDROOT
BRANCH  20  21
ATOM     21  C   UNL     1      -1.098  -1.592  24.941  0.00  0.00    +0.097 C 
ATOM     22  C   UNL     1      -0.558  -1.954  25.449  0.00  0.00    +0.023 C 
ATOM     23  C   UNL     1      -1.596  -2.053  24.471  0.00  0.00    +0.023 C 
ENDBRANCH  20  21
BRANCH   8   7
ATOM      7  C   UNL     1      -1.955   3.702  25.068  0.00  0.00    +0.122 C 
BRANCH   7   6
ATOM      3  C   UNL     1      -4.413   3.739  25.350  0.00  0.00    +0.139 A 
ATOM      4  C   UNL     1      -4.086   3.724  24.594  0.00  0.00    +0.037 A 
ATOM      5  C   UNL     1      -3.266   3.712  24.499  0.00  0.00    +0.001 A 
ATOM      6  C   UNL     1      -2.774   3.714  25.162  0.00  0.00    -0.002 A 
ATOM     24  C   UNL     1      -3.102   3.729  25.919  0.00  0.00    +0.001 A 
ATOM     25  C   UNL     1      -3.922   3.741  26.013  0.00  0.00    +0.037 A 
BRANCH   3   2
ATOM      1  C   UNL     1      -5.636   3.059  25.641  0.00  0.00    +0.252 C 
ATOM      2  O   UNL     1      -5.233   3.751  25.446  0.00  0.00    -0.471 OA
ENDBRANCH   3   2
ENDBRANCH   7   6
ENDBRANCH   8   7
TORSDOF 4
ENDMDL
MODEL 4
REMARK VINA RESULT:     -10.2      1.052      4.668
REMARK  Name = 
REMARK  4 active torsions:
REMARK  status: ('A' for Active; 'I' for Inactive)
REMARK    1  A    between atoms: O_2  and  C_3
REMARK    2  A    between atoms: C_6  and  C_7
REMARK    3  A    between atoms: C_7  and  N_8
REMARK    4  A    between atoms: N_20  and  C_21
REMARK                            x       y       z     vdW  Elec       q    Type
REMARK                         _______ _______ _______ _____ _____    ______ ____
ROOT
ATOM      8  N   UNL     1      -4.026   2.074  24.903  0.00  0.00    -0.258 N 
ATOM      9  C   UNL     1      -3.299   1.691  24.823  0.00  0.00    +0.117 C 
ATOM     10  C   UNL     1      -3.428   0.881  24.906  0.00  0.00    +0.117 C 
ATOM     11  C   UNL     1      -2.916   0.234  24.879  0.00  0.00    +0.117 C 
ATOM     12  N   UNL     1      -3.208  -0.529  24.983  0.00  0.00    -0.259 N 
ATOM     13  C   UNL     1      -4.014  -0.647  25.115  0.00  0.00    +0.117 C 
ATOM     14  C   UNL     1      -4.527  -0.002  25.142  0.00  0.00    +0.117 C 
ATOM     15  N   UNL     1      -4.234   0.762  25.038  0.00  0.00    -0.261 N 
ATOM     16  C   UNL     1      -4.603   1.499  25.036  0.00  0.00    +0.308 C 
ATOM     17  O   UNL     1      -5.409   1.639  25.147  0.00  0.00    -0.252 OA
ATOM     18  C   UNL     1      -2.696  -1.176  24.956  0.00  0.00    +0.323 C 
ATOM     19  O   UNL     1      -2.989  -1.939  25.060  0.00  0.00    -0.251 OA
ATOM     20  N   UNL     1      -1.890  -1.057  24.824  0.00  0.00    -0.190 NA
ENDROOT
BRANCH  20  21
ATOM     21  C   UNL     1      -1.377  -1.703  24.797  0.00  0.00    +0.097 C 
ATOM     22  C   UNL     1      -1.478  -2.287  24.223  0.00  0.00    +0.023 C 
ATOM     23  C   UNL     1      -0.762  -1.764  25.345  0.00  0.00    +0.023 C 
ENDBRANCH  20  21
BRANCH   8   7
ATOM      7  C   UNL     1      -4.153   2.888  24.859  0.00  0.00    +0.122 C 
BRANCH   7   6
ATOM      3  C   UNL     1      -2.299   4.458  25.331  0.00  0.00    +0.139 A 
ATOM      4  C   UNL     1      -2.448   4.217  24.557  0.00  0.00    +0.037 A 
ATOM      5  C   UNL     1      -3.066   3.693  24.398  0.00  0.00    +0.001 A 
ATOM      6  C   UNL     1      -3.535   3.411  25.016  0.00  0.00    -0.002 A 
ATOM     24  C   UNL     1      -3.386   3.652  25.791  0.00  0.00    +0.001 A 
ATOM     25  C   UNL     1      -2.768   4.176  25.948  0.00  0.00    +0.037 A 
BRANCH   3   2
ATOM      1  C   UNL     1      -0.998   4.965  25.029  0.00  0.00    +0.252 C 
ATOM      2  O   UNL     1      -1.681   4.982  25.489  0.00  0.00    -0.471 OA
ENDBRANCH   3   2
ENDBRANCH   7   6
ENDBRANCH   8   7
TORSDOF 4
ENDMDL
MODEL 5
REMARK VINA RESULT:      -9.9      2.054      2.963
REMARK  Name = 
REMARK  4 active torsions:
REMARK  status: ('A' for Active; 'I' for Inactive)
REMARK    1  A    between atoms: O_2  and  C_3
REMARK    2  A    between atoms: C_6  and  C_7
REMARK    3  A    between atoms: C_7  and  N_8
REMARK    4  A    between atoms: N_20  and  C_21
REMARK                            x       y       z     vdW  Elec       q    Type
REMARK                         _______ _______ _______ _____ _____    ______ ____
ROOT
ATOM      8  N   UNL     1      -1.028  -0.465  25.133  0.00  0.00    -0.258 N 
ATOM      9  C   UNL     1      -1.477   0.194  25.348  0.00  0.00    +0.117 C 
ATOM     10  C   UNL     1      -1.130   0.860  25.009  0.00  0.00    +0.117 C 
ATOM     11  C   UNL     1      -1.331   1.660  25.031  0.00  0.00    +0.117 C 
ATOM     12  N   UNL     1      -0.871   2.213  24.630  0.00  0.00    -0.259 N 
ATOM     13  C   UNL     1      -0.207   1.967  24.205  0.00  0.00    +0.117 C 
ATOM     14  C   UNL     1      -0.005   1.168  24.182  0.00  0.00    +0.117 C 
ATOM     15  N   UNL     1      -0.467   0.614  24.584  0.00  0.00    -0.261 N 
ATOM     16  C   UNL     1      -0.404  -0.204  24.661  0.00  0.00    +0.308 C 
ATOM     17  O   UNL     1       0.181  -0.680  24.325  0.00  0.00    -0.252 OA
ATOM     18  C   UNL     1      -1.072   3.013  24.652  0.00  0.00    +0.323 C 
ATOM     19  O   UNL     1      -0.611   3.566  24.250  0.00  0.00    -0.251 OA
ATOM     20  N   UNL     1      -1.735   3.259  25.076  0.00  0.00    -0.190 NA
ENDROOT
BRANCH  20  21
ATOM     21  C   UNL     1      -1.938   4.058  25.099  0.00  0.00    +0.097 C 
ATOM     22  C   UNL     1      -1.411   4.609  25.415  0.00  0.00    +0.023 C 
ATOM     23  C   UNL     1      -2.669   4.307  24.806  0.00  0.00    +0.023 C 
ENDBRANCH  20  21
BRANCH   8   7
ATOM      7  C   UNL     1      -1.177  -1.246  25.352  0.00  0.00    +0.122 C 
BRANCH   7   6
ATOM      3  C   UNL     1      -3.293  -2.339  24.677  0.00  0.00    +0.139 A 
ATOM      4  C   UNL     1      -3.284  -1.817  25.315  0.00  0.00    +0.037 A 
ATOM      5  C   UNL     1      -2.579  -1.452  25.541  0.00  0.00    +0.001 A 
ATOM      6  C   UNL     1      -1.883  -1.610  25.127  0.00  0.00    -0.002 A 
ATOM     24  C   UNL     1      -1.891  -2.133  24.488  0.00  0.00    +0.001 A 
ATOM     25  C   UNL     1      -2.596  -2.497  24.264  0.00  0.00    +0.037 A 
BRANCH   3   2
ATOM      1  C   UNL     1      -4.429  -2.410  23.813  0.00  0.00    +0.252 C 
ATOM      2  O   UNL     1      -3.998  -2.704  24.451  0.00  0.00    -0.471 OA
ENDBRANCH   3   2
ENDBRANCH   7   6
ENDBRANCH   8   7
TORSDOF 4
ENDMDL
