MODEL 1
REMARK VINA RESULT:     -10.5      0.000      0.000
REMARK  Name = 
REMARK  7 active torsions:
REMARK  status: ('A' for Active; 'I' for Inactive)
REMARK    1  A    between atoms: C_2  and  C_3
REMARK    2  A    between atoms: C_3  and  C_4
REMARK    3  A    between atoms: C_4  and  C_5
REMARK    4  A    between atoms: C_7  and  C_8
REMARK    5  A    between atoms: C_8  and  C_9
REMARK    6  A    between atoms: C_14  and  C_15
REMARK    7  A    between atoms: C_15  and  C_16
REMARK                            x       y       z     vdW  Elec       q    Type
REMARK                         _______ _______ _______ _____ _____    ______ ____
ROOT
ATOM      9  C   UNL     1      -4.717   1.846  24.854  0.00  0.00    +0.024 C 
ATOM     10  C   UNL     1      -5.485   1.578  24.990  0.00  0.00    +0.089 C 
ATOM     11  N   UNL     1      -6.036   2.069  25.356  0.00  0.00    -0.218 NA
ATOM     12  C   UNL     1      -5.819   2.831  25.587  0.00  0.00    +0.089 C 
ATOM     13  C   UNL     1      -5.051   3.101  25.451  0.00  0.00    +0.019 C 
ATOM     14  C   UNL     1      -4.500   2.609  25.085  0.00  0.00    +0.012 C 
ENDROOT
BRANCH   9   8
ATOM      8  C   UNL     1      -4.165   1.354  24.487  0.00  0.00    +0.051 C 
BRANCH   8   7
ATOM      5  C   UNL     1      -4.118  -0.779  24.552  0.00  0.00    +0.154 A 
ATOM      6  C   UNL     1      -4.138  -0.071  24.128  0.00  0.00    +0.054 A 
ATOM      7  C   UNL     1      -4.146   0.550  24.670  0.00  0.00    +0.100 A 
ATOM     25  N   UNL     1      -4.132   0.226  25.429  0.00  0.00    -0.082 NA
ATOM     26  O   UNL     1      -4.115  -0.595  25.356  0.00  0.00    -0.358 OA
BRANCH   5   4
ATOM      4  C   UNL     1      -4.105  -1.538  24.228  0.00  0.00    +0.067 C 
BRANCH   4   3
ATOM      3  C   UNL     1      -3.667  -2.134  24.592  0.00  0.00    +0.008 C 
BRANCH   3   2
ATOM      1  C   UNL     1      -2.986  -3.367  24.350  0.00  0.00    +0.000 C 
ATOM      2  C   UNL     1      -3.657  -2.894  24.270  0.00  0.00    +0.000 C 
ENDBRANCH   3   2
ENDBRANCH   4   3
ENDBRANCH   5   4
ENDBRANCH   8   7
ENDBRANCH   9   8
BRANCH  14  15
ATOM     15  C   UNL     1      -3.732   2.878  24.949  0.00  0.00    +0.085 C 
BRANCH  15  16
ATOM     16  C   UNL     1      -3.478   3.586  25.287  0.00  0.00    +0.226 C 
ATOM     17  O   UNL     1      -3.998   4.036  25.743  0.00  0.00    -0.275 OA
ATOM     18  N   UNL     1      -2.704   3.845  25.170  0.00  0.00    -0.277 N 
ATOM     19  C   UNL     1      -2.450   4.554  25.508  0.00  0.00    +0.111 C 
ATOM     20  C   UNL     1      -1.675   4.812  25.389  0.00  0.00    +0.094 C 
ATOM     21  N   UNL     1      -1.155   4.363  24.934  0.00  0.00    -0.269 NA
ATOM     22  C   UNL     1      -0.380   4.621  24.816  0.00  0.00    +0.090 C 
ATOM     23  C   UNL     1      -1.410   3.654  24.596  0.00  0.00    +0.094 C 
ATOM     24  C   UNL     1      -2.183   3.395  24.714  0.00  0.00    +0.111 C 
ENDBRANCH  15  16
ENDBRANCH  14  15
TORSDOF 7
ENDMDL
MODEL 2
REMARK VINA RESULT:     -10.2      1.118      4.907
REMARK  Name = 
REMARK  7 active torsions:
REMARK  status: ('A' for Active; 'I' for Inactive)
REMARK    1  A    between atoms: C_2  and  C_3
REMARK    2  A    between atoms: C_3  and  C_4
REMARK    3  A    between atoms: C_4  and  C_5
REMARK    4  A    between atoms: C_7  and  C_8
REMARK    5  A    between atoms: C_8  and  C_9
REMARK    6  A    between atoms: C_14  and  C_15
REMARK    7  A    between atoms: C_15  and  C_16
REMARK                            x       y       z     vdW  Elec       q    Type
REMARK                         _______ _______ _______ _____ _____    ______ ____
ROOT
ATOM      9  C   UNL     1      -4.588   1.778  24.665  0.00  0.00    +0.024 C 
ATOM     10  C   UNL     1      -5.205   2.280  24.884  0.00  0.00    +0.089 C 
ATOM     11  N   UNL     1      -5.845   1.986  25.313  0.00  0.00    -0.218 NA
ATOM     12  C   UNL     1      -5.868   1.188  25.524  0.00  0.00    +0.089 C 
ATOM     13  C   UNL     1      -5.250   0.685  25.305  0.00  0.00    +0.019 C 
ATOM     14  C   UNL     1      -4.611   0.980  24.876  0.00  0.00    +0.012 C 
ENDROOT
BRANCH   9   8
ATOM      8  C   UNL     1      -3.948   2.072  24.235  0.00  0.00    +0.051 C 
BRANCH   8   7
ATOM      5  C   UNL     1      -3.001   3.894  24.819  0.00  0.00    +0.154 A 
ATOM      6  C   UNL     1      -3.070   3.072  24.860  0.00  0.00    +0.054 A 
ATOM      7  C   UNL     1      -3.687   2.844  24.363  0.00  0.00    +0.100 A 
ATOM     25  N   UNL     1      -3.999   3.524  24.015  0.00  0.00    -0.082 NA
ATOM     26  O   UNL     1      -3.575   4.173  24.297  0.00  0.00    -0.358 OA
BRANCH   5   4
ATOM      4  C   UNL     1      -2.453   4.355  25.229  0.00  0.00    +0.067 C 
BRANCH   4   3
ATOM      3  C   UNL     1      -1.695   4.465  24.923  0.00  0.00    +0.008 C 
BRANCH   3   2
ATOM      1  C   UNL     1      -0.539   5.292  24.774  0.00  0.00    +0.000 C 
ATOM      2  C   UNL     1      -1.238   5.106  25.171  0.00  0.00    +0.000 C 
ENDBRANCH   3   2
ENDBRANCH   4   3
ENDBRANCH   5   4
ENDBRANCH   8   7
ENDBRANCH   9   8
BRANCH  14  15
ATOM     15  C   UNL     1      -3.994   0.477  24.657  0.00  0.00    +0.085 C 
BRANCH  15  16
ATOM     16  C   UNL     1      -4.147  -0.317  24.497  0.00  0.00    +0.226 C 
ATOM     17  O   UNL     1      -4.913  -0.561  24.309  0.00  0.00    -0.275 OA
ATOM     18  N   UNL     1      -3.534  -0.869  24.524  0.00  0.00    -0.277 N 
ATOM     19  C   UNL     1      -3.687  -1.664  24.365  0.00  0.00    +0.111 C 
ATOM     20  C   UNL     1      -3.074  -2.215  24.393  0.00  0.00    +0.094 C 
ATOM     21  N   UNL     1      -2.309  -1.972  24.580  0.00  0.00    -0.269 NA
ATOM     22  C   UNL     1      -1.695  -2.523  24.608  0.00  0.00    +0.090 C 
ATOM     23  C   UNL     1      -2.156  -1.176  24.740  0.00  0.00    +0.094 C 
ATOM     24  C   UNL     1      -2.768  -0.625  24.712  0.00  0.00    +0.111 C 
ENDBRANCH  15  16
ENDBRANCH  14  15
TORSDOF 7
ENDMDL
MODEL 3
REMARK VINA RESULT:      -9.5      2.051      3.451
REMARK  Name = 
REMARK  7 active torsions:
REMARK  status: ('A' for Active; 'I' for Inactive)
REMARK    1  A    between atoms: C_2  and  C_3
REMARK    2  A    between atoms: C_3  and  C_4
REMARK    3  A    between atoms: C_4  and  C_5
REMARK    4  A    between atoms: C_7  and  C_8
REMARK    5  A    between atoms: C_8  and  C_9
REMARK    6  A    between atoms: C_14  and  C_15
REMARK    7  A    between atoms: C_15  and  C_16
REMARK                            x       y       z     vdW  Elec       q    Type
REMARK                         _______ _______ _______ _____ _____    ______ ____
ROOT
ATOM      9  C   UNL     1      -0.812   1.795  24.878  0.00  0.00    +0.024 C 
ATOM     10  C   UNL     1      -0.029   1.709  25.123  0.00  0.00    +0.089 C 
ATOM     11  N   UNL     1       0.278   2.203  25.707  0.00  0.00    -0.218 NA
ATOM     12  C   UNL     1      -0.198   2.785  26.047  0.00  0.00    +0.089 C 
ATOM     13  C   UNL     1      -0.982   2.871  25.802  0.00  0.00    +0.019 C 
ATOM     14  C   UNL     1      -1.289   2.377  25.218  0.00  0.00    +0.012 C 
ENDROOT
BRANCH   9   8
ATOM      8  C   UNL     1      -1.120   1.300  24.293  0.00  0.00    +0.051 C 
BRANCH   8   7
ATOM      5  C   UNL     1      -1.063  -0.823  24.501  0.00  0.00    +0.154 A 
ATOM      6  C   UNL     1      -1.451  -0.100  24.591  0.00  0.00    +0.054 A 
ATOM      7  C   UNL     1      -0.953   0.493  24.308  0.00  0.00    +0.100 A 
ATOM     25  N   UNL     1      -0.258   0.137  24.042  0.00  0.00    -0.082 NA
ATOM     26  O   UNL     1      -0.326  -0.676  24.161  0.00  0.00    -0.358 OA
BRANCH   5   4
ATOM      4  C   UNL     1      -1.361  -1.563  24.712  0.00  0.00    +0.067 C 
BRANCH   4   3
ATOM      3  C   UNL     1      -2.144  -1.757  24.542  0.00  0.00    +0.008 C 
BRANCH   3   2
ATOM      1  C   UNL     1      -3.220  -2.694  24.615  0.00  0.00    +0.000 C 
ATOM      2  C   UNL     1      -2.413  -2.529  24.656  0.00  0.00    +0.000 C 
ENDBRANCH   3   2
ENDBRANCH   4   3
ENDBRANCH   5   4
ENDBRANCH   8   7
ENDBRANCH   9   8
BRANCH  14  15
ATOM     15  C   UNL     1      -2.072   2.464  24.973  0.00  0.00    +0.085 C 
BRANCH  15  16
ATOM     16  C   UNL     1      -2.488   3.151  25.160  0.00  0.00    +0.226 C 
ATOM     17  O   UNL     1      -2.084   3.864  25.261  0.00  0.00    -0.275 OA
ATOM     18  N   UNL     1      -3.308   3.127  25.246  0.00  0.00    -0.277 N 
ATOM     19  C   UNL     1      -3.724   3.814  25.432  0.00  0.00    +0.111 C 
ATOM     20  C   UNL     1      -4.545   3.788  25.518  0.00  0.00    +0.094 C 
ATOM     21  N   UNL     1      -4.948   3.076  25.417  0.00  0.00    -0.269 NA
ATOM     22  C   UNL     1      -5.769   3.051  25.503  0.00  0.00    +0.090 C 
ATOM     23  C   UNL     1      -4.531   2.389  25.230  0.00  0.00    +0.094 C 
ATOM     24  C   UNL     1      -3.712   2.414  25.145  0.00  0.00    +0.111 C 
ENDBRANCH  15  16
ENDBRANCH  14  15
TORSDOF 7
ENDMDL
MODEL 4
REMARK VINA RESULT:      -9.4      2.547      4.026
REMARK  Name = 
REMARK  7 active torsions:
REMARK  status: ('A' for Active; 'I' for Inactive)
REMARK    1  A    between atoms: C_2  and  C_3
REMARK    2  A    between atoms: C_3  and  C_4
REMARK    3  A    between atoms: C_4  and  C_5
REMARK    4  A    between atoms: C_7  and  C_8
REMARK    5  A    between atoms: C_8  and  C_9
REMARK    6  A    between atoms: C_14  and  C_15
REMARK    7  A    between atoms: C_15  and  C_16
REMARK                            x       y       z     vdW  Elec       q    Type
REMARK                         _______ _______ _______ _____ _____    ______ ____
ROOT
ATOM      9  C   UNL     1      -2.931  -0.835  24.737  0.00  0.00    +0.024 C 
ATOM     10  C   UNL     1      -2.815  -1.621  24.513  0.00  0.00    +0.089 C 
ATOM     11  N   UNL     1      -3.415  -2.033  24.126  0.00  0.00    -0.218 NA
ATOM     12  C   UNL     1      -4.133  -1.658  23.962  0.00  0.00    +0.089 C 
ATOM     13  C   UNL     1      -4.248  -0.872  24.186  0.00  0.00    +0.019 C 
ATOM     14  C   UNL     1      -3.648  -0.461  24.573  0.00  0.00    +0.012 C 
ENDROOT
BRANCH   9   8
ATOM      8  C   UNL     1      -2.330  -0.423  25.125  0.00  0.00    +0.051 C 
BRANCH   8   7
ATOM      5  C   UNL     1      -0.362  -0.276  24.311  0.00  0.00    +0.154 A 
ATOM      6  C   UNL     1      -1.118   0.034  24.429  0.00  0.00    +0.054 A 
ATOM      7  C   UNL     1      -1.547  -0.508  24.878  0.00  0.00    +0.100 A 
ATOM     25  N   UNL     1      -1.057  -1.152  25.038  0.00  0.00    -0.082 NA
ATOM     26  O   UNL     1      -0.325  -1.008  24.688  0.00  0.00    -0.358 OA
BRANCH   5   4
ATOM      4  C   UNL     1       0.249   0.085  23.891  0.00  0.00    +0.067 C 
BRANCH   4   3
ATOM      3  C   UNL     1       0.567  -0.284  23.226  0.00  0.00    +0.008 C 
BRANCH   3   2
ATOM      1  C   UNL     1       1.516  -0.308  22.158  0.00  0.00    +0.000 C 
ATOM      2  C   UNL     1       1.211   0.052  22.834  0.00  0.00    +0.000 C 
ENDBRANCH   3   2
ENDBRANCH   4   3
ENDBRANCH   5   4
ENDBRANCH   8   7
ENDBRANCH   9   8
BRANCH  14  15
ATOM     15  C   UNL     1      -3.764   0.325  24.796  0.00  0.00    +0.085 C 
BRANCH  15  16
ATOM     16  C   UNL     1      -4.523   0.596  24.973  0.00  0.00    +0.226 C 
ATOM     17  O   UNL     1      -5.145   0.059  25.049  0.00  0.00    -0.275 OA
ATOM     18  N   UNL     1      -4.660   1.403  25.074  0.00  0.00    -0.277 N 
ATOM     19  C   UNL     1      -5.419   1.673  25.251  0.00  0.00    +0.111 C 
ATOM     20  C   UNL     1      -5.556   2.481  25.352  0.00  0.00    +0.094 C 
ATOM     21  N   UNL     1      -4.934   3.017  25.276  0.00  0.00    -0.269 NA
ATOM     22  C   UNL     1      -5.070   3.825  25.376  0.00  0.00    +0.090 C 
ATOM     23  C   UNL     1      -4.174   2.746  25.099  0.00  0.00    +0.094 C 
ATOM     24  C   UNL     1      -4.037   1.939  24.998  0.00  0.00    +0.111 C 
ENDBRANCH  15  16
ENDBRANCH  14  15
TORSDOF 7
ENDMDL
MODEL 5
REMARK VINA RESULT:      -9.3      2.667      3.679
REMARK  Name = 
REMARK  7 active torsions:
REMARK  status: ('A' for Active; 'I' for Inactive)
REMARK    1  A    between atoms: C_2  and  C_3
REMARK    2  A    between atoms: C_3  and  C_4
REMARK    3  A    between atoms: C_4  and  C_5
REMARK    4  A    between atoms: C_7  and  C_8
REMARK    5  A    between atoms: C_8  and  C_9
REMARK    6  A    between atoms: C_14  and  C_15
REMARK    7  A    between atoms: C_15  and  C_16
REMARK                            x       y       z     vdW  Elec       q    Type
REMARK                         _______ _______ _______ _____ _____    ______ ____
ROOT
ATOM      9  C   UNL     1      -0.365  -0.045  24.540  0.00  0.00    +0.024 C 
ATOM     10  C   UNL     1      -0.012  -0.606  24.050  0.00  0.00    +0.089 C 
ATOM     11  N   UNL     1       0.437  -0.365  23.402  0.00  0.00    -0.218 NA
ATOM     12  C   UNL     1       0.533   0.439  23.244  0.00  0.00    +0.089 C 
ATOM     13  C   UNL     1       0.180   1.001  23.734  0.00  0.00    +0.019 C 
ATOM     14  C   UNL     1      -0.269   0.759  24.382  0.00  0.00    +0.012 C 
ENDROOT
BRANCH   9   8
ATOM      8  C   UNL     1      -0.815  -0.287  25.189  0.00  0.00    +0.051 C 
BRANCH   8   7
ATOM      5  C   UNL     1      -2.261  -1.853  25.065  0.00  0.00    +0.154 A 
ATOM      6  C   UNL     1      -2.067  -1.050  25.084  0.00  0.00    +0.054 A 
ATOM      7  C   UNL     1      -1.247  -0.989  25.151  0.00  0.00    +0.100 A 
ATOM     25  N   UNL     1      -0.935  -1.752  25.173  0.00  0.00    -0.082 NA
ATOM     26  O   UNL     1      -1.561  -2.285  25.120  0.00  0.00    -0.358 OA
BRANCH   5   4
ATOM      4  C   UNL     1      -3.021  -2.166  25.002  0.00  0.00    +0.067 C 
BRANCH   4   3
ATOM      3  C   UNL     1      -3.386  -2.221  24.264  0.00  0.00    +0.008 C 
BRANCH   3   2
ATOM      1  C   UNL     1      -4.547  -2.501  23.480  0.00  0.00    +0.000 C 
ATOM      2  C   UNL     1      -4.147  -2.531  24.202  0.00  0.00    +0.000 C 
ENDBRANCH   3   2
ENDBRANCH   4   3
ENDBRANCH   5   4
ENDBRANCH   8   7
ENDBRANCH   9   8
BRANCH  14  15
ATOM     15  C   UNL     1      -0.623   1.321  24.873  0.00  0.00    +0.085 C 
BRANCH  15  16
ATOM     16  C   UNL     1      -0.297   2.076  24.935  0.00  0.00    +0.226 C 
ATOM     17  O   UNL     1       0.518   2.182  24.862  0.00  0.00    -0.275 OA
ATOM     18  N   UNL     1      -0.786   2.727  25.072  0.00  0.00    -0.277 N 
ATOM     19  C   UNL     1      -0.461   3.482  25.135  0.00  0.00    +0.111 C 
ATOM     20  C   UNL     1      -0.950   4.132  25.271  0.00  0.00    +0.094 C 
ATOM     21  N   UNL     1      -1.765   4.026  25.345  0.00  0.00    -0.269 NA
ATOM     22  C   UNL     1      -2.255   4.676  25.482  0.00  0.00    +0.090 C 
ATOM     23  C   UNL     1      -2.090   3.270  25.282  0.00  0.00    +0.094 C 
ATOM     24  C   UNL     1      -1.602   2.621  25.146  0.00  0.00    +0.111 C 
ENDBRANCH  15  16
ENDBRANCH  14  15
TORSDOF 7
ENDMDL
MODEL 6
REMARK VINA RESULT:      -9.3      2.346      4.281
REMARK  Name = 
REMARK  7 active torsions:
REMARK  status: ('A' for Active; 'I' for Inactive)
REMARK    1  A    between atoms: C_2  and  C_3
REMARK    2  A    between atoms: C_3  and  C_4
REMARK    3  A    between atoms: C_4  and  C_5
REMARK    4  A    between atoms: C_7  and  C_8
REMARK    5  A    between atoms: C_8  and  C_9
REMARK    6  A    between atoms: C_14  and  C_15
REMARK    7  A    between atoms: C_15  and  C_16
REMARK                            x       y       z     vdW  Elec       q    Type
REMARK                         _______ _______ _______ _____ _____    ______ ____
ROOT
ATOM      9  C   UNL     1      -1.234   3.422  25.339  0.00  0.00    +0.024 C 
ATOM     10  C   UNL     1      -0.589   3.921  25.218  0.00  0.00    +0.089 C 
ATOM     11  N   UNL     1      -0.708   4.722  25.064  0.00  0.00    -0.218 NA
ATOM     12  C   UNL     1      -1.476   5.025  25.030  0.00  0.00    +0.089 C 
ATOM     13  C   UNL     1      -2.122   4.526  25.151  0.00  0.00    +0.019 C 
ATOM     14  C   UNL     1      -2.001   3.725  25.306  0.00  0.00    +0.012 C 
ENDROOT
BRANCH   9   8
ATOM      8  C   UNL     1      -1.114   2.620  25.494  0.00  0.00    +0.051 C 
BRANCH   8   7
ATOM      5  C   UNL     1       0.078   1.379  24.231  0.00  0.00    +0.154 A 
ATOM      6  C   UNL     1      -0.657   1.656  24.482  0.00  0.00    +0.054 A 
ATOM      7  C   UNL     1      -0.531   2.205  25.084  0.00  0.00    +0.100 A 
ATOM     25  N   UNL     1       0.283   2.268  25.205  0.00  0.00    -0.082 NA
ATOM     26  O   UNL     1       0.659   1.757  24.678  0.00  0.00    -0.358 OA
BRANCH   5   4
ATOM      4  C   UNL     1       0.210   0.821  23.637  0.00  0.00    +0.067 C 
BRANCH   4   3
ATOM      3  C   UNL     1       0.979   0.586  23.454  0.00  0.00    +0.008 C 
BRANCH   3   2
ATOM      1  C   UNL     1       1.823  -0.064  22.502  0.00  0.00    +0.000 C 
ATOM      2  C   UNL     1       1.107  -0.020  22.910  0.00  0.00    +0.000 C 
ENDBRANCH   3   2
ENDBRANCH   4   3
ENDBRANCH   5   4
ENDBRANCH   8   7
ENDBRANCH   9   8
BRANCH  14  15
ATOM     15  C   UNL     1      -2.648   3.226  25.426  0.00  0.00    +0.085 C 
BRANCH  15  16
ATOM     16  C   UNL     1      -3.366   3.538  25.684  0.00  0.00    +0.226 C 
ATOM     17  O   UNL     1      -3.381   4.245  26.109  0.00  0.00    -0.275 OA
ATOM     18  N   UNL     1      -4.071   3.142  25.518  0.00  0.00    -0.277 N 
ATOM     19  C   UNL     1      -4.790   3.454  25.776  0.00  0.00    +0.111 C 
ATOM     20  C   UNL     1      -5.495   3.058  25.609  0.00  0.00    +0.094 C 
ATOM     21  N   UNL     1      -5.480   2.351  25.185  0.00  0.00    -0.269 NA
ATOM     22  C   UNL     1      -6.185   1.955  25.018  0.00  0.00    +0.090 C 
ATOM     23  C   UNL     1      -4.760   2.040  24.927  0.00  0.00    +0.094 C 
ATOM     24  C   UNL     1      -4.056   2.435  25.093  0.00  0.00    +0.111 C 
ENDBRANCH  15  16
ENDBRANCH  14  15
TORSDOF 7
ENDMDL
MODEL 7
REMARK VINA RESULT:      -9.1      2.282      5.631
REMARK  Name = 
REMARK  7 active torsions:
REMARK  status: ('A' for Active; 'I' for Inactive)
REMARK    1  A    between atoms: C_2  and  C_3
REMARK    2  A    between atoms: C_3  and  C_4
REMARK    3  A    between atoms: C_4  and  C_5
REMARK    4  A    between atoms: C_7  and  C_8
REMARK    5  A    between atoms: C_8  and  C_9
REMARK    6  A    between atoms: C_14  and  C_15
REMARK    7  A    between atoms: C_15  and  C_16
REMARK                            x       y       z     vdW  Elec       q    Type
REMARK                         _______ _______ _______ _____ _____    ______ ____
ROOT
ATOM      9  C   UNL     1      -0.512   1.413  24.962  0.00  0.00    +0.024 C 
ATOM     10  C   UNL     1       0.050   1.957  24.702  0.00  0.00    +0.089 C 
ATOM     11  N   UNL     1       0.557   1.763  24.081  0.00  0.00    -0.218 NA
ATOM     12  C   UNL     1       0.501   1.023  23.719  0.00  0.00    +0.089 C 
ATOM     13  C   UNL     1      -0.062   0.478  23.979  0.00  0.00    +0.019 C 
ATOM     14  C   UNL     1      -0.568   0.673  24.600  0.00  0.00    +0.012 C 
ENDROOT
BRANCH   9   8
ATOM      8  C   UNL     1      -1.020   1.607  25.583  0.00  0.00    +0.051 C 
BRANCH   8   7
ATOM      5  C   UNL     1      -2.217   3.371  25.490  0.00  0.00    +0.154 A 
ATOM      6  C   UNL     1      -2.107   2.566  25.343  0.00  0.00    +0.054 A 
ATOM      7  C   UNL     1      -1.358   2.358  25.618  0.00  0.00    +0.100 A 
ATOM     25  N   UNL     1      -1.006   3.033  25.935  0.00  0.00    -0.082 NA
ATOM     26  O   UNL     1      -1.537   3.659  25.856  0.00  0.00    -0.358 OA
BRANCH   5   4
ATOM      4  C   UNL     1      -2.890   3.810  25.303  0.00  0.00    +0.067 C 
BRANCH   4   3
ATOM      3  C   UNL     1      -3.639   3.516  25.485  0.00  0.00    +0.008 C 
BRANCH   3   2
ATOM      1  C   UNL     1      -5.061   3.651  25.458  0.00  0.00    +0.000 C 
ATOM      2  C   UNL     1      -4.314   3.915  25.228  0.00  0.00    +0.000 C 
ENDBRANCH   3   2
ENDBRANCH   4   3
ENDBRANCH   5   4
ENDBRANCH   8   7
ENDBRANCH   9   8
BRANCH  14  15
ATOM     15  C   UNL     1      -1.131   0.128  24.860  0.00  0.00    +0.085 C 
BRANCH  15  16
ATOM     16  C   UNL     1      -1.001  -0.680  24.756  0.00  0.00    +0.226 C 
ATOM     17  O   UNL     1      -0.230  -0.973  24.713  0.00  0.00    -0.275 OA
ATOM     18  N   UNL     1      -1.641  -1.197  24.694  0.00  0.00    -0.277 N 
ATOM     19  C   UNL     1      -1.511  -2.004  24.590  0.00  0.00    +0.111 C 
ATOM     20  C   UNL     1      -2.153  -2.521  24.528  0.00  0.00    +0.094 C 
ATOM     21  N   UNL     1      -2.923  -2.229  24.570  0.00  0.00    -0.269 NA
ATOM     22  C   UNL     1      -3.564  -2.745  24.509  0.00  0.00    +0.090 C 
ATOM     23  C   UNL     1      -3.052  -1.420  24.675  0.00  0.00    +0.094 C 
ATOM     24  C   UNL     1      -2.412  -0.904  24.736  0.00  0.00    +0.111 C 
ENDBRANCH  15  16
ENDBRANCH  14  15
TORSDOF 7
ENDMDL
MODEL 8
REMARK VINA RESULT:      -9.1      2.048      4.931
REMARK  Name = 
REMARK  7 active torsions:
REMARK  status: ('A' for Active; 'I' for Inactive)
REMARK    1  A    between atoms: C_2  and  C_3
REMARK    2  A    between atoms: C_3  and  C_4
REMARK    3  A    between atoms: C_4  and  C_5
REMARK    4  A    between atoms: C_7  and  C_8
REMARK    5  A    between atoms: C_8  and  C_9
REMARK    6  A    between atoms: C_14  and  C_15
REMARK    7  A    between atoms: C_15  and  C_16
REMARK                            x       y       z     vdW  Elec       q    Type
REMARK                         _______ _______ _______ _____ _____    ______ ____
ROOT
ATOM      9  C   UNL     1      -1.378   2.586  25.039  0.00  0.00    +0.024 C 
ATOM     10  C   UNL     1      -1.095   3.275  25.392  0.00  0.00    +0.089 C 
ATOM     11  N   UNL     1      -0.464   3.239  25.923  0.00  0.00    -0.218 NA
ATOM     12  C   UNL     1      -0.116   2.512  26.100  0.00  0.00    +0.089 C 
ATOM     13  C   UNL     1      -0.399   1.821  25.746  0.00  0.00    +0.019 C 
ATOM     14  C   UNL     1      -1.030   1.858  25.216  0.00  0.00    +0.012 C 
ENDROOT
BRANCH   9   8
ATOM      8  C   UNL     1      -2.009   2.622  24.508  0.00  0.00    +0.051 C 
BRANCH   8   7
ATOM      5  C   UNL     1      -3.887   3.486  25.040  0.00  0.00    +0.154 A 
ATOM      6  C   UNL     1      -3.399   2.827  24.938  0.00  0.00    +0.054 A 
ATOM      7  C   UNL     1      -2.663   3.094  24.679  0.00  0.00    +0.100 A 
ATOM     25  N   UNL     1      -2.695   3.916  24.621  0.00  0.00    -0.082 NA
ATOM     26  O   UNL     1      -3.451   4.158  24.844  0.00  0.00    -0.358 OA
BRANCH   5   4
ATOM      4  C   UNL     1      -4.672   3.473  25.294  0.00  0.00    +0.067 C 
BRANCH   4   3
ATOM      3  C   UNL     1      -5.037   2.755  25.471  0.00  0.00    +0.008 C 
BRANCH   3   2
ATOM      1  C   UNL     1      -6.186   2.027  25.908  0.00  0.00    +0.000 C 
ATOM      2  C   UNL     1      -5.801   2.746  25.781  0.00  0.00    +0.000 C 
ENDBRANCH   3   2
ENDBRANCH   4   3
ENDBRANCH   5   4
ENDBRANCH   8   7
ENDBRANCH   9   8
BRANCH  14  15
ATOM     15  C   UNL     1      -1.313   1.168  24.863  0.00  0.00    +0.085 C 
BRANCH  15  16
ATOM     16  C   UNL     1      -0.795   0.547  24.699  0.00  0.00    +0.226 C 
ATOM     17  O   UNL     1       0.007   0.700  24.574  0.00  0.00    -0.275 OA
ATOM     18  N   UNL     1      -1.078  -0.227  24.659  0.00  0.00    -0.277 N 
ATOM     19  C   UNL     1      -0.561  -0.847  24.495  0.00  0.00    +0.111 C 
ATOM     20  C   UNL     1      -0.845  -1.621  24.455  0.00  0.00    +0.094 C 
ATOM     21  N   UNL     1      -1.646  -1.774  24.580  0.00  0.00    -0.269 NA
ATOM     22  C   UNL     1      -1.930  -2.548  24.540  0.00  0.00    +0.090 C 
ATOM     23  C   UNL     1      -2.163  -1.152  24.744  0.00  0.00    +0.094 C 
ATOM     24  C   UNL     1      -1.880  -0.379  24.784  0.00  0.00    +0.111 C 
ENDBRANCH  15  16
ENDBRANCH  14  15
TORSDOF 7
ENDMDL
