MODEL 1
REMARK VINA RESULT:      -8.2      0.000      0.000
REMARK  Name = 
REMARK  5 active torsions:
REMARK  status: ('A' for Active; 'I' for Inactive)
REMARK    1  A    between atoms: O_2  and  C_3
REMARK    2  A    between atoms: C_3  and  C_4
REMARK    3  A    between atoms: C_11  and  C_12
REMARK    4  A    between atoms: C_12  and  O_14
REMARK    5  A    between atoms: N_18  and  C_19
REMARK                            x       y       z     vdW  Elec       q    Type
REMARK                         _______ _______ _______ _____ _____    ______ ____
ROOT
ATOM      4  C   UNL     1      -2.365   0.474  24.959  0.00  0.00    +0.257 C 
ATOM      5  O   UNL     1      -1.765   1.039  24.970  0.00  0.00    -0.272 OA
ATOM      6  N   UNL     1      -3.154   0.712  24.935  0.00  0.00    -0.263 N 
ATOM      7  C   UNL     1      -3.343   1.514  24.922  0.00  0.00    +0.139 C 
ATOM      8  C   UNL     1      -4.133   1.753  24.898  0.00  0.00    +0.072 A 
ATOM      9  C   UNL     1      -4.734   1.187  24.887  0.00  0.00    +0.076 A 
ATOM     10  C   UNL     1      -4.545   0.384  24.900  0.00  0.00    +0.078 C 
ATOM     11  C   UNL     1      -3.755   0.146  24.924  0.00  0.00    +0.181 C 
ATOM     16  N   UNL     1      -5.456   1.584  24.863  0.00  0.00    -0.229 NA
ATOM     17  C   UNL     1      -5.302   2.394  24.859  0.00  0.00    +0.178 A 
ATOM     18  N   UNL     1      -4.484   2.498  24.881  0.00  0.00    -0.313 N 
ENDROOT
BRANCH  18  19
ATOM     19  C   UNL     1      -4.087   3.221  24.885  0.00  0.00    +0.087 C 
ATOM     20  C   UNL     1      -3.856   3.569  24.173  0.00  0.00    +0.025 C 
ATOM     21  C   UNL     1      -3.921   3.597  25.600  0.00  0.00    +0.025 C 
ENDBRANCH  18  19
BRANCH  11  12
ATOM     12  C   UNL     1      -3.567  -0.657  24.937  0.00  0.00    +0.336 C 
ATOM     13  O   UNL     1      -3.365  -1.021  25.649  0.00  0.00    -0.248 OA
BRANCH  12  14
ATOM     14  O   UNL     1      -3.581  -1.095  24.238  0.00  0.00    -0.443 OA
ATOM     15  C   UNL     1      -3.989  -1.813  24.210  0.00  0.00    +0.256 C 
ENDBRANCH  12  14
ENDBRANCH  11  12
BRANCH   4   3
ATOM      3  C   UNL     1      -2.176  -0.329  24.972  0.00  0.00    +0.227 C 
BRANCH   3   2
ATOM      1  C   UNL     1      -0.876  -0.835  24.661  0.00  0.00    +0.175 C 
ATOM      2  O   UNL     1      -1.427  -0.573  25.216  0.00  0.00    -0.342 OA
ENDBRANCH   3   2
ENDBRANCH   4   3
TORSDOF 5
ENDMDL
MODEL 2
REMARK VINA RESULT:      -8.1      1.604      3.938
REMARK  Name = 
REMARK  5 active torsions:
REMARK  status: ('A' for Active; 'I' for Inactive)
REMARK    1  A    between atoms: O_2  and  C_3
REMARK    2  A    between atoms: C_3  and  C_4
REMARK    3  A    between atoms: C_11  and  C_12
REMARK    4  A    between atoms: C_12  and  O_14
REMARK    5  A    between atoms: N_18  and  C_19
REMARK                            x       y       z     vdW  Elec       q    Type
REMARK                         _______ _______ _______ _____ _____    ______ ____
ROOT
ATOM      4  C   UNL     1      -4.511   1.762  24.995  0.00  0.00    +0.257 C 
ATOM      5  O   UNL     1      -5.203   1.346  25.168  0.00  0.00    -0.272 OA
ATOM      6  N   UNL     1      -3.813   1.353  24.839  0.00  0.00    -0.263 N 
ATOM      7  C   UNL     1      -3.805   0.528  24.856  0.00  0.00    +0.139 C 
ATOM      8  C   UNL     1      -3.106   0.118  24.700  0.00  0.00    +0.072 A 
ATOM      9  C   UNL     1      -2.415   0.534  24.527  0.00  0.00    +0.076 A 
ATOM     10  C   UNL     1      -2.422   1.359  24.510  0.00  0.00    +0.078 C 
ATOM     11  C   UNL     1      -3.122   1.768  24.666  0.00  0.00    +0.181 C 
ATOM     16  N   UNL     1      -1.813  -0.015  24.397  0.00  0.00    -0.229 NA
ATOM     17  C   UNL     1      -2.133  -0.770  24.489  0.00  0.00    +0.178 A 
ATOM     18  N   UNL     1      -2.932  -0.687  24.676  0.00  0.00    -0.313 N 
ENDROOT
BRANCH  18  19
ATOM     19  C   UNL     1      -3.463  -1.302  24.816  0.00  0.00    +0.087 C 
ATOM     20  C   UNL     1      -3.909  -1.611  24.194  0.00  0.00    +0.025 C 
ATOM     21  C   UNL     1      -3.550  -1.609  25.577  0.00  0.00    +0.025 C 
ENDBRANCH  18  19
BRANCH  11  12
ATOM     12  C   UNL     1      -3.128   2.593  24.649  0.00  0.00    +0.336 C 
ATOM     13  O   UNL     1      -3.442   2.989  23.996  0.00  0.00    -0.248 OA
BRANCH  12  14
ATOM     14  O   UNL     1      -2.823   3.021  25.284  0.00  0.00    -0.443 OA
ATOM     15  C   UNL     1      -2.292   3.638  25.148  0.00  0.00    +0.256 C 
ENDBRANCH  12  14
ENDBRANCH  11  12
BRANCH   4   3
ATOM      3  C   UNL     1      -4.520   2.587  24.979  0.00  0.00    +0.227 C 
BRANCH   3   2
ATOM      1  C   UNL     1      -5.533   3.363  25.621  0.00  0.00    +0.175 C 
ATOM      2  O   UNL     1      -5.237   2.992  24.946  0.00  0.00    -0.342 OA
ENDBRANCH   3   2
ENDBRANCH   4   3
TORSDOF 5
ENDMDL
MODEL 3
REMARK VINA RESULT:      -7.7      2.156      3.236
REMARK  Name = 
REMARK  5 active torsions:
REMARK  status: ('A' for Active; 'I' for Inactive)
REMARK    1  A    between atoms: O_2  and  C_3
REMARK    2  A    between atoms: C_3  and  C_4
REMARK    3  A    between atoms: C_11  and  C_12
REMARK    4  A    between atoms: C_12  and  O_14
REMARK    5  A    between atoms: N_18  and  C_19
REMARK                            x       y       z     vdW  Elec       q    Type
REMARK                         _______ _______ _______ _____ _____    ______ ____
ROOT
ATOM      4  C   UNL     1      -3.288   1.378  24.680  0.00  0.00    +0.257 C 
ATOM      5  O   UNL     1      -2.666   0.855  24.538  0.00  0.00    -0.272 OA
ATOM      6  N   UNL     1      -3.129   2.163  24.876  0.00  0.00    -0.263 N 
ATOM      7  C   UNL     1      -2.349   2.425  24.930  0.00  0.00    +0.139 C 
ATOM      8  C   UNL     1      -2.190   3.211  25.126  0.00  0.00    +0.072 A 
ATOM      9  C   UNL     1      -2.811   3.734  25.268  0.00  0.00    +0.076 A 
ATOM     10  C   UNL     1      -3.593   3.472  25.215  0.00  0.00    +0.078 C 
ATOM     11  C   UNL     1      -3.751   2.687  25.019  0.00  0.00    +0.181 C 
ATOM     16  N   UNL     1      -2.488   4.471  25.449  0.00  0.00    -0.229 NA
ATOM     17  C   UNL     1      -1.667   4.403  25.418  0.00  0.00    +0.178 A 
ATOM     18  N   UNL     1      -1.483   3.625  25.218  0.00  0.00    -0.313 N 
ENDROOT
BRANCH  18  19
ATOM     19  C   UNL     1      -0.724   3.314  25.127  0.00  0.00    +0.087 C 
ATOM     20  C   UNL     1      -0.335   2.980  25.773  0.00  0.00    +0.025 C 
ATOM     21  C   UNL     1      -0.354   3.337  24.390  0.00  0.00    +0.025 C 
ENDBRANCH  18  19
BRANCH  11  12
ATOM     12  C   UNL     1      -4.531   2.425  24.965  0.00  0.00    +0.336 C 
ATOM     13  O   UNL     1      -4.884   2.330  24.225  0.00  0.00    -0.248 OA
BRANCH  12  14
ATOM     14  O   UNL     1      -4.959   2.259  25.651  0.00  0.00    -0.443 OA
ATOM     15  C   UNL     1      -5.719   2.566  25.747  0.00  0.00    +0.256 C 
ENDBRANCH  12  14
ENDBRANCH  11  12
BRANCH   4   3
ATOM      3  C   UNL     1      -4.068   1.116  24.627  0.00  0.00    +0.227 C 
BRANCH   3   2
ATOM      1  C   UNL     1      -4.331  -0.288  24.682  0.00  0.00    +0.175 C 
ATOM      2  O   UNL     1      -4.239   0.406  24.244  0.00  0.00    -0.342 OA
ENDBRANCH   3   2
ENDBRANCH   4   3
TORSDOF 5
ENDMDL
MODEL 4
REMARK VINA RESULT:      -7.7      1.634      3.386
REMARK  Name = 
REMARK  5 active torsions:
REMARK  status: ('A' for Active; 'I' for Inactive)
REMARK    1  A    between atoms: O_2  and  C_3
REMARK    2  A    between atoms: C_3  and  C_4
REMARK    3  A    between atoms: C_11  and  C_12
REMARK    4  A    between atoms: C_12  and  O_14
REMARK    5  A    between atoms: N_18  and  C_19
REMARK                            x       y       z     vdW  Elec       q    Type
REMARK                         _______ _______ _______ _____ _____    ______ ____
ROOT
ATOM      4  C   UNL     1      -1.443   0.933  25.256  0.00  0.00    +0.257 C 
ATOM      5  O   UNL     1      -0.949   0.385  25.623  0.00  0.00    -0.272 OA
ATOM      6  N   UNL     1      -2.163   0.690  24.935  0.00  0.00    -0.263 N 
ATOM      7  C   UNL     1      -2.388  -0.102  24.982  0.00  0.00    +0.139 C 
ATOM      8  C   UNL     1      -3.108  -0.346  24.661  0.00  0.00    +0.072 A 
ATOM      9  C   UNL     1      -3.603   0.203  24.294  0.00  0.00    +0.076 A 
ATOM     10  C   UNL     1      -3.377   0.996  24.247  0.00  0.00    +0.078 C 
ATOM     11  C   UNL     1      -2.657   1.238  24.568  0.00  0.00    +0.181 C 
ATOM     16  N   UNL     1      -4.274  -0.196  24.030  0.00  0.00    -0.229 NA
ATOM     17  C   UNL     1      -4.196  -0.991  24.234  0.00  0.00    +0.178 A 
ATOM     18  N   UNL     1      -3.475  -1.083  24.624  0.00  0.00    -0.313 N 
ENDROOT
BRANCH  18  19
ATOM     19  C   UNL     1      -3.173  -1.790  24.925  0.00  0.00    +0.087 C 
ATOM     20  C   UNL     1      -3.339  -2.011  25.703  0.00  0.00    +0.025 C 
ATOM     21  C   UNL     1      -2.707  -2.276  24.449  0.00  0.00    +0.025 C 
ENDBRANCH  18  19
BRANCH  11  12
ATOM     12  C   UNL     1      -2.432   2.031  24.520  0.00  0.00    +0.336 C 
ATOM     13  O   UNL     1      -1.878   2.269  23.957  0.00  0.00    -0.248 OA
BRANCH  12  14
ATOM     14  O   UNL     1      -2.760   2.585  25.036  0.00  0.00    -0.443 OA
ATOM     15  C   UNL     1      -3.070   3.290  24.740  0.00  0.00    +0.256 C 
ENDBRANCH  12  14
ENDBRANCH  11  12
BRANCH   4   3
ATOM      3  C   UNL     1      -1.217   1.725  25.209  0.00  0.00    +0.227 C 
BRANCH   3   2
ATOM      1  C   UNL     1      -0.225   2.341  26.034  0.00  0.00    +0.175 C 
ATOM      2  O   UNL     1      -0.432   1.939  25.343  0.00  0.00    -0.342 OA
ENDBRANCH   3   2
ENDBRANCH   4   3
TORSDOF 5
ENDMDL
MODEL 5
REMARK VINA RESULT:      -7.6      1.099      2.155
REMARK  Name = 
REMARK  5 active torsions:
REMARK  status: ('A' for Active; 'I' for Inactive)
REMARK    1  A    between atoms: O_2  and  C_3
REMARK    2  A    between atoms: C_3  and  C_4
REMARK    3  A    between atoms: C_11  and  C_12
REMARK    4  A    between atoms: C_12  and  O_14
REMARK    5  A    between atoms: N_18  and  C_19
REMARK                            x       y       z     vdW  Elec       q    Type
REMARK                         _______ _______ _______ _____ _____    ______ ____
ROOT
ATOM      4  C   UNL     1      -3.504  -0.380  24.696  0.00  0.00    +0.257 C 
ATOM      5  O   UNL     1      -4.286  -0.305  24.441  0.00  0.00    -0.272 OA
ATOM      6  N   UNL     1      -3.034   0.291  24.787  0.00  0.00    -0.263 N 
ATOM      7  C   UNL     1      -3.345   1.037  24.625  0.00  0.00    +0.139 C 
ATOM      8  C   UNL     1      -2.874   1.709  24.716  0.00  0.00    +0.072 A 
ATOM      9  C   UNL     1      -2.093   1.634  24.971  0.00  0.00    +0.076 A 
ATOM     10  C   UNL     1      -1.782   0.887  25.134  0.00  0.00    +0.078 C 
ATOM     11  C   UNL     1      -2.253   0.216  25.042  0.00  0.00    +0.181 C 
ATOM     16  N   UNL     1      -1.764   2.389  25.011  0.00  0.00    -0.229 NA
ATOM     17  C   UNL     1      -2.341   2.931  24.781  0.00  0.00    +0.178 A 
ATOM     18  N   UNL     1      -3.027   2.511  24.599  0.00  0.00    -0.313 N 
ENDROOT
BRANCH  18  19
ATOM     19  C   UNL     1      -3.742   2.835  24.345  0.00  0.00    +0.087 C 
ATOM     20  C   UNL     1      -3.881   2.945  23.539  0.00  0.00    +0.025 C 
ATOM     21  C   UNL     1      -4.317   3.051  24.896  0.00  0.00    +0.025 C 
ENDBRANCH  18  19
BRANCH  11  12
ATOM     12  C   UNL     1      -1.942  -0.531  25.204  0.00  0.00    +0.336 C 
ATOM     13  O   UNL     1      -2.134  -0.912  25.911  0.00  0.00    -0.248 OA
BRANCH  12  14
ATOM     14  O   UNL     1      -1.439  -0.896  24.662  0.00  0.00    -0.443 OA
ATOM     15  C   UNL     1      -0.720  -1.212  24.914  0.00  0.00    +0.256 C 
ENDBRANCH  12  14
ENDBRANCH  11  12
BRANCH   4   3
ATOM      3  C   UNL     1      -3.194  -1.127  24.858  0.00  0.00    +0.227 C 
BRANCH   3   2
ATOM      1  C   UNL     1      -3.741  -2.353  24.367  0.00  0.00    +0.175 C 
ATOM      2  O   UNL     1      -3.699  -1.772  24.952  0.00  0.00    -0.342 OA
ENDBRANCH   3   2
ENDBRANCH   4   3
TORSDOF 5
ENDMDL
