MODEL 1
REMARK VINA RESULT:      -9.4      0.000      0.000
REMARK  Name = 
REMARK  4 active torsions:
REMARK  status: ('A' for Active; 'I' for Inactive)
REMARK    1  A    between atoms: N_2  and  C_4
REMARK    2  A    between atoms: C_7  and  C_8
REMARK    3  A    between atoms: C_8  and  N_9
REMARK    4  A    between atoms: N_12  and  C_13
REMARK                            x       y       z     vdW  Elec       q    Type
REMARK                         _______ _______ _______ _____ _____    ______ ____
ROOT
ATOM      8  C   UNL     1      -2.937   1.422  24.493  0.00  0.00    +0.149 C 
ENDROOT
BRANCH   8   7
ATOM      4  C   UNL     1      -2.832   3.467  25.101  0.00  0.00    +0.121 C 
ATOM      5  C   UNL     1      -3.541   3.461  24.680  0.00  0.00    +0.161 C 
ATOM      6  O   UNL     1      -3.666   2.695  24.401  0.00  0.00    -0.350 OA
ATOM      7  C   UNL     1      -3.035   2.227  24.649  0.00  0.00    +0.169 C 
ATOM     19  C   UNL     1      -2.519   2.703  25.083  0.00  0.00    +0.198 C 
ATOM     20  O   UNL     1      -1.814   2.458  25.435  0.00  0.00    -0.219 OA
BRANCH   4   2
ATOM      1  C   UNL     1      -2.775   4.362  26.213  0.00  0.00    +0.090 C 
ATOM      2  N   UNL     1      -2.494   4.119  25.476  0.00  0.00    -0.267 NA
ATOM      3  C   UNL     1      -1.876   4.529  25.115  0.00  0.00    +0.090 C 
ENDBRANCH   4   2
ENDBRANCH   8   7
BRANCH   8   9
ATOM      9  N   UNL     1      -3.546   0.892  24.662  0.00  0.00    -0.184 NA
ATOM     10  C   UNL     1      -3.433   0.084  24.541  0.00  0.00    +0.344 C 
ATOM     11  O   UNL     1      -2.714  -0.194  24.251  0.00  0.00    -0.249 OA
ATOM     12  N   UNL     1      -4.043  -0.447  24.710  0.00  0.00    -0.161 NA
BRANCH  12  13
ATOM     13  C   UNL     1      -3.930  -1.255  24.588  0.00  0.00    +0.075 A 
ATOM     14  C   UNL     1      -4.213  -1.612  23.899  0.00  0.00    +0.017 A 
ATOM     15  C   UNL     1      -4.101  -2.420  23.778  0.00  0.00    +0.001 A 
ATOM     16  C   UNL     1      -3.707  -2.871  24.344  0.00  0.00    +0.000 A 
ATOM     17  C   UNL     1      -3.424  -2.515  25.033  0.00  0.00    +0.001 A 
ATOM     18  C   UNL     1      -3.536  -1.706  25.154  0.00  0.00    +0.017 A 
ENDBRANCH  12  13
ENDBRANCH   8   9
TORSDOF 4
ENDMDL
MODEL 2
REMARK VINA RESULT:      -8.8      1.306      5.316
REMARK  Name = 
REMARK  4 active torsions:
REMARK  status: ('A' for Active; 'I' for Inactive)
REMARK    1  A    between atoms: N_2  and  C_4
REMARK    2  A    between atoms: C_7  and  C_8
REMARK    3  A    between atoms: C_8  and  N_9
REMARK    4  A    between atoms: N_12  and  C_13
REMARK                            x       y       z     vdW  Elec       q    Type
REMARK                         _______ _______ _______ _____ _____    ______ ____
ROOT
ATOM      8  C   UNL     1      -2.071   0.950  24.826  0.00  0.00    +0.149 C 
ENDROOT
BRANCH   8   7
ATOM      4  C   UNL     1      -2.324  -1.160  25.045  0.00  0.00    +0.121 C 
ATOM      5  C   UNL     1      -1.724  -1.013  25.592  0.00  0.00    +0.161 C 
ATOM      6  O   UNL     1      -1.556  -0.206  25.576  0.00  0.00    -0.350 OA
ATOM      7  C   UNL     1      -2.053   0.147  25.020  0.00  0.00    +0.169 C 
ATOM     19  C   UNL     1      -2.528  -0.442  24.691  0.00  0.00    +0.198 C 
ATOM     20  O   UNL     1      -3.104  -0.332  24.111  0.00  0.00    -0.219 OA
BRANCH   4   2
ATOM      1  C   UNL     1      -2.264  -2.431  24.396  0.00  0.00    +0.090 C 
ATOM      2  N   UNL     1      -2.663  -1.893  24.880  0.00  0.00    -0.267 NA
ATOM      3  C   UNL     1      -3.398  -2.090  25.196  0.00  0.00    +0.090 C 
ENDBRANCH   4   2
ENDBRANCH   8   7
BRANCH   8   9
ATOM      9  N   UNL     1      -1.751   1.506  25.345  0.00  0.00    -0.184 NA
ATOM     10  C   UNL     1      -1.741   2.304  25.137  0.00  0.00    +0.344 C 
ATOM     11  O   UNL     1      -2.051   2.545  24.412  0.00  0.00    -0.249 OA
ATOM     12  N   UNL     1      -1.421   2.861  25.655  0.00  0.00    -0.161 NA
BRANCH  12  13
ATOM     13  C   UNL     1      -1.412   3.659  25.447  0.00  0.00    +0.075 A 
ATOM     14  C   UNL     1      -0.754   3.977  25.062  0.00  0.00    +0.017 A 
ATOM     15  C   UNL     1      -0.745   4.775  24.854  0.00  0.00    +0.001 A 
ATOM     16  C   UNL     1      -1.391   5.255  25.031  0.00  0.00    +0.000 A 
ATOM     17  C   UNL     1      -2.048   4.938  25.415  0.00  0.00    +0.001 A 
ATOM     18  C   UNL     1      -2.058   4.139  25.624  0.00  0.00    +0.017 A 
ENDBRANCH  12  13
ENDBRANCH   8   9
TORSDOF 4
ENDMDL
