MODEL 1
REMARK VINA RESULT:     -10.5      0.000      0.000
REMARK  Name = 
REMARK  7 active torsions:
REMARK  status: ('A' for Active; 'I' for Inactive)
REMARK    1  A    between atoms: C_5  and  S_8
REMARK    2  A    between atoms: S_8  and  N_11
REMARK    3  A    between atoms: N_11  and  C_12
REMARK    4  A    between atoms: C_12  and  C_13
REMARK    5  A    between atoms: C_16  and  N_17
REMARK    6  A    between atoms: N_17  and  C_18
REMARK    7  A    between atoms: C_18  and  C_19
REMARK                            x       y       z     vdW  Elec       q    Type
REMARK                         _______ _______ _______ _____ _____    ______ ____
ROOT
ATOM     13  C   UNL     1      -4.016   1.841  24.761  0.00  0.00    +0.166 C 
ATOM     14  O   UNL     1      -4.607   1.664  25.308  0.00  0.00    -0.350 OA
ATOM     15  C   UNL     1      -4.788   0.863  25.237  0.00  0.00    +0.162 C 
ATOM     16  C   UNL     1      -4.308   0.544  24.646  0.00  0.00    +0.135 C 
ATOM     26  C   UNL     1      -3.831   1.149  24.352  0.00  0.00    +0.199 C 
ATOM     27  O   UNL     1      -3.268   1.075  23.754  0.00  0.00    -0.219 OA
ENDROOT
BRANCH  13  12
ATOM     12  C   UNL     1      -3.670   2.581  24.644  0.00  0.00    +0.148 C 
BRANCH  12  11
ATOM     11  N   UNL     1      -3.418   3.026  25.291  0.00  0.00    -0.075 NA
BRANCH  11   8
ATOM      8  S   UNL     1      -2.806   3.573  25.202  0.00  0.00    +0.077 S 
ATOM      9  O   UNL     1      -3.254   3.985  24.646  0.00  0.00    -0.152 OA
ATOM     10  O   UNL     1      -2.357   3.161  25.759  0.00  0.00    -0.152 OA
BRANCH   8   5
ATOM      1  C   UNL     1      -0.360   5.760  24.849  0.00  0.00    +0.031 C 
ATOM      2  C   UNL     1      -0.972   5.213  24.937  0.00  0.00    -0.022 A 
ATOM      3  C   UNL     1      -1.734   5.472  25.120  0.00  0.00    -0.003 A 
ATOM      4  C   UNL     1      -2.345   4.926  25.208  0.00  0.00    +0.020 A 
ATOM      5  C   UNL     1      -2.195   4.119  25.114  0.00  0.00    +0.124 A 
ATOM      6  C   UNL     1      -1.433   3.861  24.932  0.00  0.00    +0.020 A 
ATOM      7  C   UNL     1      -0.822   4.408  24.843  0.00  0.00    -0.003 A 
ENDBRANCH   8   5
ENDBRANCH  11   8
ENDBRANCH  12  11
ENDBRANCH  13  12
BRANCH  16  17
ATOM     17  N   UNL     1      -4.306  -0.242  24.394  0.00  0.00    -0.209 NA
BRANCH  17  18
ATOM     18  C   UNL     1      -4.087  -0.842  24.917  0.00  0.00    +0.118 C 
BRANCH  18  19
ATOM     19  C   UNL     1      -3.966  -1.608  24.636  0.00  0.00    +0.034 A 
ATOM     20  C   UNL     1      -3.536  -2.149  25.087  0.00  0.00    +0.193 A 
ATOM     21  O   UNL     1      -3.227  -1.924  25.817  0.00  0.00    -0.287 OA
ATOM     22  C   UNL     1      -3.415  -2.915  24.807  0.00  0.00    +0.042 A 
ATOM     23  C   UNL     1      -3.725  -3.141  24.075  0.00  0.00    +0.003 A 
ATOM     24  C   UNL     1      -4.155  -2.600  23.625  0.00  0.00    -0.000 A 
ATOM     25  C   UNL     1      -4.276  -1.834  23.906  0.00  0.00    +0.000 A 
ENDBRANCH  18  19
ENDBRANCH  17  18
ENDBRANCH  16  17
TORSDOF 7
ENDMDL
MODEL 2
REMARK VINA RESULT:     -10.3      1.827      6.209
REMARK  Name = 
REMARK  7 active torsions:
REMARK  status: ('A' for Active; 'I' for Inactive)
REMARK    1  A    between atoms: C_5  and  S_8
REMARK    2  A    between atoms: S_8  and  N_11
REMARK    3  A    between atoms: N_11  and  C_12
REMARK    4  A    between atoms: C_12  and  C_13
REMARK    5  A    between atoms: C_16  and  N_17
REMARK    6  A    between atoms: N_17  and  C_18
REMARK    7  A    between atoms: C_18  and  C_19
REMARK                            x       y       z     vdW  Elec       q    Type
REMARK                         _______ _______ _______ _____ _____    ______ ____
ROOT
ATOM     13  C   UNL     1      -1.201   0.675  25.082  0.00  0.00    +0.166 C 
ATOM     14  O   UNL     1      -0.819   0.790  25.804  0.00  0.00    -0.350 OA
ATOM     15  C   UNL     1      -0.632   1.591  25.869  0.00  0.00    +0.162 C 
ATOM     16  C   UNL     1      -0.899   1.971  25.187  0.00  0.00    +0.135 C 
ATOM     26  C   UNL     1      -1.250   1.406  24.701  0.00  0.00    +0.199 C 
ATOM     27  O   UNL     1      -1.591   1.545  23.963  0.00  0.00    -0.219 OA
ENDROOT
BRANCH  13  12
ATOM     12  C   UNL     1      -1.484  -0.043  24.792  0.00  0.00    +0.148 C 
BRANCH  12  11
ATOM     11  N   UNL     1      -1.887  -0.559  25.293  0.00  0.00    -0.075 NA
BRANCH  11   8
ATOM      8  S   UNL     1      -2.423  -1.104  24.979  0.00  0.00    +0.077 S 
ATOM      9  O   UNL     1      -1.826  -1.416  24.502  0.00  0.00    -0.152 OA
ATOM     10  O   UNL     1      -3.019  -0.792  25.456  0.00  0.00    -0.152 OA
BRANCH   8   5
ATOM      1  C   UNL     1      -4.563  -3.281  23.726  0.00  0.00    +0.031 C 
ATOM      2  C   UNL     1      -4.027  -2.736  24.040  0.00  0.00    -0.022 A 
ATOM      3  C   UNL     1      -4.157  -1.927  23.940  0.00  0.00    -0.003 A 
ATOM      4  C   UNL     1      -3.622  -1.383  24.254  0.00  0.00    +0.020 A 
ATOM      5  C   UNL     1      -2.957  -1.648  24.666  0.00  0.00    +0.124 A 
ATOM      6  C   UNL     1      -2.829  -2.457  24.765  0.00  0.00    +0.020 A 
ATOM      7  C   UNL     1      -3.364  -3.001  24.451  0.00  0.00    -0.003 A 
ENDBRANCH   8   5
ENDBRANCH  11   8
ENDBRANCH  12  11
ENDBRANCH  13  12
BRANCH  16  17
ATOM     17  N   UNL     1      -0.826   2.776  25.021  0.00  0.00    -0.209 NA
BRANCH  17  18
ATOM     18  C   UNL     1      -1.182   3.334  25.515  0.00  0.00    +0.118 C 
BRANCH  18  19
ATOM     19  C   UNL     1      -1.207   4.127  25.291  0.00  0.00    +0.034 A 
ATOM     20  C   UNL     1      -1.855   4.594  25.497  0.00  0.00    +0.193 A 
ATOM     21  O   UNL     1      -2.478   4.267  25.927  0.00  0.00    -0.287 OA
ATOM     22  C   UNL     1      -1.880   5.387  25.273  0.00  0.00    +0.042 A 
ATOM     23  C   UNL     1      -1.256   5.714  24.842  0.00  0.00    +0.003 A 
ATOM     24  C   UNL     1      -0.608   5.247  24.637  0.00  0.00    -0.000 A 
ATOM     25  C   UNL     1      -0.584   4.454  24.861  0.00  0.00    +0.000 A 
ENDBRANCH  18  19
ENDBRANCH  17  18
ENDBRANCH  16  17
TORSDOF 7
ENDMDL
MODEL 3
REMARK VINA RESULT:      -9.9      1.159      5.916
REMARK  Name = 
REMARK  7 active torsions:
REMARK  status: ('A' for Active; 'I' for Inactive)
REMARK    1  A    between atoms: C_5  and  S_8
REMARK    2  A    between atoms: S_8  and  N_11
REMARK    3  A    between atoms: N_11  and  C_12
REMARK    4  A    between atoms: C_12  and  C_13
REMARK    5  A    between atoms: C_16  and  N_17
REMARK    6  A    between atoms: N_17  and  C_18
REMARK    7  A    between atoms: C_18  and  C_19
REMARK                            x       y       z     vdW  Elec       q    Type
REMARK                         _______ _______ _______ _____ _____    ______ ____
ROOT
ATOM     13  C   UNL     1      -3.919   1.702  24.679  0.00  0.00    +0.166 C 
ATOM     14  O   UNL     1      -4.289   2.084  25.309  0.00  0.00    -0.350 OA
ATOM     15  C   UNL     1      -3.942   2.827  25.395  0.00  0.00    +0.162 C 
ATOM     16  C   UNL     1      -3.358   2.905  24.818  0.00  0.00    +0.135 C 
ATOM     26  C   UNL     1      -3.343   2.209  24.375  0.00  0.00    +0.199 C 
ATOM     27  O   UNL     1      -2.841   2.049  23.741  0.00  0.00    -0.219 OA
ENDROOT
BRANCH  13  12
ATOM     12  C   UNL     1      -4.093   0.945  24.401  0.00  0.00    +0.148 C 
BRANCH  12  11
ATOM     11  N   UNL     1      -4.358   0.365  24.924  0.00  0.00    -0.075 NA
BRANCH  11   8
ATOM      8  S   UNL     1      -4.184  -0.430  24.781  0.00  0.00    +0.077 S 
ATOM      9  O   UNL     1      -4.382  -0.331  23.987  0.00  0.00    -0.152 OA
ATOM     10  O   UNL     1      -3.986  -0.529  25.576  0.00  0.00    -0.152 OA
BRANCH   8   5
ATOM      1  C   UNL     1      -3.487  -3.605  24.214  0.00  0.00    +0.031 C 
ATOM      2  C   UNL     1      -3.661  -2.810  24.356  0.00  0.00    -0.022 A 
ATOM      3  C   UNL     1      -3.337  -2.428  25.012  0.00  0.00    -0.003 A 
ATOM      4  C   UNL     1      -3.512  -1.635  25.154  0.00  0.00    +0.020 A 
ATOM      5  C   UNL     1      -4.010  -1.223  24.640  0.00  0.00    +0.124 A 
ATOM      6  C   UNL     1      -4.333  -1.606  23.985  0.00  0.00    +0.020 A 
ATOM      7  C   UNL     1      -4.159  -2.400  23.843  0.00  0.00    -0.003 A 
ENDBRANCH   8   5
ENDBRANCH  11   8
ENDBRANCH  12  11
ENDBRANCH  13  12
BRANCH  16  17
ATOM     17  N   UNL     1      -2.873   3.563  24.704  0.00  0.00    -0.209 NA
BRANCH  17  18
ATOM     18  C   UNL     1      -2.256   3.718  25.230  0.00  0.00    +0.118 C 
BRANCH  18  19
ATOM     19  C   UNL     1      -1.767   4.371  25.111  0.00  0.00    +0.034 A 
ATOM     20  C   UNL     1      -0.947   4.280  25.127  0.00  0.00    +0.193 A 
ATOM     21  O   UNL     1      -0.617   3.537  25.263  0.00  0.00    -0.287 OA
ATOM     22  C   UNL     1      -0.458   4.933  25.008  0.00  0.00    +0.042 A 
ATOM     23  C   UNL     1      -0.788   5.678  24.872  0.00  0.00    +0.003 A 
ATOM     24  C   UNL     1      -1.608   5.767  24.855  0.00  0.00    -0.000 A 
ATOM     25  C   UNL     1      -2.097   5.114  24.975  0.00  0.00    +0.000 A 
ENDBRANCH  18  19
ENDBRANCH  17  18
ENDBRANCH  16  17
TORSDOF 7
ENDMDL
MODEL 4
REMARK VINA RESULT:      -9.7      1.736      2.065
REMARK  Name = 
REMARK  7 active torsions:
REMARK  status: ('A' for Active; 'I' for Inactive)
REMARK    1  A    between atoms: C_5  and  S_8
REMARK    2  A    between atoms: S_8  and  N_11
REMARK    3  A    between atoms: N_11  and  C_12
REMARK    4  A    between atoms: C_12  and  C_13
REMARK    5  A    between atoms: C_16  and  N_17
REMARK    6  A    between atoms: N_17  and  C_18
REMARK    7  A    between atoms: C_18  and  C_19
REMARK                            x       y       z     vdW  Elec       q    Type
REMARK                         _______ _______ _______ _____ _____    ______ ____
ROOT
ATOM     13  C   UNL     1      -1.074   0.767  25.243  0.00  0.00    +0.166 C 
ATOM     14  O   UNL     1      -1.036   0.345  25.951  0.00  0.00    -0.350 OA
ATOM     15  C   UNL     1      -1.413  -0.379  25.837  0.00  0.00    +0.162 C 
ATOM     16  C   UNL     1      -1.683  -0.406  25.058  0.00  0.00    +0.135 C 
ATOM     26  C   UNL     1      -1.474   0.302  24.691  0.00  0.00    +0.199 C 
ATOM     27  O   UNL     1      -1.635   0.509  23.909  0.00  0.00    -0.219 OA
ENDROOT
BRANCH  13  12
ATOM     12  C   UNL     1      -0.766   1.520  25.110  0.00  0.00    +0.148 C 
BRANCH  12  11
ATOM     11  N   UNL     1      -0.772   2.081  25.715  0.00  0.00    -0.075 NA
BRANCH  11   8
ATOM      8  S   UNL     1      -0.908   2.876  25.539  0.00  0.00    +0.077 S 
ATOM      9  O   UNL     1      -1.498   2.903  26.114  0.00  0.00    -0.152 OA
ATOM     10  O   UNL     1      -0.317   2.850  24.963  0.00  0.00    -0.152 OA
BRANCH   8   5
ATOM      1  C   UNL     1      -1.449   6.055  24.836  0.00  0.00    +0.031 C 
ATOM      2  C   UNL     1      -1.314   5.259  25.012  0.00  0.00    -0.022 A 
ATOM      3  C   UNL     1      -1.902   4.812  25.379  0.00  0.00    -0.003 A 
ATOM      4  C   UNL     1      -1.767   4.018  25.555  0.00  0.00    +0.020 A 
ATOM      5  C   UNL     1      -1.043   3.670  25.363  0.00  0.00    +0.124 A 
ATOM      6  C   UNL     1      -0.455   4.118  24.996  0.00  0.00    +0.020 A 
ATOM      7  C   UNL     1      -0.591   4.912  24.820  0.00  0.00    -0.003 A 
ENDBRANCH   8   5
ENDBRANCH  11   8
ENDBRANCH  12  11
ENDBRANCH  13  12
BRANCH  16  17
ATOM     17  N   UNL     1      -2.091  -1.033  24.708  0.00  0.00    -0.209 NA
BRANCH  17  18
ATOM     18  C   UNL     1      -2.881  -1.171  24.904  0.00  0.00    +0.118 C 
BRANCH  18  19
ATOM     19  C   UNL     1      -3.280  -1.813  24.574  0.00  0.00    +0.034 A 
ATOM     20  C   UNL     1      -4.035  -1.710  24.256  0.00  0.00    +0.193 A 
ATOM     21  O   UNL     1      -4.389  -0.966  24.267  0.00  0.00    -0.287 OA
ATOM     22  C   UNL     1      -4.434  -2.352  23.927  0.00  0.00    +0.042 A 
ATOM     23  C   UNL     1      -4.080  -3.098  23.915  0.00  0.00    +0.003 A 
ATOM     24  C   UNL     1      -3.326  -3.200  24.234  0.00  0.00    -0.000 A 
ATOM     25  C   UNL     1      -2.926  -2.558  24.563  0.00  0.00    +0.000 A 
ENDBRANCH  18  19
ENDBRANCH  17  18
ENDBRANCH  16  17
TORSDOF 7
ENDMDL
MODEL 5
REMARK VINA RESULT:      -8.9      3.887      5.436
REMARK  Name = 
REMARK  7 active torsions:
REMARK  status: ('A' for Active; 'I' for Inactive)
REMARK    1  A    between atoms: C_5  and  S_8
REMARK    2  A    between atoms: S_8  and  N_11
REMARK    3  A    between atoms: N_11  and  C_12
REMARK    4  A    between atoms: C_12  and  C_13
REMARK    5  A    between atoms: C_16  and  N_17
REMARK    6  A    between atoms: N_17  and  C_18
REMARK    7  A    between atoms: C_18  and  C_19
REMARK                            x       y       z     vdW  Elec       q    Type
REMARK                         _______ _______ _______ _____ _____    ______ ____
ROOT
ATOM     13  C   UNL     1      -0.999   0.486  24.077  0.00  0.00    +0.166 C 
ATOM     14  O   UNL     1      -0.832  -0.318  23.999  0.00  0.00    -0.350 OA
ATOM     15  C   UNL     1      -0.046  -0.394  23.764  0.00  0.00    +0.162 C 
ATOM     16  C   UNL     1       0.274   0.364  23.695  0.00  0.00    +0.135 C 
ATOM     26  C   UNL     1      -0.314   0.908  23.889  0.00  0.00    +0.199 C 
ATOM     27  O   UNL     1      -0.234   1.728  23.894  0.00  0.00    -0.219 OA
ENDROOT
BRANCH  13  12
ATOM     12  C   UNL     1      -1.722   0.812  24.302  0.00  0.00    +0.148 C 
BRANCH  12  11
ATOM     11  N   UNL     1      -2.410   0.361  24.254  0.00  0.00    -0.075 NA
BRANCH  11   8
ATOM      8  S   UNL     1      -3.141   0.701  24.436  0.00  0.00    +0.077 S 
ATOM      9  O   UNL     1      -2.960   0.659  25.240  0.00  0.00    -0.152 OA
ATOM     10  O   UNL     1      -3.322   0.743  23.632  0.00  0.00    -0.152 OA
BRANCH   8   5
ATOM      1  C   UNL     1      -6.058   2.060  25.165  0.00  0.00    +0.031 C 
ATOM      2  C   UNL     1      -5.328   1.720  24.983  0.00  0.00    -0.022 A 
ATOM      3  C   UNL     1      -4.741   2.173  24.621  0.00  0.00    -0.003 A 
ATOM      4  C   UNL     1      -4.012   1.834  24.439  0.00  0.00    +0.020 A 
ATOM      5  C   UNL     1      -3.869   1.040  24.618  0.00  0.00    +0.124 A 
ATOM      6  C   UNL     1      -4.457   0.588  24.979  0.00  0.00    +0.020 A 
ATOM      7  C   UNL     1      -5.186   0.928  25.162  0.00  0.00    -0.003 A 
ENDBRANCH   8   5
ENDBRANCH  11   8
ENDBRANCH  12  11
ENDBRANCH  13  12
BRANCH  16  17
ATOM     17  N   UNL     1       1.048   0.545  23.473  0.00  0.00    -0.209 NA
BRANCH  17  18
ATOM     18  C   UNL     1       1.438   0.077  22.916  0.00  0.00    +0.118 C 
BRANCH  18  19
ATOM     19  C   UNL     1       2.220   0.243  22.712  0.00  0.00    +0.034 A 
ATOM     20  C   UNL     1       2.505   0.033  21.967  0.00  0.00    +0.193 A 
ATOM     21  O   UNL     1       2.009  -0.343  21.426  0.00  0.00    -0.287 OA
ATOM     22  C   UNL     1       3.287   0.200  21.763  0.00  0.00    +0.042 A 
ATOM     23  C   UNL     1       3.784   0.576  22.304  0.00  0.00    +0.003 A 
ATOM     24  C   UNL     1       3.498   0.785  23.049  0.00  0.00    -0.000 A 
ATOM     25  C   UNL     1       2.716   0.619  23.253  0.00  0.00    +0.000 A 
ENDBRANCH  18  19
ENDBRANCH  17  18
ENDBRANCH  16  17
TORSDOF 7
ENDMDL
MODEL 6
REMARK VINA RESULT:      -8.4      4.705      5.418
REMARK  Name = 
REMARK  7 active torsions:
REMARK  status: ('A' for Active; 'I' for Inactive)
REMARK    1  A    between atoms: C_5  and  S_8
REMARK    2  A    between atoms: S_8  and  N_11
REMARK    3  A    between atoms: N_11  and  C_12
REMARK    4  A    between atoms: C_12  and  C_13
REMARK    5  A    between atoms: C_16  and  N_17
REMARK    6  A    between atoms: N_17  and  C_18
REMARK    7  A    between atoms: C_18  and  C_19
REMARK                            x       y       z     vdW  Elec       q    Type
REMARK                         _______ _______ _______ _____ _____    ______ ____
ROOT
ATOM     13  C   UNL     1       0.339   0.231  23.517  0.00  0.00    +0.166 C 
ATOM     14  O   UNL     1      -0.008   0.947  23.300  0.00  0.00    -0.350 OA
ATOM     15  C   UNL     1      -0.782   0.952  23.581  0.00  0.00    +0.162 C 
ATOM     16  C   UNL     1      -0.916   0.238  23.974  0.00  0.00    +0.135 C 
ATOM     26  C   UNL     1      -0.223  -0.208  23.934  0.00  0.00    +0.199 C 
ATOM     27  O   UNL     1      -0.111  -0.959  24.255  0.00  0.00    -0.219 OA
ENDROOT
BRANCH  13  12
ATOM     12  C   UNL     1       1.110  -0.006  23.348  0.00  0.00    +0.148 C 
BRANCH  12  11
ATOM     11  N   UNL     1       1.607   0.487  22.913  0.00  0.00    -0.075 NA
BRANCH  11   8
ATOM      8  S   UNL     1       2.427   0.404  22.971  0.00  0.00    +0.077 S 
ATOM      9  O   UNL     1       2.392  -0.268  22.494  0.00  0.00    -0.152 OA
ATOM     10  O   UNL     1       2.461   1.076  23.449  0.00  0.00    -0.152 OA
BRANCH   8   5
ATOM      1  C   UNL     1       5.701   0.070  23.205  0.00  0.00    +0.031 C 
ATOM      2  C   UNL     1       4.882   0.154  23.147  0.00  0.00    -0.022 A 
ATOM      3  C   UNL     1       4.386  -0.455  23.401  0.00  0.00    -0.003 A 
ATOM      4  C   UNL     1       3.568  -0.372  23.343  0.00  0.00    +0.020 A 
ATOM      5  C   UNL     1       3.244   0.321  23.030  0.00  0.00    +0.124 A 
ATOM      6  C   UNL     1       3.741   0.928  22.776  0.00  0.00    +0.020 A 
ATOM      7  C   UNL     1       4.559   0.845  22.834  0.00  0.00    -0.003 A 
ENDBRANCH   8   5
ENDBRANCH  11   8
ENDBRANCH  12  11
ENDBRANCH  13  12
BRANCH  16  17
ATOM     17  N   UNL     1      -1.619   0.011  24.341  0.00  0.00    -0.209 NA
BRANCH  17  18
ATOM     18  C   UNL     1      -2.298   0.472  24.254  0.00  0.00    +0.118 C 
BRANCH  18  19
ATOM     19  C   UNL     1      -3.006   0.231  24.601  0.00  0.00    +0.034 A 
ATOM     20  C   UNL     1      -3.707   0.633  24.430  0.00  0.00    +0.193 A 
ATOM     21  O   UNL     1      -3.698   1.275  23.912  0.00  0.00    -0.287 OA
ATOM     22  C   UNL     1      -4.415   0.392  24.776  0.00  0.00    +0.042 A 
ATOM     23  C   UNL     1      -4.424  -0.250  25.294  0.00  0.00    +0.003 A 
ATOM     24  C   UNL     1      -3.724  -0.652  25.465  0.00  0.00    -0.000 A 
ATOM     25  C   UNL     1      -3.015  -0.411  25.118  0.00  0.00    +0.000 A 
ENDBRANCH  18  19
ENDBRANCH  17  18
ENDBRANCH  16  17
TORSDOF 7
ENDMDL
MODEL 7
REMARK VINA RESULT:      -8.3      3.606      4.823
REMARK  Name = 
REMARK  7 active torsions:
REMARK  status: ('A' for Active; 'I' for Inactive)
REMARK    1  A    between atoms: C_5  and  S_8
REMARK    2  A    between atoms: S_8  and  N_11
REMARK    3  A    between atoms: N_11  and  C_12
REMARK    4  A    between atoms: C_12  and  C_13
REMARK    5  A    between atoms: C_16  and  N_17
REMARK    6  A    between atoms: N_17  and  C_18
REMARK    7  A    between atoms: C_18  and  C_19
REMARK                            x       y       z     vdW  Elec       q    Type
REMARK                         _______ _______ _______ _____ _____    ______ ____
ROOT
ATOM     13  C   UNL     1      -1.347   0.880  24.074  0.00  0.00    +0.166 C 
ATOM     14  O   UNL     1      -1.500   0.532  24.806  0.00  0.00    -0.350 OA
ATOM     15  C   UNL     1      -2.273   0.721  25.022  0.00  0.00    +0.162 C 
ATOM     16  C   UNL     1      -2.598   1.186  24.423  0.00  0.00    +0.135 C 
ATOM     26  C   UNL     1      -2.026   1.284  23.837  0.00  0.00    +0.199 C 
ATOM     27  O   UNL     1      -2.117   1.710  23.137  0.00  0.00    -0.219 OA
ENDROOT
BRANCH  13  12
ATOM     12  C   UNL     1      -0.639   0.832  23.652  0.00  0.00    +0.148 C 
BRANCH  12  11
ATOM     11  N   UNL     1      -0.027   0.354  23.928  0.00  0.00    -0.075 NA
BRANCH  11   8
ATOM      8  S   UNL     1       0.707   0.363  23.549  0.00  0.00    +0.077 S 
ATOM      9  O   UNL     1       0.559  -0.388  23.243  0.00  0.00    -0.152 OA
ATOM     10  O   UNL     1       0.855   1.115  23.855  0.00  0.00    -0.152 OA
BRANCH   8   5
ATOM      1  C   UNL     1       3.639   0.402  22.035  0.00  0.00    +0.031 C 
ATOM      2  C   UNL     1       2.905   0.392  22.414  0.00  0.00    -0.022 A 
ATOM      3  C   UNL     1       2.311  -0.117  22.149  0.00  0.00    -0.003 A 
ATOM      4  C   UNL     1       1.578  -0.126  22.528  0.00  0.00    +0.020 A 
ATOM      5  C   UNL     1       1.439   0.373  23.171  0.00  0.00    +0.124 A 
ATOM      6  C   UNL     1       2.033   0.881  23.434  0.00  0.00    +0.020 A 
ATOM      7  C   UNL     1       2.766   0.890  23.056  0.00  0.00    -0.003 A 
ENDBRANCH   8   5
ENDBRANCH  11   8
ENDBRANCH  12  11
ENDBRANCH  13  12
BRANCH  16  17
ATOM     17  N   UNL     1      -3.362   1.497  24.412  0.00  0.00    -0.209 NA
BRANCH  17  18
ATOM     18  C   UNL     1      -3.647   1.916  25.064  0.00  0.00    +0.118 C 
BRANCH  18  19
ATOM     19  C   UNL     1      -4.449   2.102  25.117  0.00  0.00    +0.034 A 
ATOM     20  C   UNL     1      -4.683   2.833  25.420  0.00  0.00    +0.193 A 
ATOM     21  O   UNL     1      -4.116   3.376  25.670  0.00  0.00    -0.287 OA
ATOM     22  C   UNL     1      -5.485   3.018  25.472  0.00  0.00    +0.042 A 
ATOM     23  C   UNL     1      -6.053   2.474  25.222  0.00  0.00    +0.003 A 
ATOM     24  C   UNL     1      -5.817   1.743  24.919  0.00  0.00    -0.000 A 
ATOM     25  C   UNL     1      -5.015   1.558  24.867  0.00  0.00    +0.000 A 
ENDBRANCH  18  19
ENDBRANCH  17  18
ENDBRANCH  16  17
TORSDOF 7
ENDMDL
