MODEL 1
REMARK VINA RESULT:     -16.4      0.000      0.000
REMARK  Name = 
REMARK  2 active torsions:
REMARK  status: ('A' for Active; 'I' for Inactive)
REMARK    1  A    between atoms: C_7  and  C_8
REMARK    2  A    between atoms: C_18  and  C_20
REMARK                            x       y       z     vdW  Elec       q    Type
REMARK                         _______ _______ _______ _____ _____    ______ ____
ROOT
ATOM      8  C   UNL     1      -4.055   0.175  24.992  0.00  0.00    +0.056 A 
ATOM      9  C   UNL     1      -4.854   0.377  25.031  0.00  0.00    +0.006 A 
ATOM     10  C   UNL     1      -5.082   1.168  24.990  0.00  0.00    +0.013 A 
ATOM     11  C   UNL     1      -4.511   1.758  24.911  0.00  0.00    +0.041 A 
ATOM     12  C   UNL     1      -4.433   2.671  24.841  0.00  0.00    +0.058 C 
ATOM     13  C   UNL     1      -4.820   3.257  24.826  0.00  0.00    +0.011 C 
ATOM     14  C   UNL     1      -4.032   3.054  24.788  0.00  0.00    +0.043 C 
ATOM     15  C   UNL     1      -3.046   3.012  24.726  0.00  0.00    +0.095 C 
ATOM     16  N   UNL     1      -2.938   2.185  24.777  0.00  0.00    -0.279 N 
ATOM     17  C   UNL     1      -3.481   2.647  24.780  0.00  0.00    +0.099 C 
ATOM     18  C   UNL     1      -2.544   1.460  24.802  0.00  0.00    +0.225 C 
ATOM     19  O   UNL     1      -2.973   0.759  24.880  0.00  0.00    -0.275 OA
ATOM     26  C   UNL     1      -4.103   2.100  24.860  0.00  0.00    +0.110 C 
ATOM     27  N   UNL     1      -3.712   1.556  24.872  0.00  0.00    -0.299 N 
ATOM     28  C   UNL     1      -3.484   0.765  24.913  0.00  0.00    +0.261 A 
ATOM     29  O   UNL     1      -2.785   0.327  24.898  0.00  0.00    -0.267 OA
ENDROOT
BRANCH   8   7
ATOM      1  C   UNL     1      -4.358  -0.837  23.725  0.00  0.00    +0.031 C 
ATOM      2  C   UNL     1      -3.979  -1.123  24.400  0.00  0.00    -0.022 A 
ATOM      3  C   UNL     1      -3.751  -1.916  24.441  0.00  0.00    -0.004 A 
ATOM      4  C   UNL     1      -3.372  -2.200  25.117  0.00  0.00    -0.000 A 
ATOM      5  C   UNL     1      -3.221  -1.694  25.750  0.00  0.00    -0.000 A 
ATOM      6  C   UNL     1      -3.449  -0.902  25.708  0.00  0.00    -0.000 A 
ATOM      7  C   UNL     1      -3.828  -0.617  25.033  0.00  0.00    +0.001 A 
ENDBRANCH   8   7
BRANCH  18  20
ATOM     20  C   UNL     1      -1.722   1.437  24.750  0.00  0.00    +0.077 C 
ATOM     21  C   UNL     1      -1.262   1.516  25.430  0.00  0.00    +0.009 C 
ATOM     22  C   UNL     1      -0.438   1.492  25.377  0.00  0.00    +0.000 C 
ATOM     23  C   UNL     1      -0.076   1.389  24.644  0.00  0.00    +0.000 C 
ATOM     24  C   UNL     1      -0.534   1.310  23.963  0.00  0.00    +0.000 C 
ATOM     25  C   UNL     1      -1.358   1.333  24.016  0.00  0.00    +0.009 C 
ENDBRANCH  18  20
TORSDOF 2
ENDMDL
MODEL 2
REMARK VINA RESULT:     -16.1      0.527      3.109
REMARK  Name = 
REMARK  2 active torsions:
REMARK  status: ('A' for Active; 'I' for Inactive)
REMARK    1  A    between atoms: C_7  and  C_8
REMARK    2  A    between atoms: C_18  and  C_20
REMARK                            x       y       z     vdW  Elec       q    Type
REMARK                         _______ _______ _______ _____ _____    ______ ____
ROOT
ATOM      8  C   UNL     1      -2.523   2.014  24.632  0.00  0.00    +0.056 A 
ATOM      9  C   UNL     1      -2.723   2.812  24.685  0.00  0.00    +0.006 A 
ATOM     10  C   UNL     1      -3.503   3.033  24.840  0.00  0.00    +0.013 A 
ATOM     11  C   UNL     1      -4.082   2.455  24.942  0.00  0.00    +0.041 A 
ATOM     12  C   UNL     1      -4.981   2.368  25.115  0.00  0.00    +0.058 C 
ATOM     13  C   UNL     1      -5.558   2.749  25.234  0.00  0.00    +0.011 C 
ATOM     14  C   UNL     1      -5.357   1.961  25.181  0.00  0.00    +0.043 C 
ATOM     15  C   UNL     1      -5.313   0.974  25.155  0.00  0.00    +0.095 C 
ATOM     16  N   UNL     1      -4.499   0.875  24.995  0.00  0.00    -0.279 N 
ATOM     17  C   UNL     1      -4.955   1.413  25.093  0.00  0.00    +0.099 C 
ATOM     18  C   UNL     1      -3.785   0.487  24.850  0.00  0.00    +0.225 C 
ATOM     19  O   UNL     1      -3.096   0.924  24.724  0.00  0.00    -0.275 OA
ATOM     26  C   UNL     1      -4.417   2.042  25.000  0.00  0.00    +0.110 C 
ATOM     27  N   UNL     1      -3.882   1.656  24.890  0.00  0.00    -0.299 N 
ATOM     28  C   UNL     1      -3.102   1.436  24.734  0.00  0.00    +0.261 A 
ATOM     29  O   UNL     1      -2.670   0.740  24.638  0.00  0.00    -0.267 OA
ENDROOT
BRANCH   8   7
ATOM      1  C   UNL     1      -1.346   2.301  25.752  0.00  0.00    +0.031 C 
ATOM      2  C   UNL     1      -1.155   1.938  25.037  0.00  0.00    -0.022 A 
ATOM      3  C   UNL     1      -0.374   1.718  24.881  0.00  0.00    -0.004 A 
ATOM      4  C   UNL     1      -0.184   1.354  24.165  0.00  0.00    -0.000 A 
ATOM      5  C   UNL     1      -0.773   1.210  23.606  0.00  0.00    -0.000 A 
ATOM      6  C   UNL     1      -1.553   1.430  23.761  0.00  0.00    -0.000 A 
ATOM      7  C   UNL     1      -1.744   1.794  24.477  0.00  0.00    +0.001 A 
ENDBRANCH   8   7
BRANCH  18  20
ATOM     20  C   UNL     1      -3.760  -0.337  24.831  0.00  0.00    +0.077 C 
ATOM     21  C   UNL     1      -3.943  -0.740  24.135  0.00  0.00    +0.009 C 
ATOM     22  C   UNL     1      -3.917  -1.565  24.115  0.00  0.00    +0.000 C 
ATOM     23  C   UNL     1      -3.709  -1.986  24.793  0.00  0.00    +0.000 C 
ATOM     24  C   UNL     1      -3.526  -1.585  25.489  0.00  0.00    +0.000 C 
ATOM     25  C   UNL     1      -3.552  -0.760  25.509  0.00  0.00    +0.009 C 
ENDBRANCH  18  20
TORSDOF 2
ENDMDL
MODEL 3
REMARK VINA RESULT:     -15.4      0.899      3.061
REMARK  Name = 
REMARK  2 active torsions:
REMARK  status: ('A' for Active; 'I' for Inactive)
REMARK    1  A    between atoms: C_7  and  C_8
REMARK    2  A    between atoms: C_18  and  C_20
REMARK                            x       y       z     vdW  Elec       q    Type
REMARK                         _______ _______ _______ _____ _____    ______ ____
ROOT
ATOM      8  C   UNL     1      -3.895   1.243  24.595  0.00  0.00    +0.056 A 
ATOM      9  C   UNL     1      -4.538   0.727  24.634  0.00  0.00    +0.006 A 
ATOM     10  C   UNL     1      -4.425  -0.054  24.873  0.00  0.00    +0.013 A 
ATOM     11  C   UNL     1      -3.670  -0.320  25.072  0.00  0.00    +0.041 A 
ATOM     12  C   UNL     1      -3.232  -1.076  25.357  0.00  0.00    +0.058 C 
ATOM     13  C   UNL     1      -3.346  -1.747  25.527  0.00  0.00    +0.011 C 
ATOM     14  C   UNL     1      -2.714  -1.235  25.487  0.00  0.00    +0.043 C 
ATOM     15  C   UNL     1      -1.838  -0.777  25.502  0.00  0.00    +0.095 C 
ATOM     16  N   UNL     1      -2.073  -0.017  25.249  0.00  0.00    -0.279 N 
ATOM     17  C   UNL     1      -2.379  -0.648  25.377  0.00  0.00    +0.099 C 
ATOM     18  C   UNL     1      -2.008   0.778  25.036  0.00  0.00    +0.225 C 
ATOM     19  O   UNL     1      -2.679   1.200  24.807  0.00  0.00    -0.275 OA
ATOM     26  C   UNL     1      -3.163  -0.441  25.189  0.00  0.00    +0.110 C 
ATOM     27  N   UNL     1      -3.028   0.196  25.032  0.00  0.00    -0.299 N 
ATOM     28  C   UNL     1      -3.140   0.977  24.794  0.00  0.00    +0.261 A 
ATOM     29  O   UNL     1      -2.683   1.654  24.678  0.00  0.00    -0.267 OA
ENDROOT
BRANCH   8   7
ATOM      1  C   UNL     1      -4.775   2.274  25.536  0.00  0.00    +0.031 C 
ATOM      2  C   UNL     1      -4.448   2.540  24.826  0.00  0.00    -0.022 A 
ATOM      3  C   UNL     1      -4.561   3.322  24.587  0.00  0.00    -0.004 A 
ATOM      4  C   UNL     1      -4.233   3.587  23.877  0.00  0.00    -0.000 A 
ATOM      5  C   UNL     1      -3.793   3.071  23.407  0.00  0.00    -0.000 A 
ATOM      6  C   UNL     1      -3.681   2.290  23.647  0.00  0.00    -0.000 A 
ATOM      7  C   UNL     1      -4.008   2.024  24.356  0.00  0.00    +0.001 A 
ENDBRANCH   8   7
BRANCH  18  20
ATOM     20  C   UNL     1      -1.272   1.150  25.052  0.00  0.00    +0.077 C 
ATOM     21  C   UNL     1      -0.775   1.109  24.396  0.00  0.00    +0.009 C 
ATOM     22  C   UNL     1      -0.038   1.482  24.412  0.00  0.00    +0.000 C 
ATOM     23  C   UNL     1       0.200   1.895  25.086  0.00  0.00    +0.000 C 
ATOM     24  C   UNL     1      -0.297   1.935  25.742  0.00  0.00    +0.000 C 
ATOM     25  C   UNL     1      -1.034   1.563  25.726  0.00  0.00    +0.009 C 
ENDBRANCH  18  20
TORSDOF 2
ENDMDL
MODEL 4
REMARK VINA RESULT:     -15.3      1.001      2.829
REMARK  Name = 
REMARK  2 active torsions:
REMARK  status: ('A' for Active; 'I' for Inactive)
REMARK    1  A    between atoms: C_7  and  C_8
REMARK    2  A    between atoms: C_18  and  C_20
REMARK                            x       y       z     vdW  Elec       q    Type
REMARK                         _______ _______ _______ _____ _____    ______ ____
ROOT
ATOM      8  C   UNL     1      -2.317   0.048  24.929  0.00  0.00    +0.056 A 
ATOM      9  C   UNL     1      -1.585  -0.276  25.129  0.00  0.00    +0.006 A 
ATOM     10  C   UNL     1      -0.962   0.217  25.353  0.00  0.00    +0.013 A 
ATOM     11  C   UNL     1      -1.072   1.034  25.378  0.00  0.00    +0.041 A 
ATOM     12  C   UNL     1      -0.618   1.809  25.571  0.00  0.00    +0.058 C 
ATOM     13  C   UNL     1       0.011   2.041  25.778  0.00  0.00    +0.011 C 
ATOM     14  C   UNL     1      -0.713   2.358  25.581  0.00  0.00    +0.043 C 
ATOM     15  C   UNL     1      -1.499   2.923  25.381  0.00  0.00    +0.095 C 
ATOM     16  N   UNL     1      -2.048   2.329  25.172  0.00  0.00    -0.279 N 
ATOM     17  C   UNL     1      -1.368   2.368  25.382  0.00  0.00    +0.099 C 
ATOM     18  C   UNL     1      -2.761   1.991  24.931  0.00  0.00    +0.225 C 
ATOM     19  O   UNL     1      -2.824   1.171  24.854  0.00  0.00    -0.275 OA
ATOM     26  C   UNL     1      -1.195   1.554  25.377  0.00  0.00    +0.110 C 
ATOM     27  N   UNL     1      -1.804   1.358  25.178  0.00  0.00    -0.299 N 
ATOM     28  C   UNL     1      -2.426   0.865  24.953  0.00  0.00    +0.261 A 
ATOM     29  O   UNL     1      -3.213   0.941  24.719  0.00  0.00    -0.267 OA
ENDROOT
BRANCH   8   7
ATOM      1  C   UNL     1      -2.988  -0.985  26.027  0.00  0.00    +0.031 C 
ATOM      2  C   UNL     1      -3.274  -0.961  25.253  0.00  0.00    -0.022 A 
ATOM      3  C   UNL     1      -3.897  -1.455  25.028  0.00  0.00    -0.004 A 
ATOM      4  C   UNL     1      -4.182  -1.431  24.255  0.00  0.00    -0.000 A 
ATOM      5  C   UNL     1      -3.846  -0.915  23.706  0.00  0.00    -0.000 A 
ATOM      6  C   UNL     1      -3.224  -0.422  23.931  0.00  0.00    -0.000 A 
ATOM      7  C   UNL     1      -2.938  -0.445  24.705  0.00  0.00    +0.001 A 
ENDBRANCH   8   7
BRANCH  18  20
ATOM     20  C   UNL     1      -3.411   2.471  24.767  0.00  0.00    +0.077 C 
ATOM     21  C   UNL     1      -3.511   2.788  24.012  0.00  0.00    +0.009 C 
ATOM     22  C   UNL     1      -4.161   3.269  23.848  0.00  0.00    +0.000 C 
ATOM     23  C   UNL     1      -4.711   3.433  24.441  0.00  0.00    +0.000 C 
ATOM     24  C   UNL     1      -4.612   3.118  25.196  0.00  0.00    +0.000 C 
ATOM     25  C   UNL     1      -3.962   2.636  25.359  0.00  0.00    +0.009 C 
ENDBRANCH  18  20
TORSDOF 2
ENDMDL
MODEL 5
REMARK VINA RESULT:     -15.3      0.932      3.640
REMARK  Name = 
REMARK  2 active torsions:
REMARK  status: ('A' for Active; 'I' for Inactive)
REMARK    1  A    between atoms: C_7  and  C_8
REMARK    2  A    between atoms: C_18  and  C_20
REMARK                            x       y       z     vdW  Elec       q    Type
REMARK                         _______ _______ _______ _____ _____    ______ ____
ROOT
ATOM      8  C   UNL     1      -1.444   0.460  25.055  0.00  0.00    +0.056 A 
ATOM      9  C   UNL     1      -1.176  -0.316  25.138  0.00  0.00    +0.006 A 
ATOM     10  C   UNL     1      -1.708  -0.944  25.085  0.00  0.00    +0.013 A 
ATOM     11  C   UNL     1      -2.508  -0.797  24.948  0.00  0.00    +0.041 A 
ATOM     12  C   UNL     1      -3.307  -1.238  24.841  0.00  0.00    +0.058 C 
ATOM     13  C   UNL     1      -3.582  -1.884  24.829  0.00  0.00    +0.011 C 
ATOM     14  C   UNL     1      -3.843  -1.117  24.748  0.00  0.00    +0.043 C 
ATOM     15  C   UNL     1      -4.345  -0.274  24.623  0.00  0.00    +0.095 C 
ATOM     16  N   UNL     1      -3.718   0.274  24.697  0.00  0.00    -0.279 N 
ATOM     17  C   UNL     1      -3.806  -0.433  24.719  0.00  0.00    +0.099 C 
ATOM     18  C   UNL     1      -3.333   1.003  24.722  0.00  0.00    +0.225 C 
ATOM     19  O   UNL     1      -2.518   1.035  24.852  0.00  0.00    -0.275 OA
ATOM     26  C   UNL     1      -3.013  -0.647  24.858  0.00  0.00    +0.110 C 
ATOM     27  N   UNL     1      -2.776  -0.021  24.864  0.00  0.00    -0.299 N 
ATOM     28  C   UNL     1      -2.244   0.607  24.918  0.00  0.00    +0.261 A 
ATOM     29  O   UNL     1      -2.262   1.431  24.873  0.00  0.00    -0.267 OA
ENDROOT
BRANCH   8   7
ATOM      1  C   UNL     1      -0.316   0.689  23.874  0.00  0.00    +0.031 C 
ATOM      2  C   UNL     1      -0.348   1.202  24.519  0.00  0.00    -0.022 A 
ATOM      3  C   UNL     1       0.185   1.831  24.573  0.00  0.00    -0.004 A 
ATOM      4  C   UNL     1       0.152   2.344  25.219  0.00  0.00    -0.000 A 
ATOM      5  C   UNL     1      -0.413   2.229  25.809  0.00  0.00    -0.000 A 
ATOM      6  C   UNL     1      -0.945   1.601  25.755  0.00  0.00    -0.000 A 
ATOM      7  C   UNL     1      -0.912   1.087  25.109  0.00  0.00    +0.001 A 
ENDBRANCH   8   7
BRANCH  18  20
ATOM     20  C   UNL     1      -3.761   1.700  24.617  0.00  0.00    +0.077 C 
ATOM     21  C   UNL     1      -3.795   2.055  23.874  0.00  0.00    +0.009 C 
ATOM     22  C   UNL     1      -4.224   2.753  23.768  0.00  0.00    +0.000 C 
ATOM     23  C   UNL     1      -4.619   3.094  24.408  0.00  0.00    +0.000 C 
ATOM     24  C   UNL     1      -4.585   2.739  25.151  0.00  0.00    +0.000 C 
ATOM     25  C   UNL     1      -4.156   2.041  25.256  0.00  0.00    +0.009 C 
ENDBRANCH  18  20
TORSDOF 2
ENDMDL
MODEL 6
REMARK VINA RESULT:     -15.2      1.115      2.151
REMARK  Name = 
REMARK  2 active torsions:
REMARK  status: ('A' for Active; 'I' for Inactive)
REMARK    1  A    between atoms: C_7  and  C_8
REMARK    2  A    between atoms: C_18  and  C_20
REMARK                            x       y       z     vdW  Elec       q    Type
REMARK                         _______ _______ _______ _____ _____    ______ ____
ROOT
ATOM      8  C   UNL     1      -3.131   0.586  24.751  0.00  0.00    +0.056 A 
ATOM      9  C   UNL     1      -3.752   0.052  24.652  0.00  0.00    +0.006 A 
ATOM     10  C   UNL     1      -4.533   0.314  24.693  0.00  0.00    +0.013 A 
ATOM     11  C   UNL     1      -4.693   1.111  24.834  0.00  0.00    +0.041 A 
ATOM     12  C   UNL     1      -5.400   1.690  24.932  0.00  0.00    +0.058 C 
ATOM     13  C   UNL     1      -6.101   1.708  24.931  0.00  0.00    +0.011 C 
ATOM     14  C   UNL     1      -5.486   2.233  25.028  0.00  0.00    +0.043 C 
ATOM     15  C   UNL     1      -4.890   3.008  25.170  0.00  0.00    +0.095 C 
ATOM     16  N   UNL     1      -4.149   2.629  25.107  0.00  0.00    -0.279 N 
ATOM     17  C   UNL     1      -4.837   2.450  25.071  0.00  0.00    +0.099 C 
ATOM     18  C   UNL     1      -3.328   2.539  25.097  0.00  0.00    +0.225 C 
ATOM     19  O   UNL     1      -2.996   1.794  24.966  0.00  0.00    -0.275 OA
ATOM     26  C   UNL     1      -4.742   1.635  24.927  0.00  0.00    +0.110 C 
ATOM     27  N   UNL     1      -4.072   1.646  24.933  0.00  0.00    -0.299 N 
ATOM     28  C   UNL     1      -3.291   1.383  24.891  0.00  0.00    +0.261 A 
ATOM     29  O   UNL     1      -2.533   1.703  24.953  0.00  0.00    -0.267 OA
ENDROOT
BRANCH   8   7
ATOM      1  C   UNL     1      -2.555  -0.469  25.881  0.00  0.00    +0.031 C 
ATOM      2  C   UNL     1      -2.062  -0.204  25.274  0.00  0.00    -0.022 A 
ATOM      3  C   UNL     1      -1.281  -0.467  25.231  0.00  0.00    -0.004 A 
ATOM      4  C   UNL     1      -0.789  -0.202  24.624  0.00  0.00    -0.000 A 
ATOM      5  C   UNL     1      -1.078   0.326  24.060  0.00  0.00    -0.000 A 
ATOM      6  C   UNL     1      -1.858   0.588  24.102  0.00  0.00    -0.000 A 
ATOM      7  C   UNL     1      -2.351   0.323  24.709  0.00  0.00    +0.001 A 
ENDBRANCH   8   7
BRANCH  18  20
ATOM     20  C   UNL     1      -2.841   3.193  25.216  0.00  0.00    +0.077 C 
ATOM     21  C   UNL     1      -2.586   3.385  25.976  0.00  0.00    +0.009 C 
ATOM     22  C   UNL     1      -2.097   4.040  26.096  0.00  0.00    +0.000 C 
ATOM     23  C   UNL     1      -1.865   4.502  25.454  0.00  0.00    +0.000 C 
ATOM     24  C   UNL     1      -2.119   4.312  24.693  0.00  0.00    +0.000 C 
ATOM     25  C   UNL     1      -2.608   3.657  24.574  0.00  0.00    +0.009 C 
ENDBRANCH  18  20
TORSDOF 2
ENDMDL
