MODEL 1
REMARK VINA RESULT:     -11.9      0.000      0.000
REMARK  Name = 
REMARK  7 active torsions:
REMARK  status: ('A' for Active; 'I' for Inactive)
REMARK    1  A    between atoms: C_2  and  C_4
REMARK    2  A    between atoms: C_6  and  C_7
REMARK    3  A    between atoms: C_7  and  C_8
REMARK    4  A    between atoms: C_11  and  C_12
REMARK    5  A    between atoms: C_12  and  O_13
REMARK    6  A    between atoms: O_13  and  C_14
REMARK    7  A    between atoms: C_25  and  C_26
REMARK                            x       y       z     vdW  Elec       q    Type
REMARK                         _______ _______ _______ _____ _____    ______ ____
ROOT
ATOM      8  C   UNL     1      -0.814  -0.047  25.032  0.00  0.00    +0.227 A 
ATOM      9  N   UNL     1      -0.358   0.071  24.354  0.00  0.00    -0.112 NA
ATOM     10  N   UNL     1      -0.238   0.882  24.266  0.00  0.00    -0.108 NA
ATOM     11  C   UNL     1      -0.619   1.266  24.890  0.00  0.00    +0.270 A 
ATOM     21  O   UNL     1      -0.975   0.692  25.363  0.00  0.00    -0.420 OA
ENDROOT
BRANCH   8   7
ATOM      7  C   UNL     1      -1.064  -0.775  25.327  0.00  0.00    +0.091 C 
BRANCH   7   6
ATOM      4  C   UNL     1      -3.158  -0.971  24.743  0.00  0.00    +0.007 C 
ATOM      5  C   UNL     1      -2.451  -0.639  25.008  0.00  0.00    +0.005 C 
ATOM      6  C   UNL     1      -1.771  -1.106  25.062  0.00  0.00    +0.027 C 
ATOM     22  C   UNL     1      -1.801  -1.903  24.850  0.00  0.00    -0.048 C 
ATOM     23  C   UNL     1      -1.123  -2.369  24.904  0.00  0.00    +0.026 C 
ATOM     24  C   UNL     1      -2.509  -2.235  24.585  0.00  0.00    -0.032 C 
ATOM     25  C   UNL     1      -3.188  -1.768  24.531  0.00  0.00    +0.054 C 
BRANCH   4   2
ATOM      1  C   UNL     1      -4.294  -0.361  25.361  0.00  0.00    +0.000 C 
ATOM      2  C   UNL     1      -3.837  -0.505  24.689  0.00  0.00    +0.000 C 
ATOM      3  C   UNL     1      -4.060  -0.182  23.962  0.00  0.00    +0.000 C 
ENDBRANCH   4   2
BRANCH  25  26
ATOM     26  C   UNL     1      -3.895  -2.099  24.266  0.00  0.00    +0.186 C 
ATOM     27  O   UNL     1      -3.928  -2.898  24.067  0.00  0.00    -0.220 OA
ENDBRANCH  25  26
ENDBRANCH   7   6
ENDBRANCH   8   7
BRANCH  11  12
ATOM     12  C   UNL     1      -0.640   2.081  25.017  0.00  0.00    +0.291 C 
BRANCH  12  13
ATOM     13  O   UNL     1      -1.224   2.540  24.657  0.00  0.00    -0.465 OA
BRANCH  13  14
ATOM     14  C   UNL     1      -1.296   3.339  24.849  0.00  0.00    +0.139 A 
ATOM     15  C   UNL     1      -1.969   3.608  25.245  0.00  0.00    +0.039 A 
ATOM     16  C   UNL     1      -2.041   4.407  25.437  0.00  0.00    +0.033 A 
ATOM     17  C   UNL     1      -1.442   4.937  25.233  0.00  0.00    +0.140 A 
ATOM     18  F   UNL     1      -1.514   5.736  25.425  0.00  0.00    -0.204 F 
ATOM     19  C   UNL     1      -0.770   4.667  24.837  0.00  0.00    +0.033 A 
ATOM     20  C   UNL     1      -0.698   3.868  24.645  0.00  0.00    +0.039 A 
ENDBRANCH  13  14
ENDBRANCH  12  13
ENDBRANCH  11  12
TORSDOF 7
ENDMDL
MODEL 2
REMARK VINA RESULT:     -11.7      2.604      5.785
REMARK  Name = 
REMARK  7 active torsions:
REMARK  status: ('A' for Active; 'I' for Inactive)
REMARK    1  A    between atoms: C_2  and  C_4
REMARK    2  A    between atoms: C_6  and  C_7
REMARK    3  A    between atoms: C_7  and  C_8
REMARK    4  A    between atoms: C_11  and  C_12
REMARK    5  A    between atoms: C_12  and  O_13
REMARK    6  A    between atoms: O_13  and  C_14
REMARK    7  A    between atoms: C_25  and  C_26
REMARK                            x       y       z     vdW  Elec       q    Type
REMARK                         _______ _______ _______ _____ _____    ______ ____
ROOT
ATOM      8  C   UNL     1      -3.862   2.452  25.202  0.00  0.00    +0.227 A 
ATOM      9  N   UNL     1      -4.229   2.534  24.468  0.00  0.00    -0.112 NA
ATOM     10  N   UNL     1      -4.422   1.780  24.195  0.00  0.00    -0.108 NA
ATOM     11  C   UNL     1      -4.174   1.233  24.759  0.00  0.00    +0.270 A 
ATOM     21  O   UNL     1      -3.827   1.647  25.382  0.00  0.00    -0.420 OA
ENDROOT
BRANCH   8   7
ATOM      7  C   UNL     1      -3.579   3.067  25.674  0.00  0.00    +0.091 C 
BRANCH   7   6
ATOM      4  C   UNL     1      -1.452   3.278  25.230  0.00  0.00    +0.007 C 
ATOM      5  C   UNL     1      -2.183   2.933  25.396  0.00  0.00    +0.005 C 
ATOM      6  C   UNL     1      -2.848   3.411  25.508  0.00  0.00    +0.027 C 
ATOM     22  C   UNL     1      -2.780   4.231  25.453  0.00  0.00    -0.048 C 
ATOM     23  C   UNL     1      -3.444   4.708  25.564  0.00  0.00    +0.026 C 
ATOM     24  C   UNL     1      -2.049   4.576  25.287  0.00  0.00    -0.032 C 
ATOM     25  C   UNL     1      -1.384   4.098  25.175  0.00  0.00    +0.054 C 
BRANCH   4   2
ATOM      1  C   UNL     1      -0.582   2.551  24.359  0.00  0.00    +0.000 C 
ATOM      2  C   UNL     1      -0.788   2.801  25.119  0.00  0.00    +0.000 C 
ATOM      3  C   UNL     1      -0.329   2.574  25.766  0.00  0.00    +0.000 C 
ENDBRANCH   4   2
BRANCH  25  26
ATOM     26  C   UNL     1      -0.653   4.442  25.009  0.00  0.00    +0.186 C 
ATOM     27  O   UNL     1      -0.595   5.258  24.907  0.00  0.00    -0.220 OA
ENDBRANCH  25  26
ENDBRANCH   7   6
ENDBRANCH   8   7
BRANCH  11  12
ATOM     12  C   UNL     1      -4.257   0.413  24.709  0.00  0.00    +0.291 C 
BRANCH  12  13
ATOM     13  O   UNL     1      -3.645  -0.046  24.398  0.00  0.00    -0.465 OA
BRANCH  13  14
ATOM     14  C   UNL     1      -3.691  -0.869  24.429  0.00  0.00    +0.139 A 
ATOM     15  C   UNL     1      -3.318  -1.281  25.039  0.00  0.00    +0.039 A 
ATOM     16  C   UNL     1      -3.364  -2.104  25.069  0.00  0.00    +0.033 A 
ATOM     17  C   UNL     1      -3.783  -2.515  24.489  0.00  0.00    +0.140 A 
ATOM     18  F   UNL     1      -3.830  -3.338  24.520  0.00  0.00    -0.204 F 
ATOM     19  C   UNL     1      -4.157  -2.103  23.880  0.00  0.00    +0.033 A 
ATOM     20  C   UNL     1      -4.110  -1.280  23.850  0.00  0.00    +0.039 A 
ENDBRANCH  13  14
ENDBRANCH  12  13
ENDBRANCH  11  12
TORSDOF 7
ENDMDL
MODEL 3
REMARK VINA RESULT:     -11.6      1.555      2.430
REMARK  Name = 
REMARK  7 active torsions:
REMARK  status: ('A' for Active; 'I' for Inactive)
REMARK    1  A    between atoms: C_2  and  C_4
REMARK    2  A    between atoms: C_6  and  C_7
REMARK    3  A    between atoms: C_7  and  C_8
REMARK    4  A    between atoms: C_11  and  C_12
REMARK    5  A    between atoms: C_12  and  O_13
REMARK    6  A    between atoms: O_13  and  C_14
REMARK    7  A    between atoms: C_25  and  C_26
REMARK                            x       y       z     vdW  Elec       q    Type
REMARK                         _______ _______ _______ _____ _____    ______ ____
ROOT
ATOM      8  C   UNL     1      -3.974   0.817  24.454  0.00  0.00    +0.227 A 
ATOM      9  N   UNL     1      -4.468   1.025  25.081  0.00  0.00    -0.112 NA
ATOM     10  N   UNL     1      -4.276   1.792  25.313  0.00  0.00    -0.108 NA
ATOM     11  C   UNL     1      -3.663   2.059  24.829  0.00  0.00    +0.270 A 
ATOM     21  O   UNL     1      -3.476   1.457  24.298  0.00  0.00    -0.420 OA
ENDROOT
BRANCH   8   7
ATOM      7  C   UNL     1      -3.977   0.097  24.052  0.00  0.00    +0.091 C 
BRANCH   7   6
ATOM      4  C   UNL     1      -2.157  -0.886  24.749  0.00  0.00    +0.007 C 
ATOM      5  C   UNL     1      -2.691  -0.293  24.538  0.00  0.00    +0.005 C 
ATOM      6  C   UNL     1      -3.444  -0.495  24.263  0.00  0.00    +0.027 C 
ATOM     22  C   UNL     1      -3.660  -1.289  24.200  0.00  0.00    -0.048 C 
ATOM     23  C   UNL     1      -4.412  -1.490  23.926  0.00  0.00    +0.026 C 
ATOM     24  C   UNL     1      -3.126  -1.881  24.412  0.00  0.00    -0.032 C 
ATOM     25  C   UNL     1      -2.374  -1.680  24.686  0.00  0.00    +0.054 C 
BRANCH   4   2
ATOM      1  C   UNL     1      -0.789  -0.563  24.488  0.00  0.00    +0.000 C 
ATOM      2  C   UNL     1      -1.406  -0.684  25.023  0.00  0.00    +0.000 C 
ATOM      3  C   UNL     1      -1.270  -0.604  25.834  0.00  0.00    +0.000 C 
ENDBRANCH   4   2
BRANCH  25  26
ATOM     26  C   UNL     1      -1.840  -2.271  24.897  0.00  0.00    +0.186 C 
ATOM     27  O   UNL     1      -1.977  -3.051  24.669  0.00  0.00    -0.220 OA
ENDBRANCH  25  26
ENDBRANCH   7   6
ENDBRANCH   8   7
BRANCH  11  12
ATOM     12  C   UNL     1      -3.300   2.800  24.870  0.00  0.00    +0.291 C 
BRANCH  12  13
ATOM     13  O   UNL     1      -2.697   2.934  25.417  0.00  0.00    -0.465 OA
BRANCH  13  14
ATOM     14  C   UNL     1      -2.170   3.559  25.304  0.00  0.00    +0.139 A 
ATOM     15  C   UNL     1      -1.386   3.405  25.099  0.00  0.00    +0.039 A 
ATOM     16  C   UNL     1      -0.859   4.029  24.986  0.00  0.00    +0.033 A 
ATOM     17  C   UNL     1      -1.116   4.808  25.079  0.00  0.00    +0.140 A 
ATOM     18  F   UNL     1      -0.589   5.433  24.966  0.00  0.00    -0.204 F 
ATOM     19  C   UNL     1      -1.900   4.961  25.284  0.00  0.00    +0.033 A 
ATOM     20  C   UNL     1      -2.427   4.337  25.397  0.00  0.00    +0.039 A 
ENDBRANCH  13  14
ENDBRANCH  12  13
ENDBRANCH  11  12
TORSDOF 7
ENDMDL
MODEL 4
REMARK VINA RESULT:     -11.6      2.100      5.236
REMARK  Name = 
REMARK  7 active torsions:
REMARK  status: ('A' for Active; 'I' for Inactive)
REMARK    1  A    between atoms: C_2  and  C_4
REMARK    2  A    between atoms: C_6  and  C_7
REMARK    3  A    between atoms: C_7  and  C_8
REMARK    4  A    between atoms: C_11  and  C_12
REMARK    5  A    between atoms: C_12  and  O_13
REMARK    6  A    between atoms: O_13  and  C_14
REMARK    7  A    between atoms: C_25  and  C_26
REMARK                            x       y       z     vdW  Elec       q    Type
REMARK                         _______ _______ _______ _____ _____    ______ ____
ROOT
ATOM      8  C   UNL     1      -0.853   1.077  25.340  0.00  0.00    +0.227 A 
ATOM      9  N   UNL     1      -0.444   0.928  24.639  0.00  0.00    -0.112 NA
ATOM     10  N   UNL     1      -0.759   0.245  24.300  0.00  0.00    -0.108 NA
ATOM     11  C   UNL     1      -1.363  -0.028  24.792  0.00  0.00    +0.270 A 
ATOM     21  O   UNL     1      -1.421   0.485  25.434  0.00  0.00    -0.420 OA
ENDROOT
BRANCH   8   7
ATOM      7  C   UNL     1      -0.717   1.706  25.856  0.00  0.00    +0.091 C 
BRANCH   7   6
ATOM      4  C   UNL     1      -2.099   3.307  25.315  0.00  0.00    +0.007 C 
ATOM      5  C   UNL     1      -1.808   2.556  25.495  0.00  0.00    +0.005 C 
ATOM      6  C   UNL     1      -1.008   2.456  25.676  0.00  0.00    +0.027 C 
ATOM     22  C   UNL     1      -0.501   3.107  25.676  0.00  0.00    -0.048 C 
ATOM     23  C   UNL     1       0.298   3.007  25.857  0.00  0.00    +0.026 C 
ATOM     24  C   UNL     1      -0.792   3.858  25.497  0.00  0.00    -0.032 C 
ATOM     25  C   UNL     1      -1.591   3.958  25.316  0.00  0.00    +0.054 C 
BRANCH   4   2
ATOM      1  C   UNL     1      -3.157   3.331  24.355  0.00  0.00    +0.000 C 
ATOM      2  C   UNL     1      -2.897   3.408  25.135  0.00  0.00    +0.000 C 
ATOM      3  C   UNL     1      -3.437   3.584  25.734  0.00  0.00    +0.000 C 
ENDBRANCH   4   2
BRANCH  25  26
ATOM     26  C   UNL     1      -1.882   4.709  25.136  0.00  0.00    +0.186 C 
ATOM     27  O   UNL     1      -1.377   5.360  25.146  0.00  0.00    -0.220 OA
ENDBRANCH  25  26
ENDBRANCH   7   6
ENDBRANCH   8   7
BRANCH  11  12
ATOM     12  C   UNL     1      -1.827  -0.698  24.663  0.00  0.00    +0.291 C 
BRANCH  12  13
ATOM     13  O   UNL     1      -2.614  -0.710  24.913  0.00  0.00    -0.465 OA
BRANCH  13  14
ATOM     14  C   UNL     1      -3.134  -1.273  24.609  0.00  0.00    +0.139 A 
ATOM     15  C   UNL     1      -3.007  -2.075  24.758  0.00  0.00    +0.039 A 
ATOM     16  C   UNL     1      -3.528  -2.637  24.454  0.00  0.00    +0.033 A 
ATOM     17  C   UNL     1      -4.176  -2.399  24.001  0.00  0.00    +0.140 A 
ATOM     18  F   UNL     1      -4.696  -2.962  23.697  0.00  0.00    -0.204 F 
ATOM     19  C   UNL     1      -4.302  -1.598  23.853  0.00  0.00    +0.033 A 
ATOM     20  C   UNL     1      -3.781  -1.035  24.157  0.00  0.00    +0.039 A 
ENDBRANCH  13  14
ENDBRANCH  12  13
ENDBRANCH  11  12
TORSDOF 7
ENDMDL
MODEL 5
REMARK VINA RESULT:     -11.0      2.947      5.339
REMARK  Name = 
REMARK  7 active torsions:
REMARK  status: ('A' for Active; 'I' for Inactive)
REMARK    1  A    between atoms: C_2  and  C_4
REMARK    2  A    between atoms: C_6  and  C_7
REMARK    3  A    between atoms: C_7  and  C_8
REMARK    4  A    between atoms: C_11  and  C_12
REMARK    5  A    between atoms: C_12  and  O_13
REMARK    6  A    between atoms: O_13  and  C_14
REMARK    7  A    between atoms: C_25  and  C_26
REMARK                            x       y       z     vdW  Elec       q    Type
REMARK                         _______ _______ _______ _____ _____    ______ ____
ROOT
ATOM      8  C   UNL     1      -2.672   1.878  24.495  0.00  0.00    +0.227 A 
ATOM      9  N   UNL     1      -2.028   1.805  25.005  0.00  0.00    -0.112 NA
ATOM     10  N   UNL     1      -1.871   1.002  25.104  0.00  0.00    -0.108 NA
ATOM     11  C   UNL     1      -2.419   0.578  24.657  0.00  0.00    +0.270 A 
ATOM     21  O   UNL     1      -2.914   1.119  24.280  0.00  0.00    -0.420 OA
ENDROOT
BRANCH   8   7
ATOM      7  C   UNL     1      -3.015   2.585  24.245  0.00  0.00    +0.091 C 
BRANCH   7   6
ATOM      4  C   UNL     1      -5.021   2.627  25.105  0.00  0.00    +0.007 C 
ATOM      5  C   UNL     1      -4.335   2.349  24.740  0.00  0.00    +0.005 C 
ATOM      6  C   UNL     1      -3.701   2.862  24.609  0.00  0.00    +0.027 C 
ATOM     22  C   UNL     1      -3.755   3.652  24.843  0.00  0.00    -0.048 C 
ATOM     23  C   UNL     1      -3.122   4.164  24.712  0.00  0.00    +0.026 C 
ATOM     24  C   UNL     1      -4.442   3.929  25.207  0.00  0.00    -0.032 C 
ATOM     25  C   UNL     1      -5.075   3.416  25.338  0.00  0.00    +0.054 C 
BRANCH   4   2
ATOM      1  C   UNL     1      -5.759   1.768  25.978  0.00  0.00    +0.000 C 
ATOM      2  C   UNL     1      -5.654   2.114  25.235  0.00  0.00    +0.000 C 
ATOM      3  C   UNL     1      -6.184   1.947  24.624  0.00  0.00    +0.000 C 
ENDBRANCH   4   2
BRANCH  25  26
ATOM     26  C   UNL     1      -5.761   3.693  25.702  0.00  0.00    +0.186 C 
ATOM     27  O   UNL     1      -5.903   4.503  25.753  0.00  0.00    -0.220 OA
ENDBRANCH  25  26
ENDBRANCH   7   6
ENDBRANCH   8   7
BRANCH  11  12
ATOM     12  C   UNL     1      -2.463  -0.244  24.596  0.00  0.00    +0.291 C 
BRANCH  12  13
ATOM     13  O   UNL     1      -3.049  -0.657  25.006  0.00  0.00    -0.465 OA
BRANCH  13  14
ATOM     14  C   UNL     1      -3.278  -1.408  24.752  0.00  0.00    +0.139 A 
ATOM     15  C   UNL     1      -3.929  -1.492  24.252  0.00  0.00    +0.039 A 
ATOM     16  C   UNL     1      -4.158  -2.243  23.998  0.00  0.00    +0.033 A 
ATOM     17  C   UNL     1      -3.737  -2.909  24.244  0.00  0.00    +0.140 A 
ATOM     18  F   UNL     1      -3.967  -3.659  23.990  0.00  0.00    -0.204 F 
ATOM     19  C   UNL     1      -3.087  -2.823  24.744  0.00  0.00    +0.033 A 
ATOM     20  C   UNL     1      -2.858  -2.073  24.998  0.00  0.00    +0.039 A 
ENDBRANCH  13  14
ENDBRANCH  12  13
ENDBRANCH  11  12
TORSDOF 7
ENDMDL
MODEL 6
REMARK VINA RESULT:     -10.5      1.903      2.320
REMARK  Name = 
REMARK  7 active torsions:
REMARK  status: ('A' for Active; 'I' for Inactive)
REMARK    1  A    between atoms: C_2  and  C_4
REMARK    2  A    between atoms: C_6  and  C_7
REMARK    3  A    between atoms: C_7  and  C_8
REMARK    4  A    between atoms: C_11  and  C_12
REMARK    5  A    between atoms: C_12  and  O_13
REMARK    6  A    between atoms: O_13  and  C_14
REMARK    7  A    between atoms: C_25  and  C_26
REMARK                            x       y       z     vdW  Elec       q    Type
REMARK                         _______ _______ _______ _____ _____    ______ ____
ROOT
ATOM      8  C   UNL     1      -1.301   1.062  24.751  0.00  0.00    +0.227 A 
ATOM      9  N   UNL     1      -1.066   1.446  24.060  0.00  0.00    -0.112 NA
ATOM     10  N   UNL     1      -1.541   2.113  23.965  0.00  0.00    -0.108 NA
ATOM     11  C   UNL     1      -2.070   2.142  24.598  0.00  0.00    +0.270 A 
ATOM     21  O   UNL     1      -1.922   1.493  25.083  0.00  0.00    -0.420 OA
ENDROOT
BRANCH   8   7
ATOM      7  C   UNL     1      -0.973   0.370  25.056  0.00  0.00    +0.091 C 
BRANCH   7   6
ATOM      4  C   UNL     1      -2.528  -1.160  24.960  0.00  0.00    +0.007 C 
ATOM      5  C   UNL     1      -2.154  -0.435  25.087  0.00  0.00    +0.005 C 
ATOM      6  C   UNL     1      -1.347  -0.354  24.929  0.00  0.00    +0.027 C 
ATOM     22  C   UNL     1      -0.916  -0.998  24.645  0.00  0.00    -0.048 C 
ATOM     23  C   UNL     1      -0.110  -0.916  24.487  0.00  0.00    +0.026 C 
ATOM     24  C   UNL     1      -1.290  -1.722  24.517  0.00  0.00    -0.032 C 
ATOM     25  C   UNL     1      -2.097  -1.804  24.675  0.00  0.00    +0.054 C 
BRANCH   4   2
ATOM      1  C   UNL     1      -3.592  -1.378  25.890  0.00  0.00    +0.000 C 
ATOM      2  C   UNL     1      -3.333  -1.241  25.117  0.00  0.00    +0.000 C 
ATOM      3  C   UNL     1      -3.882  -1.186  24.503  0.00  0.00    +0.000 C 
ENDBRANCH   4   2
BRANCH  25  26
ATOM     26  C   UNL     1      -2.470  -2.527  24.548  0.00  0.00    +0.186 C 
ATOM     27  O   UNL     1      -2.062  -3.144  24.183  0.00  0.00    -0.220 OA
ENDBRANCH  25  26
ENDBRANCH   7   6
ENDBRANCH   8   7
BRANCH  11  12
ATOM     12  C   UNL     1      -2.647   2.720  24.722  0.00  0.00    +0.291 C 
BRANCH  12  13
ATOM     13  O   UNL     1      -3.378   2.661  24.345  0.00  0.00    -0.465 OA
BRANCH  13  14
ATOM     14  C   UNL     1      -4.061   2.923  24.726  0.00  0.00    +0.139 A 
ATOM     15  C   UNL     1      -4.720   2.428  24.778  0.00  0.00    +0.039 A 
ATOM     16  C   UNL     1      -5.402   2.690  25.160  0.00  0.00    +0.033 A 
ATOM     17  C   UNL     1      -5.427   3.446  25.490  0.00  0.00    +0.140 A 
ATOM     18  F   UNL     1      -6.110   3.707  25.871  0.00  0.00    -0.204 F 
ATOM     19  C   UNL     1      -4.768   3.940  25.438  0.00  0.00    +0.033 A 
ATOM     20  C   UNL     1      -4.086   3.678  25.056  0.00  0.00    +0.039 A 
ENDBRANCH  13  14
ENDBRANCH  12  13
ENDBRANCH  11  12
TORSDOF 7
ENDMDL
