MODEL 1
REMARK VINA RESULT:     -10.8      0.000      0.000
REMARK  Name = 
REMARK  8 active torsions:
REMARK  status: ('A' for Active; 'I' for Inactive)
REMARK    1  A    between atoms: O_2  and  C_3
REMARK    2  A    between atoms: C_8  and  O_9
REMARK    3  A    between atoms: C_11  and  C_12
REMARK    4  A    between atoms: C_12  and  C_13
REMARK    5  A    between atoms: C_18  and  C_19
REMARK    6  A    between atoms: C_19  and  C_20
REMARK    7  A    between atoms: N_25  and  C_26
REMARK    8  A    between atoms: C_29  and  C_32
REMARK                            x       y       z     vdW  Elec       q    Type
REMARK                         _______ _______ _______ _____ _____    ______ ____
ROOT
ATOM     13  C   UNL     1      -4.112   2.584  24.812  0.00  0.00    +0.026 C 
ATOM     14  C   UNL     1      -4.054   1.764  24.754  0.00  0.00    +0.095 C 
ATOM     15  N   UNL     1      -4.694   1.289  24.969  0.00  0.00    -0.263 N 
ATOM     16  C   UNL     1      -5.391   1.636  25.242  0.00  0.00    +0.095 C 
ATOM     17  C   UNL     1      -5.449   2.456  25.299  0.00  0.00    +0.022 C 
ATOM     18  C   UNL     1      -4.810   2.931  25.085  0.00  0.00    +0.015 C 
ATOM     23  C   UNL     1      -4.636   0.468  24.911  0.00  0.00    +0.327 C 
ATOM     24  O   UNL     1      -5.275  -0.006  25.126  0.00  0.00    -0.250 OA
ATOM     25  N   UNL     1      -3.938   0.123  24.639  0.00  0.00    -0.162 NA
ENDROOT
BRANCH  25  26
ATOM     26  C   UNL     1      -3.880  -0.698  24.581  0.00  0.00    +0.075 A 
ATOM     27  C   UNL     1      -3.546  -1.133  25.197  0.00  0.00    +0.016 A 
ATOM     28  C   UNL     1      -3.487  -1.954  25.139  0.00  0.00    -0.003 A 
ATOM     29  C   UNL     1      -3.763  -2.341  24.465  0.00  0.00    -0.022 A 
ATOM     30  C   UNL     1      -4.098  -1.906  23.848  0.00  0.00    -0.003 A 
ATOM     31  C   UNL     1      -4.156  -1.085  23.906  0.00  0.00    +0.016 A 
BRANCH  29  32
ATOM     32  C   UNL     1      -3.705  -3.162  24.408  0.00  0.00    +0.022 C 
ATOM     33  C   UNL     1      -3.230  -3.580  24.936  0.00  0.00    +0.005 C 
ATOM     34  C   UNL     1      -4.123  -3.564  23.821  0.00  0.00    +0.005 C 
ENDBRANCH  29  32
ENDBRANCH  25  26
BRANCH  13  12
ATOM     12  C   UNL     1      -3.473   3.060  24.597  0.00  0.00    +0.047 C 
BRANCH  12  11
ATOM      3  C   UNL     1      -0.550   2.542  24.396  0.00  0.00    +0.172 A 
ATOM      4  C   UNL     1      -0.859   2.406  23.643  0.00  0.00    +0.036 A 
ATOM      5  C   UNL     1      -1.667   2.501  23.505  0.00  0.00    -0.016 A 
ATOM      6  C   UNL     1      -2.167   2.733  24.120  0.00  0.00    +0.012 A 
ATOM      7  C   UNL     1      -1.857   2.869  24.873  0.00  0.00    +0.041 A 
ATOM      8  C   UNL     1      -1.049   2.774  25.011  0.00  0.00    +0.172 A 
ATOM     11  C   UNL     1      -2.974   2.828  23.982  0.00  0.00    +0.054 C 
ATOM     35  N   UNL     1      -3.283   2.692  23.230  0.00  0.00    -0.274 NA
ATOM     36  C   UNL     1      -2.783   2.461  22.615  0.00  0.00    +0.130 C 
ATOM     37  C   UNL     1      -1.976   2.365  22.752  0.00  0.00    +0.053 C 
BRANCH   3   2
ATOM      1  C   UNL     1       0.667   1.829  24.174  0.00  0.00    +0.253 C 
ATOM      2  O   UNL     1       0.258   2.447  24.534  0.00  0.00    -0.468 OA
ENDBRANCH   3   2
BRANCH   8   9
ATOM      9  O   UNL     1      -0.740   2.910  25.764  0.00  0.00    -0.468 OA
ATOM     10  C   UNL     1      -1.116   3.436  26.275  0.00  0.00    +0.253 C 
ENDBRANCH   8   9
ENDBRANCH  12  11
ENDBRANCH  13  12
BRANCH  18  19
ATOM     19  C   UNL     1      -4.868   3.752  25.143  0.00  0.00    +0.114 C 
BRANCH  19  20
ATOM     20  C   UNL     1      -5.321   4.092  25.741  0.00  0.00    +0.365 C 
ATOM     21  O   UNL     1      -5.015   4.159  26.504  0.00  0.00    -0.246 OA
ATOM     22  O   UNL     1      -6.083   4.365  25.577  0.00  0.00    -0.246 OA
ENDBRANCH  19  20
ENDBRANCH  18  19
TORSDOF 8
ENDMDL
MODEL 2
REMARK VINA RESULT:      -9.4      1.299      3.497
REMARK  Name = 
REMARK  8 active torsions:
REMARK  status: ('A' for Active; 'I' for Inactive)
REMARK    1  A    between atoms: O_2  and  C_3
REMARK    2  A    between atoms: C_8  and  O_9
REMARK    3  A    between atoms: C_11  and  C_12
REMARK    4  A    between atoms: C_12  and  C_13
REMARK    5  A    between atoms: C_18  and  C_19
REMARK    6  A    between atoms: C_19  and  C_20
REMARK    7  A    between atoms: N_25  and  C_26
REMARK    8  A    between atoms: C_29  and  C_32
REMARK                            x       y       z     vdW  Elec       q    Type
REMARK                         _______ _______ _______ _____ _____    ______ ____
ROOT
ATOM     13  C   UNL     1      -1.568   2.031  25.189  0.00  0.00    +0.026 C 
ATOM     14  C   UNL     1      -1.942   1.315  25.029  0.00  0.00    +0.095 C 
ATOM     15  N   UNL     1      -1.506   0.613  25.021  0.00  0.00    -0.263 N 
ATOM     16  C   UNL     1      -0.696   0.631  25.175  0.00  0.00    +0.095 C 
ATOM     17  C   UNL     1      -0.321   1.347  25.335  0.00  0.00    +0.022 C 
ATOM     18  C   UNL     1      -0.756   2.048  25.343  0.00  0.00    +0.015 C 
ATOM     23  C   UNL     1      -1.881  -0.104  24.861  0.00  0.00    +0.327 C 
ATOM     24  O   UNL     1      -1.445  -0.804  24.853  0.00  0.00    -0.250 OA
ATOM     25  N   UNL     1      -2.692  -0.120  24.708  0.00  0.00    -0.162 NA
ENDROOT
BRANCH  25  26
ATOM     26  C   UNL     1      -3.066  -0.837  24.547  0.00  0.00    +0.075 A 
ATOM     27  C   UNL     1      -3.437  -0.955  23.820  0.00  0.00    +0.016 A 
ATOM     28  C   UNL     1      -3.812  -1.673  23.660  0.00  0.00    -0.003 A 
ATOM     29  C   UNL     1      -3.817  -2.272  24.226  0.00  0.00    -0.022 A 
ATOM     30  C   UNL     1      -3.445  -2.154  24.954  0.00  0.00    -0.003 A 
ATOM     31  C   UNL     1      -3.071  -1.437  25.115  0.00  0.00    +0.016 A 
BRANCH  29  32
ATOM     32  C   UNL     1      -4.191  -2.989  24.066  0.00  0.00    +0.022 C 
ATOM     33  C   UNL     1      -3.886  -3.691  24.371  0.00  0.00    +0.005 C 
ATOM     34  C   UNL     1      -4.872  -3.003  23.599  0.00  0.00    +0.005 C 
ENDBRANCH  29  32
ENDBRANCH  25  26
BRANCH  13  12
ATOM     12  C   UNL     1      -2.003   2.732  25.197  0.00  0.00    +0.047 C 
BRANCH  12  11
ATOM      3  C   UNL     1      -4.779   3.777  25.425  0.00  0.00    +0.172 A 
ATOM      4  C   UNL     1      -4.674   3.575  24.632  0.00  0.00    +0.036 A 
ATOM      5  C   UNL     1      -3.954   3.263  24.376  0.00  0.00    -0.016 A 
ATOM      6  C   UNL     1      -3.338   3.153  24.915  0.00  0.00    +0.012 A 
ATOM      7  C   UNL     1      -3.442   3.355  25.708  0.00  0.00    +0.041 A 
ATOM      8  C   UNL     1      -4.162   3.667  25.964  0.00  0.00    +0.172 A 
ATOM     11  C   UNL     1      -2.618   2.841  24.659  0.00  0.00    +0.054 C 
ATOM     35  N   UNL     1      -2.514   2.639  23.867  0.00  0.00    -0.274 NA
ATOM     36  C   UNL     1      -3.131   2.749  23.328  0.00  0.00    +0.130 C 
ATOM     37  C   UNL     1      -3.850   3.061  23.584  0.00  0.00    +0.053 C 
BRANCH   3   2
ATOM      1  C   UNL     1      -6.207   3.774  25.400  0.00  0.00    +0.253 C 
ATOM      2  O   UNL     1      -5.498   4.089  25.680  0.00  0.00    -0.468 OA
ENDBRANCH   3   2
BRANCH   8   9
ATOM      9  O   UNL     1      -4.266   3.869  26.756  0.00  0.00    -0.468 OA
ATOM     10  C   UNL     1      -3.636   4.177  27.190  0.00  0.00    +0.253 C 
ENDBRANCH   8   9
ENDBRANCH  12  11
ENDBRANCH  13  12
BRANCH  18  19
ATOM     19  C   UNL     1      -0.382   2.765  25.503  0.00  0.00    +0.114 C 
BRANCH  19  20
ATOM     20  C   UNL     1       0.404   2.772  25.755  0.00  0.00    +0.365 C 
ATOM     21  O   UNL     1       1.015   2.761  25.201  0.00  0.00    -0.246 OA
ATOM     22  O   UNL     1       0.578   2.791  26.562  0.00  0.00    -0.246 OA
ENDBRANCH  19  20
ENDBRANCH  18  19
TORSDOF 8
ENDMDL
MODEL 3
REMARK VINA RESULT:      -9.3      2.355      4.926
REMARK  Name = 
REMARK  8 active torsions:
REMARK  status: ('A' for Active; 'I' for Inactive)
REMARK    1  A    between atoms: O_2  and  C_3
REMARK    2  A    between atoms: C_8  and  O_9
REMARK    3  A    between atoms: C_11  and  C_12
REMARK    4  A    between atoms: C_12  and  C_13
REMARK    5  A    between atoms: C_18  and  C_19
REMARK    6  A    between atoms: C_19  and  C_20
REMARK    7  A    between atoms: N_25  and  C_26
REMARK    8  A    between atoms: C_29  and  C_32
REMARK                            x       y       z     vdW  Elec       q    Type
REMARK                         _______ _______ _______ _____ _____    ______ ____
ROOT
ATOM     13  C   UNL     1      -1.812   0.476  24.850  0.00  0.00    +0.026 C 
ATOM     14  C   UNL     1      -1.077   0.463  24.477  0.00  0.00    +0.095 C 
ATOM     15  N   UNL     1      -0.742  -0.257  24.250  0.00  0.00    -0.263 N 
ATOM     16  C   UNL     1      -1.143  -0.962  24.398  0.00  0.00    +0.095 C 
ATOM     17  C   UNL     1      -1.878  -0.949  24.772  0.00  0.00    +0.022 C 
ATOM     18  C   UNL     1      -2.213  -0.230  24.998  0.00  0.00    +0.015 C 
ATOM     23  C   UNL     1      -0.007  -0.271  23.876  0.00  0.00    +0.327 C 
ATOM     24  O   UNL     1       0.327  -0.990  23.650  0.00  0.00    -0.250 OA
ATOM     25  N   UNL     1       0.393   0.436  23.728  0.00  0.00    -0.162 NA
ENDROOT
BRANCH  25  26
ATOM     26  C   UNL     1       1.128   0.422  23.354  0.00  0.00    +0.075 A 
ATOM     27  C   UNL     1       1.229  -0.007  22.657  0.00  0.00    +0.016 A 
ATOM     28  C   UNL     1       1.964  -0.021  22.283  0.00  0.00    -0.003 A 
ATOM     29  C   UNL     1       2.600   0.395  22.606  0.00  0.00    -0.022 A 
ATOM     30  C   UNL     1       2.499   0.825  23.304  0.00  0.00    -0.003 A 
ATOM     31  C   UNL     1       1.764   0.838  23.678  0.00  0.00    +0.016 A 
BRANCH  29  32
ATOM     32  C   UNL     1       3.335   0.381  22.232  0.00  0.00    +0.022 C 
ATOM     33  C   UNL     1       3.993   0.709  22.605  0.00  0.00    +0.005 C 
ATOM     34  C   UNL     1       3.411   0.040  21.484  0.00  0.00    +0.005 C 
ENDBRANCH  29  32
ENDBRANCH  25  26
BRANCH  13  12
ATOM     12  C   UNL     1      -2.147   1.195  25.077  0.00  0.00    +0.047 C 
BRANCH  12  11
ATOM      3  C   UNL     1      -2.198   4.170  25.107  0.00  0.00    +0.172 A 
ATOM      4  C   UNL     1      -1.560   3.947  25.581  0.00  0.00    +0.036 A 
ATOM      5  C   UNL     1      -1.387   3.148  25.692  0.00  0.00    -0.016 A 
ATOM      6  C   UNL     1      -1.853   2.570  25.329  0.00  0.00    +0.012 A 
ATOM      7  C   UNL     1      -2.491   2.794  24.855  0.00  0.00    +0.041 A 
ATOM      8  C   UNL     1      -2.664   3.593  24.744  0.00  0.00    +0.172 A 
ATOM     11  C   UNL     1      -1.681   1.772  25.440  0.00  0.00    +0.054 C 
ATOM     35  N   UNL     1      -1.044   1.549  25.913  0.00  0.00    -0.274 NA
ATOM     36  C   UNL     1      -0.578   2.126  26.276  0.00  0.00    +0.130 C 
ATOM     37  C   UNL     1      -0.750   2.925  26.165  0.00  0.00    +0.053 C 
BRANCH   3   2
ATOM      1  C   UNL     1      -1.786   5.537  25.119  0.00  0.00    +0.253 C 
ATOM      2  O   UNL     1      -2.370   4.969  24.996  0.00  0.00    -0.468 OA
ENDBRANCH   3   2
BRANCH   8   9
ATOM      9  O   UNL     1      -3.301   3.816  24.270  0.00  0.00    -0.468 OA
ATOM     10  C   UNL     1      -3.984   3.356  24.256  0.00  0.00    +0.253 C 
ENDBRANCH   8   9
ENDBRANCH  12  11
ENDBRANCH  13  12
BRANCH  18  19
ATOM     19  C   UNL     1      -2.948  -0.216  25.372  0.00  0.00    +0.114 C 
BRANCH  19  20
ATOM     20  C   UNL     1      -3.416  -0.895  25.386  0.00  0.00    +0.365 C 
ATOM     21  O   UNL     1      -3.927  -1.057  24.759  0.00  0.00    -0.246 OA
ATOM     22  O   UNL     1      -3.373  -1.413  26.028  0.00  0.00    -0.246 OA
ENDBRANCH  19  20
ENDBRANCH  18  19
TORSDOF 8
ENDMDL
MODEL 4
REMARK VINA RESULT:      -9.1      1.906      3.844
REMARK  Name = 
REMARK  8 active torsions:
REMARK  status: ('A' for Active; 'I' for Inactive)
REMARK    1  A    between atoms: O_2  and  C_3
REMARK    2  A    between atoms: C_8  and  O_9
REMARK    3  A    between atoms: C_11  and  C_12
REMARK    4  A    between atoms: C_12  and  C_13
REMARK    5  A    between atoms: C_18  and  C_19
REMARK    6  A    between atoms: C_19  and  C_20
REMARK    7  A    between atoms: N_25  and  C_26
REMARK    8  A    between atoms: C_29  and  C_32
REMARK                            x       y       z     vdW  Elec       q    Type
REMARK                         _______ _______ _______ _____ _____    ______ ____
ROOT
ATOM     13  C   UNL     1      -1.975   3.396  24.941  0.00  0.00    +0.026 C 
ATOM     14  C   UNL     1      -1.774   2.597  24.977  0.00  0.00    +0.095 C 
ATOM     15  N   UNL     1      -0.990   2.374  25.105  0.00  0.00    -0.263 N 
ATOM     16  C   UNL     1      -0.407   2.951  25.197  0.00  0.00    +0.095 C 
ATOM     17  C   UNL     1      -0.608   3.749  25.161  0.00  0.00    +0.022 C 
ATOM     18  C   UNL     1      -1.391   3.973  25.033  0.00  0.00    +0.015 C 
ATOM     23  C   UNL     1      -0.789   1.575  25.142  0.00  0.00    +0.327 C 
ATOM     24  O   UNL     1      -0.006   1.352  25.270  0.00  0.00    -0.250 OA
ATOM     25  N   UNL     1      -1.373   0.999  25.050  0.00  0.00    -0.162 NA
ENDROOT
BRANCH  25  26
ATOM     26  C   UNL     1      -1.172   0.199  25.086  0.00  0.00    +0.075 A 
ATOM     27  C   UNL     1      -1.330  -0.236  25.769  0.00  0.00    +0.016 A 
ATOM     28  C   UNL     1      -1.129  -1.035  25.806  0.00  0.00    -0.003 A 
ATOM     29  C   UNL     1      -0.770  -1.400  25.159  0.00  0.00    -0.022 A 
ATOM     30  C   UNL     1      -0.612  -0.966  24.475  0.00  0.00    -0.003 A 
ATOM     31  C   UNL     1      -0.813  -0.166  24.439  0.00  0.00    +0.016 A 
BRANCH  29  32
ATOM     32  C   UNL     1      -0.569  -2.200  25.195  0.00  0.00    +0.022 C 
ATOM     33  C   UNL     1      -1.120  -2.773  24.977  0.00  0.00    +0.005 C 
ATOM     34  C   UNL     1       0.183  -2.425  25.450  0.00  0.00    +0.005 C 
ENDBRANCH  29  32
ENDBRANCH  25  26
BRANCH  13  12
ATOM     12  C   UNL     1      -2.758   3.619  24.813  0.00  0.00    +0.047 C 
BRANCH  12  11
ATOM      3  C   UNL     1      -5.476   2.429  25.036  0.00  0.00    +0.172 A 
ATOM      4  C   UNL     1      -5.205   2.242  24.279  0.00  0.00    +0.036 A 
ATOM      5  C   UNL     1      -4.458   2.492  24.034  0.00  0.00    -0.016 A 
ATOM      6  C   UNL     1      -3.981   2.931  24.546  0.00  0.00    +0.012 A 
ATOM      7  C   UNL     1      -4.252   3.118  25.303  0.00  0.00    +0.041 A 
ATOM      8  C   UNL     1      -4.999   2.868  25.548  0.00  0.00    +0.172 A 
ATOM     11  C   UNL     1      -3.235   3.181  24.301  0.00  0.00    +0.054 C 
ATOM     35  N   UNL     1      -2.964   2.994  23.546  0.00  0.00    -0.274 NA
ATOM     36  C   UNL     1      -3.441   2.555  23.033  0.00  0.00    +0.130 C 
ATOM     37  C   UNL     1      -4.187   2.305  23.278  0.00  0.00    +0.053 C 
BRANCH   3   2
ATOM      1  C   UNL     1      -6.593   1.550  24.897  0.00  0.00    +0.253 C 
ATOM      2  O   UNL     1      -6.223   2.179  25.280  0.00  0.00    -0.468 OA
ENDBRANCH   3   2
BRANCH   8   9
ATOM      9  O   UNL     1      -5.270   3.055  26.304  0.00  0.00    -0.468 OA
ATOM     10  C   UNL     1      -5.135   3.806  26.616  0.00  0.00    +0.253 C 
ENDBRANCH   8   9
ENDBRANCH  12  11
ENDBRANCH  13  12
BRANCH  18  19
ATOM     19  C   UNL     1      -1.592   4.772  24.996  0.00  0.00    +0.114 C 
BRANCH  19  20
ATOM     20  C   UNL     1      -1.009   5.337  24.853  0.00  0.00    +0.365 C 
ATOM     21  O   UNL     1      -0.515   5.264  24.196  0.00  0.00    -0.246 OA
ATOM     22  O   UNL     1      -0.919   5.977  25.367  0.00  0.00    -0.246 OA
ENDBRANCH  19  20
ENDBRANCH  18  19
TORSDOF 8
ENDMDL
MODEL 5
REMARK VINA RESULT:      -8.8      1.657      4.551
REMARK  Name = 
REMARK  8 active torsions:
REMARK  status: ('A' for Active; 'I' for Inactive)
REMARK    1  A    between atoms: O_2  and  C_3
REMARK    2  A    between atoms: C_8  and  O_9
REMARK    3  A    between atoms: C_11  and  C_12
REMARK    4  A    between atoms: C_12  and  C_13
REMARK    5  A    between atoms: C_18  and  C_19
REMARK    6  A    between atoms: C_19  and  C_20
REMARK    7  A    between atoms: N_25  and  C_26
REMARK    8  A    between atoms: C_29  and  C_32
REMARK                            x       y       z     vdW  Elec       q    Type
REMARK                         _______ _______ _______ _____ _____    ______ ____
ROOT
ATOM     13  C   UNL     1      -2.758   1.721  24.853  0.00  0.00    +0.026 C 
ATOM     14  C   UNL     1      -2.015   1.525  24.555  0.00  0.00    +0.095 C 
ATOM     15  N   UNL     1      -1.465   2.119  24.392  0.00  0.00    -0.263 N 
ATOM     16  C   UNL     1      -1.661   2.909  24.527  0.00  0.00    +0.095 C 
ATOM     17  C   UNL     1      -2.403   3.105  24.824  0.00  0.00    +0.022 C 
ATOM     18  C   UNL     1      -2.953   2.512  24.988  0.00  0.00    +0.015 C 
ATOM     23  C   UNL     1      -0.722   1.922  24.094  0.00  0.00    +0.327 C 
ATOM     24  O   UNL     1      -0.173   2.516  23.931  0.00  0.00    -0.250 OA
ATOM     25  N   UNL     1      -0.528   1.131  23.959  0.00  0.00    -0.162 NA
ENDROOT
BRANCH  25  26
ATOM     26  C   UNL     1       0.216   0.935  23.662  0.00  0.00    +0.075 A 
ATOM     27  C   UNL     1       0.295   0.312  23.126  0.00  0.00    +0.016 A 
ATOM     28  C   UNL     1       1.039   0.116  22.828  0.00  0.00    -0.003 A 
ATOM     29  C   UNL     1       1.705   0.541  23.065  0.00  0.00    -0.022 A 
ATOM     30  C   UNL     1       1.626   1.164  23.601  0.00  0.00    -0.003 A 
ATOM     31  C   UNL     1       0.882   1.361  23.899  0.00  0.00    +0.016 A 
BRANCH  29  32
ATOM     32  C   UNL     1       2.448   0.345  22.767  0.00  0.00    +0.022 C 
ATOM     33  C   UNL     1       3.125   0.695  23.083  0.00  0.00    +0.005 C 
ATOM     34  C   UNL     1       2.515  -0.203  22.153  0.00  0.00    +0.005 C 
ENDBRANCH  29  32
ENDBRANCH  25  26
BRANCH  13  12
ATOM     12  C   UNL     1      -3.307   1.128  25.016  0.00  0.00    +0.047 C 
BRANCH  12  11
ATOM      3  C   UNL     1      -3.574  -1.834  25.084  0.00  0.00    +0.172 A 
ATOM      4  C   UNL     1      -3.714  -1.609  24.303  0.00  0.00    +0.036 A 
ATOM      5  C   UNL     1      -3.683  -0.813  24.090  0.00  0.00    -0.016 A 
ATOM      6  C   UNL     1      -3.511  -0.240  24.660  0.00  0.00    +0.012 A 
ATOM      7  C   UNL     1      -3.370  -0.465  25.441  0.00  0.00    +0.041 A 
ATOM      8  C   UNL     1      -3.402  -1.262  25.654  0.00  0.00    +0.172 A 
ATOM     11  C   UNL     1      -3.479   0.556  24.447  0.00  0.00    +0.054 C 
ATOM     35  N   UNL     1      -3.620   0.781  23.667  0.00  0.00    -0.274 NA
ATOM     36  C   UNL     1      -3.792   0.208  23.097  0.00  0.00    +0.130 C 
ATOM     37  C   UNL     1      -3.823  -0.588  23.309  0.00  0.00    +0.053 C 
BRANCH   3   2
ATOM      1  C   UNL     1      -3.581  -3.214  24.715  0.00  0.00    +0.253 C 
ATOM      2  O   UNL     1      -3.605  -2.630  25.297  0.00  0.00    -0.468 OA
ENDBRANCH   3   2
BRANCH   8   9
ATOM      9  O   UNL     1      -3.262  -1.486  26.435  0.00  0.00    -0.468 OA
ATOM     10  C   UNL     1      -2.547  -1.294  26.797  0.00  0.00    +0.253 C 
ENDBRANCH   8   9
ENDBRANCH  12  11
ENDBRANCH  13  12
BRANCH  18  19
ATOM     19  C   UNL     1      -3.697   2.709  25.285  0.00  0.00    +0.114 C 
BRANCH  19  20
ATOM     20  C   UNL     1      -3.883   3.497  25.441  0.00  0.00    +0.365 C 
ATOM     21  O   UNL     1      -3.714   3.824  26.179  0.00  0.00    -0.246 OA
ATOM     22  O   UNL     1      -4.239   3.959  24.856  0.00  0.00    -0.246 OA
ENDBRANCH  19  20
ENDBRANCH  18  19
TORSDOF 8
ENDMDL
MODEL 6
REMARK VINA RESULT:      -8.4      1.737      2.226
REMARK  Name = 
REMARK  8 active torsions:
REMARK  status: ('A' for Active; 'I' for Inactive)
REMARK    1  A    between atoms: O_2  and  C_3
REMARK    2  A    between atoms: C_8  and  O_9
REMARK    3  A    between atoms: C_11  and  C_12
REMARK    4  A    between atoms: C_12  and  C_13
REMARK    5  A    between atoms: C_18  and  C_19
REMARK    6  A    between atoms: C_19  and  C_20
REMARK    7  A    between atoms: N_25  and  C_26
REMARK    8  A    between atoms: C_29  and  C_32
REMARK                            x       y       z     vdW  Elec       q    Type
REMARK                         _______ _______ _______ _____ _____    ______ ____
ROOT
ATOM     13  C   UNL     1      -4.367   1.710  24.865  0.00  0.00    +0.026 C 
ATOM     14  C   UNL     1      -3.789   1.125  24.917  0.00  0.00    +0.095 C 
ATOM     15  N   UNL     1      -4.006   0.341  25.058  0.00  0.00    -0.263 N 
ATOM     16  C   UNL     1      -4.802   0.144  25.147  0.00  0.00    +0.095 C 
ATOM     17  C   UNL     1      -5.380   0.729  25.095  0.00  0.00    +0.022 C 
ATOM     18  C   UNL     1      -5.163   1.513  24.954  0.00  0.00    +0.015 C 
ATOM     23  C   UNL     1      -3.428  -0.245  25.110  0.00  0.00    +0.327 C 
ATOM     24  O   UNL     1      -3.645  -1.027  25.251  0.00  0.00    -0.250 OA
ATOM     25  N   UNL     1      -2.631  -0.047  25.021  0.00  0.00    -0.162 NA
ENDROOT
BRANCH  25  26
ATOM     26  C   UNL     1      -2.053  -0.632  25.073  0.00  0.00    +0.075 A 
ATOM     27  C   UNL     1      -1.957  -1.174  24.458  0.00  0.00    +0.016 A 
ATOM     28  C   UNL     1      -1.379  -1.760  24.510  0.00  0.00    -0.003 A 
ATOM     29  C   UNL     1      -0.895  -1.805  25.176  0.00  0.00    -0.022 A 
ATOM     30  C   UNL     1      -0.990  -1.263  25.792  0.00  0.00    -0.003 A 
ATOM     31  C   UNL     1      -1.569  -0.677  25.740  0.00  0.00    +0.016 A 
BRANCH  29  32
ATOM     32  C   UNL     1      -0.316  -2.390  25.228  0.00  0.00    +0.022 C 
ATOM     33  C   UNL     1       0.454  -2.191  25.442  0.00  0.00    +0.005 C 
ATOM     34  C   UNL     1      -0.510  -3.176  25.066  0.00  0.00    +0.005 C 
ENDBRANCH  29  32
ENDBRANCH  25  26
BRANCH  13  12
ATOM     12  C   UNL     1      -4.150   2.493  24.724  0.00  0.00    +0.047 C 
BRANCH  12  11
ATOM      3  C   UNL     1      -1.765   4.248  25.020  0.00  0.00    +0.172 A 
ATOM      4  C   UNL     1      -1.695   3.888  24.281  0.00  0.00    +0.036 A 
ATOM      5  C   UNL     1      -2.274   3.360  24.021  0.00  0.00    -0.016 A 
ATOM      6  C   UNL     1      -2.923   3.190  24.502  0.00  0.00    +0.012 A 
ATOM      7  C   UNL     1      -2.993   3.550  25.242  0.00  0.00    +0.041 A 
ATOM      8  C   UNL     1      -2.415   4.079  25.501  0.00  0.00    +0.172 A 
ATOM     11  C   UNL     1      -3.501   2.662  24.244  0.00  0.00    +0.054 C 
ATOM     35  N   UNL     1      -3.431   2.303  23.505  0.00  0.00    -0.274 NA
ATOM     36  C   UNL     1      -2.781   2.472  23.024  0.00  0.00    +0.130 C 
ATOM     37  C   UNL     1      -2.203   3.000  23.283  0.00  0.00    +0.053 C 
BRANCH   3   2
ATOM      1  C   UNL     1      -0.530   4.932  24.806  0.00  0.00    +0.253 C 
ATOM      2  O   UNL     1      -1.188   4.776  25.278  0.00  0.00    -0.468 OA
ENDBRANCH   3   2
BRANCH   8   9
ATOM      9  O   UNL     1      -2.486   4.438  26.240  0.00  0.00    -0.468 OA
ATOM     10  C   UNL     1      -3.187   4.368  26.668  0.00  0.00    +0.253 C 
ENDBRANCH   8   9
ENDBRANCH  12  11
ENDBRANCH  13  12
BRANCH  18  19
ATOM     19  C   UNL     1      -5.742   2.098  24.903  0.00  0.00    +0.114 C 
BRANCH  19  20
ATOM     20  C   UNL     1      -6.482   1.977  25.244  0.00  0.00    +0.365 C 
ATOM     21  O   UNL     1      -7.117   1.728  24.779  0.00  0.00    -0.246 OA
ATOM     22  O   UNL     1      -6.590   2.106  26.053  0.00  0.00    -0.246 OA
ENDBRANCH  19  20
ENDBRANCH  18  19
TORSDOF 8
ENDMDL
MODEL 7
REMARK VINA RESULT:      -8.1      1.695      4.685
REMARK  Name = 
REMARK  8 active torsions:
REMARK  status: ('A' for Active; 'I' for Inactive)
REMARK    1  A    between atoms: O_2  and  C_3
REMARK    2  A    between atoms: C_8  and  O_9
REMARK    3  A    between atoms: C_11  and  C_12
REMARK    4  A    between atoms: C_12  and  C_13
REMARK    5  A    between atoms: C_18  and  C_19
REMARK    6  A    between atoms: C_19  and  C_20
REMARK    7  A    between atoms: N_25  and  C_26
REMARK    8  A    between atoms: C_29  and  C_32
REMARK                            x       y       z     vdW  Elec       q    Type
REMARK                         _______ _______ _______ _____ _____    ______ ____
ROOT
ATOM     13  C   UNL     1      -2.924  -0.974  24.518  0.00  0.00    +0.026 C 
ATOM     14  C   UNL     1      -3.284  -0.242  24.637  0.00  0.00    +0.095 C 
ATOM     15  N   UNL     1      -4.107  -0.177  24.606  0.00  0.00    -0.263 N 
ATOM     16  C   UNL     1      -4.568  -0.844  24.456  0.00  0.00    +0.095 C 
ATOM     17  C   UNL     1      -4.208  -1.576  24.337  0.00  0.00    +0.022 C 
ATOM     18  C   UNL     1      -3.386  -1.642  24.368  0.00  0.00    +0.015 C 
ATOM     23  C   UNL     1      -4.467   0.556  24.725  0.00  0.00    +0.327 C 
ATOM     24  O   UNL     1      -5.288   0.621  24.694  0.00  0.00    -0.250 OA
ATOM     25  N   UNL     1      -4.005   1.223  24.875  0.00  0.00    -0.162 NA
ENDROOT
BRANCH  25  26
ATOM     26  C   UNL     1      -4.365   1.955  24.993  0.00  0.00    +0.075 A 
ATOM     27  C   UNL     1      -4.269   2.558  24.438  0.00  0.00    +0.016 A 
ATOM     28  C   UNL     1      -4.629   3.290  24.557  0.00  0.00    -0.003 A 
ATOM     29  C   UNL     1      -5.086   3.422  25.231  0.00  0.00    -0.022 A 
ATOM     30  C   UNL     1      -5.183   2.819  25.787  0.00  0.00    -0.003 A 
ATOM     31  C   UNL     1      -4.823   2.086  25.668  0.00  0.00    +0.016 A 
BRANCH  29  32
ATOM     32  C   UNL     1      -5.447   4.154  25.350  0.00  0.00    +0.022 C 
ATOM     33  C   UNL     1      -5.014   4.848  25.247  0.00  0.00    +0.005 C 
ATOM     34  C   UNL     1      -6.241   4.192  25.572  0.00  0.00    +0.005 C 
ENDBRANCH  29  32
ENDBRANCH  25  26
BRANCH  13  12
ATOM     12  C   UNL     1      -2.103  -1.040  24.549  0.00  0.00    +0.047 C 
BRANCH  12  11
ATOM      3  C   UNL     1       0.119   0.919  24.271  0.00  0.00    +0.172 A 
ATOM      4  C   UNL     1      -0.047   0.874  25.078  0.00  0.00    +0.036 A 
ATOM      5  C   UNL     1      -0.644   0.373  25.350  0.00  0.00    -0.016 A 
ATOM      6  C   UNL     1      -1.075  -0.084  24.814  0.00  0.00    +0.012 A 
ATOM      7  C   UNL     1      -0.909  -0.038  24.007  0.00  0.00    +0.041 A 
ATOM      8  C   UNL     1      -0.312   0.463  23.735  0.00  0.00    +0.172 A 
ATOM     11  C   UNL     1      -1.672  -0.584  25.085  0.00  0.00    +0.054 C 
ATOM     35  N   UNL     1      -1.837  -0.629  25.891  0.00  0.00    -0.274 NA
ATOM     36  C   UNL     1      -1.406  -0.173  26.427  0.00  0.00    +0.130 C 
ATOM     37  C   UNL     1      -0.809   0.328  26.156  0.00  0.00    +0.053 C 
BRANCH   3   2
ATOM      1  C   UNL     1       0.775   2.188  24.293  0.00  0.00    +0.253 C 
ATOM      2  O   UNL     1       0.716   1.420  24.000  0.00  0.00    -0.468 OA
ENDBRANCH   3   2
BRANCH   8   9
ATOM      9  O   UNL     1      -0.147   0.508  22.928  0.00  0.00    -0.468 OA
ATOM     10  C   UNL     1       0.196  -0.134  22.541  0.00  0.00    +0.253 C 
ENDBRANCH   8   9
ENDBRANCH  12  11
ENDBRANCH  13  12
BRANCH  18  19
ATOM     19  C   UNL     1      -3.026  -2.374  24.249  0.00  0.00    +0.114 C 
BRANCH  19  20
ATOM     20  C   UNL     1      -3.468  -3.067  24.316  0.00  0.00    +0.365 C 
ATOM     21  O   UNL     1      -3.510  -3.463  25.039  0.00  0.00    -0.246 OA
ATOM     22  O   UNL     1      -3.870  -3.365  23.658  0.00  0.00    -0.246 OA
ENDBRANCH  19  20
ENDBRANCH  18  19
TORSDOF 8
ENDMDL
MODEL 8
REMARK VINA RESULT:      -7.7     15.953     18.870
REMARK  Name = 
REMARK  8 active torsions:
REMARK  status: ('A' for Active; 'I' for Inactive)
REMARK    1  A    between atoms: O_2  and  C_3
REMARK    2  A    between atoms: C_8  and  O_9
REMARK    3  A    between atoms: C_11  and  C_12
REMARK    4  A    between atoms: C_12  and  C_13
REMARK    5  A    between atoms: C_18  and  C_19
REMARK    6  A    between atoms: C_19  and  C_20
REMARK    7  A    between atoms: N_25  and  C_26
REMARK    8  A    between atoms: C_29  and  C_32
REMARK                            x       y       z     vdW  Elec       q    Type
REMARK                         _______ _______ _______ _____ _____    ______ ____
ROOT
ATOM     13  C   UNL     1      14.382   7.026  20.277  0.00  0.00    +0.026 C 
ATOM     14  C   UNL     1      13.897   7.289  19.665  0.00  0.00    +0.095 C 
ATOM     15  N   UNL     1      14.175   7.286  18.887  0.00  0.00    -0.263 N 
ATOM     16  C   UNL     1      14.939   7.021  18.724  0.00  0.00    +0.095 C 
ATOM     17  C   UNL     1      15.424   6.759  19.337  0.00  0.00    +0.022 C 
ATOM     18  C   UNL     1      15.147   6.761  20.114  0.00  0.00    +0.015 C 
ATOM     23  C   UNL     1      13.690   7.549  18.274  0.00  0.00    +0.327 C 
ATOM     24  O   UNL     1      13.968   7.546  17.498  0.00  0.00    -0.250 OA
ATOM     25  N   UNL     1      12.926   7.814  18.439  0.00  0.00    -0.162 NA
ENDROOT
BRANCH  25  26
ATOM     26  C   UNL     1      12.440   8.077  17.826  0.00  0.00    +0.075 A 
ATOM     27  C   UNL     1      12.548   8.831  17.508  0.00  0.00    +0.016 A 
ATOM     28  C   UNL     1      12.062   9.093  16.895  0.00  0.00    -0.003 A 
ATOM     29  C   UNL     1      11.469   8.603  16.599  0.00  0.00    -0.022 A 
ATOM     30  C   UNL     1      11.361   7.848  16.917  0.00  0.00    -0.003 A 
ATOM     31  C   UNL     1      11.846   7.586  17.530  0.00  0.00    +0.016 A 
BRANCH  29  32
ATOM     32  C   UNL     1      10.983   8.865  15.986  0.00  0.00    +0.022 C 
ATOM     33  C   UNL     1      11.309   9.045  15.250  0.00  0.00    +0.005 C 
ATOM     34  C   UNL     1      10.172   8.948  16.109  0.00  0.00    +0.005 C 
ENDBRANCH  29  32
ENDBRANCH  25  26
BRANCH  13  12
ATOM     12  C   UNL     1      14.104   7.029  21.054  0.00  0.00    +0.047 C 
BRANCH  12  11
ATOM      3  C   UNL     1      11.427   7.739  22.141  0.00  0.00    +0.172 A 
ATOM      4  C   UNL     1      11.890   8.420  22.207  0.00  0.00    +0.036 A 
ATOM      5  C   UNL     1      12.674   8.413  21.951  0.00  0.00    -0.016 A 
ATOM      6  C   UNL     1      12.998   7.724  21.630  0.00  0.00    +0.012 A 
ATOM      7  C   UNL     1      12.535   7.044  21.564  0.00  0.00    +0.041 A 
ATOM      8  C   UNL     1      11.750   7.051  21.819  0.00  0.00    +0.172 A 
ATOM     11  C   UNL     1      13.782   7.717  21.375  0.00  0.00    +0.054 C 
ATOM     35  N   UNL     1      14.243   8.397  21.441  0.00  0.00    -0.274 NA
ATOM     36  C   UNL     1      13.920   9.085  21.763  0.00  0.00    +0.130 C 
ATOM     37  C   UNL     1      13.136   9.093  22.017  0.00  0.00    +0.053 C 
BRANCH   3   2
ATOM      1  C   UNL     1      10.283   8.459  22.600  0.00  0.00    +0.253 C 
ATOM      2  O   UNL     1      10.643   7.747  22.396  0.00  0.00    -0.468 OA
ENDBRANCH   3   2
BRANCH   8   9
ATOM      9  O   UNL     1      11.289   6.371  21.753  0.00  0.00    -0.468 OA
ATOM     10  C   UNL     1      11.523   5.760  21.252  0.00  0.00    +0.253 C 
ENDBRANCH   8   9
ENDBRANCH  12  11
ENDBRANCH  13  12
BRANCH  18  19
ATOM     19  C   UNL     1      15.632   6.498  20.727  0.00  0.00    +0.114 C 
BRANCH  19  20
ATOM     20  C   UNL     1      16.363   6.156  20.556  0.00  0.00    +0.365 C 
ATOM     21  O   UNL     1      16.431   5.613  19.938  0.00  0.00    -0.246 OA
ATOM     22  O   UNL     1      17.027   6.357  21.004  0.00  0.00    -0.246 OA
ENDBRANCH  19  20
ENDBRANCH  18  19
TORSDOF 8
ENDMDL
