MODEL 1
REMARK VINA RESULT:     -14.8      0.000      0.000
REMARK  Name = 
REMARK  4 active torsions:
REMARK  status: ('A' for Active; 'I' for Inactive)
REMARK    1  A    between atoms: C_2  and  C_5
REMARK    2  A    between atoms: C_5  and  C_6
REMARK    3  A    between atoms: C_17  and  N_18
REMARK    4  A    between atoms: C_19  and  C_21
REMARK                            x       y       z     vdW  Elec       q    Type
REMARK                         _______ _______ _______ _____ _____    ______ ____
ROOT
ATOM      6  C   UNL     1      -2.804   2.510  24.332  0.00  0.00    +0.226 C 
ATOM      7  O   UNL     1      -2.051   2.574  24.001  0.00  0.00    -0.275 OA
ATOM      8  N   UNL     1      -3.216   3.190  24.553  0.00  0.00    -0.279 N 
ATOM      9  C   UNL     1      -3.375   4.002  24.668  0.00  0.00    +0.095 C 
ATOM     10  C   UNL     1      -4.277   3.940  25.066  0.00  0.00    +0.043 C 
ATOM     11  C   UNL     1      -5.011   4.058  25.399  0.00  0.00    +0.011 C 
ATOM     12  C   UNL     1      -4.616   3.515  25.194  0.00  0.00    +0.058 C 
ATOM     13  C   UNL     1      -3.745   3.592  24.810  0.00  0.00    +0.099 C 
ATOM     14  C   UNL     1      -4.621   2.598  25.145  0.00  0.00    +0.041 A 
ATOM     15  C   UNL     1      -5.099   1.949  25.322  0.00  0.00    +0.014 A 
ATOM     16  C   UNL     1      -4.833   1.185  25.162  0.00  0.00    +0.023 A 
ATOM     17  C   UNL     1      -4.089   1.069  24.825  0.00  0.00    +0.130 A 
ATOM     28  C   UNL     1      -3.611   1.718  24.648  0.00  0.00    +0.276 A 
ATOM     29  O   UNL     1      -3.081   1.145  24.381  0.00  0.00    -0.266 OA
ATOM     30  N   UNL     1      -3.877   2.482  24.808  0.00  0.00    -0.298 N 
ATOM     31  C   UNL     1      -4.273   2.981  25.012  0.00  0.00    +0.110 C 
ENDROOT
BRANCH  17  18
ATOM     18  N   UNL     1      -3.824   0.305  24.665  0.00  0.00    -0.171 NA
ATOM     19  C   UNL     1      -4.293  -0.344  24.862  0.00  0.00    +0.269 C 
ATOM     20  O   UNL     1      -5.027  -0.229  25.219  0.00  0.00    -0.268 OA
BRANCH  19  21
ATOM     21  C   UNL     1      -4.027  -1.110  24.701  0.00  0.00    +0.056 A 
ATOM     22  C   UNL     1      -4.218  -1.470  23.984  0.00  0.00    +0.007 A 
ATOM     23  C   UNL     1      -3.952  -2.235  23.824  0.00  0.00    +0.030 A 
ATOM     24  C   UNL     1      -3.495  -2.638  24.381  0.00  0.00    +0.140 A 
ATOM     25  F   UNL     1      -3.230  -3.402  24.221  0.00  0.00    -0.204 F 
ATOM     26  C   UNL     1      -3.305  -2.277  25.097  0.00  0.00    +0.030 A 
ATOM     27  C   UNL     1      -3.570  -1.513  25.258  0.00  0.00    +0.007 A 
ENDBRANCH  19  21
ENDBRANCH  17  18
BRANCH   6   5
ATOM      5  C   UNL     1      -3.144   1.767  24.443  0.00  0.00    +0.085 C 
BRANCH   5   2
ATOM      1  C   UNL     1      -2.325   0.409  23.987  0.00  0.00    +0.000 C 
ATOM      2  C   UNL     1      -2.735   1.088  24.215  0.00  0.00    +0.009 C 
ATOM      3  C   UNL     1      -3.081   1.129  23.467  0.00  0.00    +0.000 C 
ATOM      4  C   UNL     1      -2.388   1.046  24.963  0.00  0.00    +0.000 C 
ENDBRANCH   5   2
ENDBRANCH   6   5
TORSDOF 4
ENDMDL
MODEL 2
REMARK VINA RESULT:     -14.5      1.455      1.936
REMARK  Name = 
REMARK  4 active torsions:
REMARK  status: ('A' for Active; 'I' for Inactive)
REMARK    1  A    between atoms: C_2  and  C_5
REMARK    2  A    between atoms: C_5  and  C_6
REMARK    3  A    between atoms: C_17  and  N_18
REMARK    4  A    between atoms: C_19  and  C_21
REMARK                            x       y       z     vdW  Elec       q    Type
REMARK                         _______ _______ _______ _____ _____    ______ ____
ROOT
ATOM      6  C   UNL     1      -0.726   2.400  24.714  0.00  0.00    +0.226 C 
ATOM      7  O   UNL     1       0.002   2.052  24.547  0.00  0.00    -0.275 OA
ATOM      8  N   UNL     1      -0.772   3.211  24.862  0.00  0.00    -0.279 N 
ATOM      9  C   UNL     1      -0.517   4.000  24.963  0.00  0.00    +0.095 C 
ATOM     10  C   UNL     1      -1.384   4.429  25.164  0.00  0.00    +0.043 C 
ATOM     11  C   UNL     1      -2.006   4.925  25.341  0.00  0.00    +0.011 C 
ATOM     12  C   UNL     1      -1.908   4.243  25.208  0.00  0.00    +0.058 C 
ATOM     13  C   UNL     1      -1.063   3.843  25.015  0.00  0.00    +0.099 C 
ATOM     14  C   UNL     1      -2.366   3.450  25.136  0.00  0.00    +0.041 A 
ATOM     15  C   UNL     1      -3.130   3.144  25.194  0.00  0.00    +0.014 A 
ATOM     16  C   UNL     1      -3.262   2.339  25.073  0.00  0.00    +0.023 A 
ATOM     17  C   UNL     1      -2.630   1.839  24.893  0.00  0.00    +0.130 A 
ATOM     28  C   UNL     1      -1.866   2.145  24.836  0.00  0.00    +0.276 A 
ATOM     29  O   UNL     1      -1.659   1.365  24.669  0.00  0.00    -0.266 OA
ATOM     30  N   UNL     1      -1.734   2.950  24.957  0.00  0.00    -0.298 N 
ATOM     31  C   UNL     1      -1.854   3.596  25.087  0.00  0.00    +0.110 C 
ENDROOT
BRANCH  17  18
ATOM     18  N   UNL     1      -2.763   1.035  24.772  0.00  0.00    -0.171 NA
ATOM     19  C   UNL     1      -3.523   0.725  24.849  0.00  0.00    +0.269 C 
ATOM     20  O   UNL     1      -4.152   1.221  25.047  0.00  0.00    -0.268 OA
BRANCH  19  21
ATOM     21  C   UNL     1      -3.656  -0.081  24.728  0.00  0.00    +0.056 A 
ATOM     22  C   UNL     1      -3.860  -0.356  23.977  0.00  0.00    +0.007 A 
ATOM     23  C   UNL     1      -3.993  -1.162  23.856  0.00  0.00    +0.030 A 
ATOM     24  C   UNL     1      -3.920  -1.691  24.485  0.00  0.00    +0.140 A 
ATOM     25  F   UNL     1      -4.052  -2.496  24.364  0.00  0.00    -0.204 F 
ATOM     26  C   UNL     1      -3.716  -1.415  25.234  0.00  0.00    +0.030 A 
ATOM     27  C   UNL     1      -3.583  -0.610  25.356  0.00  0.00    +0.007 A 
ENDBRANCH  19  21
ENDBRANCH  17  18
BRANCH   6   5
ATOM      5  C   UNL     1      -1.410   1.938  24.733  0.00  0.00    +0.085 C 
BRANCH   5   2
ATOM      1  C   UNL     1      -1.320   0.321  24.415  0.00  0.00    +0.000 C 
ATOM      2  C   UNL     1      -1.365   1.130  24.574  0.00  0.00    +0.009 C 
ATOM      3  C   UNL     1      -1.498   1.279  23.773  0.00  0.00    +0.000 C 
ATOM      4  C   UNL     1      -1.233   0.980  25.375  0.00  0.00    +0.000 C 
ENDBRANCH   5   2
ENDBRANCH   6   5
TORSDOF 4
ENDMDL
MODEL 3
REMARK VINA RESULT:     -14.3      1.152      1.992
REMARK  Name = 
REMARK  4 active torsions:
REMARK  status: ('A' for Active; 'I' for Inactive)
REMARK    1  A    between atoms: C_2  and  C_5
REMARK    2  A    between atoms: C_5  and  C_6
REMARK    3  A    between atoms: C_17  and  N_18
REMARK    4  A    between atoms: C_19  and  C_21
REMARK                            x       y       z     vdW  Elec       q    Type
REMARK                         _______ _______ _______ _____ _____    ______ ____
ROOT
ATOM      6  C   UNL     1      -3.567   2.805  24.577  0.00  0.00    +0.226 C 
ATOM      7  O   UNL     1      -4.338   2.935  24.317  0.00  0.00    -0.275 OA
ATOM      8  N   UNL     1      -3.064   3.445  24.713  0.00  0.00    -0.279 N 
ATOM      9  C   UNL     1      -2.809   4.239  24.761  0.00  0.00    +0.095 C 
ATOM     10  C   UNL     1      -1.882   4.098  25.073  0.00  0.00    +0.043 C 
ATOM     11  C   UNL     1      -1.109   4.150  25.325  0.00  0.00    +0.011 C 
ATOM     12  C   UNL     1      -1.579   3.645  25.194  0.00  0.00    +0.058 C 
ATOM     13  C   UNL     1      -2.472   3.799  24.892  0.00  0.00    +0.099 C 
ATOM     14  C   UNL     1      -1.676   2.732  25.204  0.00  0.00    +0.041 A 
ATOM     15  C   UNL     1      -1.254   2.044  25.375  0.00  0.00    +0.014 A 
ATOM     16  C   UNL     1      -1.615   1.307  25.290  0.00  0.00    +0.023 A 
ATOM     17  C   UNL     1      -2.397   1.257  25.034  0.00  0.00    +0.130 A 
ATOM     28  C   UNL     1      -2.820   1.945  24.863  0.00  0.00    +0.276 A 
ATOM     29  O   UNL     1      -3.432   1.421  24.686  0.00  0.00    -0.266 OA
ATOM     30  N   UNL     1      -2.459   2.682  24.948  0.00  0.00    -0.298 N 
ATOM     31  C   UNL     1      -1.994   3.144  25.080  0.00  0.00    +0.110 C 
ENDROOT
BRANCH  17  18
ATOM     18  N   UNL     1      -2.757   0.520  24.950  0.00  0.00    -0.171 NA
ATOM     19  C   UNL     1      -2.351  -0.164  25.166  0.00  0.00    +0.269 C 
ATOM     20  O   UNL     1      -1.585  -0.112  25.467  0.00  0.00    -0.268 OA
BRANCH  19  21
ATOM     21  C   UNL     1      -2.712  -0.903  25.082  0.00  0.00    +0.056 A 
ATOM     22  C   UNL     1      -3.148  -1.221  25.705  0.00  0.00    +0.007 A 
ATOM     23  C   UNL     1      -3.509  -1.960  25.620  0.00  0.00    +0.030 A 
ATOM     24  C   UNL     1      -3.432  -2.377  24.912  0.00  0.00    +0.140 A 
ATOM     25  F   UNL     1      -3.792  -3.114  24.828  0.00  0.00    -0.204 F 
ATOM     26  C   UNL     1      -2.996  -2.057  24.290  0.00  0.00    +0.030 A 
ATOM     27  C   UNL     1      -2.635  -1.320  24.374  0.00  0.00    +0.007 A 
ENDBRANCH  19  21
ENDBRANCH  17  18
BRANCH   6   5
ATOM      5  C   UNL     1      -3.297   2.035  24.702  0.00  0.00    +0.085 C 
BRANCH   5   2
ATOM      1  C   UNL     1      -4.276   0.753  24.355  0.00  0.00    +0.000 C 
ATOM      2  C   UNL     1      -3.786   1.394  24.528  0.00  0.00    +0.009 C 
ATOM      3  C   UNL     1      -3.470   1.357  23.767  0.00  0.00    +0.000 C 
ATOM      4  C   UNL     1      -4.103   1.430  25.289  0.00  0.00    +0.000 C 
ENDBRANCH   5   2
ENDBRANCH   6   5
TORSDOF 4
ENDMDL
MODEL 4
REMARK VINA RESULT:     -14.3      1.842      4.355
REMARK  Name = 
REMARK  4 active torsions:
REMARK  status: ('A' for Active; 'I' for Inactive)
REMARK    1  A    between atoms: C_2  and  C_5
REMARK    2  A    between atoms: C_5  and  C_6
REMARK    3  A    between atoms: C_17  and  N_18
REMARK    4  A    between atoms: C_19  and  C_21
REMARK                            x       y       z     vdW  Elec       q    Type
REMARK                         _______ _______ _______ _____ _____    ______ ____
ROOT
ATOM      6  C   UNL     1      -1.703  -0.849  24.629  0.00  0.00    +0.226 C 
ATOM      7  O   UNL     1      -0.900  -0.668  24.683  0.00  0.00    -0.275 OA
ATOM      8  N   UNL     1      -1.948  -1.637  24.605  0.00  0.00    -0.279 N 
ATOM      9  C   UNL     1      -1.891  -2.470  24.600  0.00  0.00    +0.095 C 
ATOM     10  C   UNL     1      -2.850  -2.701  24.535  0.00  0.00    +0.043 C 
ATOM     11  C   UNL     1      -3.584  -3.051  24.484  0.00  0.00    +0.011 C 
ATOM     12  C   UNL     1      -3.320  -2.401  24.508  0.00  0.00    +0.058 C 
ATOM     13  C   UNL     1      -2.389  -2.195  24.570  0.00  0.00    +0.099 C 
ATOM     14  C   UNL     1      -3.575  -1.518  24.501  0.00  0.00    +0.041 A 
ATOM     15  C   UNL     1      -4.251  -1.048  24.463  0.00  0.00    +0.014 A 
ATOM     16  C   UNL     1      -4.183  -0.226  24.476  0.00  0.00    +0.023 A 
ATOM     17  C   UNL     1      -3.438   0.126  24.528  0.00  0.00    +0.130 A 
ATOM     28  C   UNL     1      -2.762  -0.345  24.566  0.00  0.00    +0.276 A 
ATOM     29  O   UNL     1      -2.366   0.378  24.599  0.00  0.00    -0.266 OA
ATOM     30  N   UNL     1      -2.830  -1.167  24.553  0.00  0.00    -0.298 N 
ATOM     31  C   UNL     1      -3.108  -1.776  24.529  0.00  0.00    +0.110 C 
ENDROOT
BRANCH  17  18
ATOM     18  N   UNL     1      -3.370   0.947  24.541  0.00  0.00    -0.171 NA
ATOM     19  C   UNL     1      -4.047   1.418  24.514  0.00  0.00    +0.269 C 
ATOM     20  O   UNL     1      -4.793   1.066  24.474  0.00  0.00    -0.268 OA
BRANCH  19  21
ATOM     21  C   UNL     1      -3.979   2.241  24.527  0.00  0.00    +0.056 A 
ATOM     22  C   UNL     1      -4.004   2.644  25.246  0.00  0.00    +0.007 A 
ATOM     23  C   UNL     1      -3.936   3.467  25.259  0.00  0.00    +0.030 A 
ATOM     24  C   UNL     1      -3.842   3.884  24.553  0.00  0.00    +0.140 A 
ATOM     25  F   UNL     1      -3.774   4.706  24.567  0.00  0.00    -0.204 F 
ATOM     26  C   UNL     1      -3.817   3.480  23.836  0.00  0.00    +0.030 A 
ATOM     27  C   UNL     1      -3.885   2.658  23.822  0.00  0.00    +0.007 A 
ENDBRANCH  19  21
ENDBRANCH  17  18
BRANCH   6   5
ATOM      5  C   UNL     1      -2.262  -0.242  24.599  0.00  0.00    +0.085 C 
BRANCH   5   2
ATOM      1  C   UNL     1      -1.772   1.332  24.661  0.00  0.00    +0.000 C 
ATOM      2  C   UNL     1      -2.017   0.545  24.630  0.00  0.00    +0.009 C 
ATOM      3  C   UNL     1      -1.974   0.564  23.806  0.00  0.00    +0.000 C 
ATOM      4  C   UNL     1      -2.060   0.526  25.454  0.00  0.00    +0.000 C 
ENDBRANCH   5   2
ENDBRANCH   6   5
TORSDOF 4
ENDMDL
MODEL 5
REMARK VINA RESULT:     -14.0      2.059      4.500
REMARK  Name = 
REMARK  4 active torsions:
REMARK  status: ('A' for Active; 'I' for Inactive)
REMARK    1  A    between atoms: C_2  and  C_5
REMARK    2  A    between atoms: C_5  and  C_6
REMARK    3  A    between atoms: C_17  and  N_18
REMARK    4  A    between atoms: C_19  and  C_21
REMARK                            x       y       z     vdW  Elec       q    Type
REMARK                         _______ _______ _______ _____ _____    ______ ____
ROOT
ATOM      6  C   UNL     1      -4.013   0.125  24.199  0.00  0.00    +0.226 C 
ATOM      7  O   UNL     1      -4.678   0.453  23.838  0.00  0.00    -0.275 OA
ATOM      8  N   UNL     1      -3.968  -0.691  24.317  0.00  0.00    -0.279 N 
ATOM      9  C   UNL     1      -4.196  -1.494  24.301  0.00  0.00    +0.095 C 
ATOM     10  C   UNL     1      -3.405  -1.900  24.732  0.00  0.00    +0.043 C 
ATOM     11  C   UNL     1      -2.837  -2.380  25.063  0.00  0.00    +0.011 C 
ATOM     12  C   UNL     1      -2.929  -1.696  24.938  0.00  0.00    +0.058 C 
ATOM     13  C   UNL     1      -3.700  -1.319  24.520  0.00  0.00    +0.099 C 
ATOM     14  C   UNL     1      -2.515  -0.882  25.043  0.00  0.00    +0.041 A 
ATOM     15  C   UNL     1      -1.821  -0.549  25.340  0.00  0.00    +0.014 A 
ATOM     16  C   UNL     1      -1.705   0.266  25.300  0.00  0.00    +0.023 A 
ATOM     17  C   UNL     1      -2.282   0.750  24.964  0.00  0.00    +0.130 A 
ATOM     28  C   UNL     1      -2.976   0.418  24.667  0.00  0.00    +0.276 A 
ATOM     29  O   UNL     1      -3.168   1.198  24.482  0.00  0.00    -0.266 OA
ATOM     30  N   UNL     1      -3.093  -0.398  24.706  0.00  0.00    -0.298 N 
ATOM     31  C   UNL     1      -2.980  -1.045  24.837  0.00  0.00    +0.110 C 
ENDROOT
BRANCH  17  18
ATOM     18  N   UNL     1      -2.165   1.565  24.924  0.00  0.00    -0.171 NA
ATOM     19  C   UNL     1      -1.483   1.900  25.244  0.00  0.00    +0.269 C 
ATOM     20  O   UNL     1      -0.917   1.419  25.604  0.00  0.00    -0.268 OA
BRANCH  19  21
ATOM     21  C   UNL     1      -1.366   2.717  25.205  0.00  0.00    +0.056 A 
ATOM     22  C   UNL     1      -0.931   3.041  24.583  0.00  0.00    +0.007 A 
ATOM     23  C   UNL     1      -0.814   3.857  24.544  0.00  0.00    +0.030 A 
ATOM     24  C   UNL     1      -1.133   4.348  25.126  0.00  0.00    +0.140 A 
ATOM     25  F   UNL     1      -1.016   5.163  25.086  0.00  0.00    -0.204 F 
ATOM     26  C   UNL     1      -1.568   4.023  25.747  0.00  0.00    +0.030 A 
ATOM     27  C   UNL     1      -1.684   3.207  25.786  0.00  0.00    +0.007 A 
ENDBRANCH  19  21
ENDBRANCH  17  18
BRANCH   6   5
ATOM      5  C   UNL     1      -3.393   0.612  24.442  0.00  0.00    +0.085 C 
BRANCH   5   2
ATOM      1  C   UNL     1      -3.463   2.237  24.162  0.00  0.00    +0.000 C 
ATOM      2  C   UNL     1      -3.428   1.424  24.302  0.00  0.00    +0.009 C 
ATOM      3  C   UNL     1      -3.047   1.317  23.578  0.00  0.00    +0.000 C 
ATOM      4  C   UNL     1      -3.809   1.532  25.026  0.00  0.00    +0.000 C 
ENDBRANCH   5   2
ENDBRANCH   6   5
TORSDOF 4
ENDMDL
