MODEL 1
REMARK VINA RESULT:     -17.0      0.000      0.000
REMARK  Name = 
REMARK  5 active torsions:
REMARK  status: ('A' for Active; 'I' for Inactive)
REMARK    1  A    between atoms: C_2  and  C_4
REMARK    2  A    between atoms: C_7  and  N_8
REMARK    3  A    between atoms: C_20  and  N_21
REMARK    4  A    between atoms: N_21  and  S_22
REMARK    5  A    between atoms: S_22  and  C_25
REMARK                            x       y       z     vdW  Elec       q    Type
REMARK                         _______ _______ _______ _____ _____    ______ ____
ROOT
ATOM      8  N   UNL     1      -3.060   2.016  24.870  0.00  0.00    -0.162 NA
ATOM      9  C   UNL     1      -3.020   2.831  24.992  0.00  0.00    +0.327 C 
ATOM     10  O   UNL     1      -2.300   3.225  24.915  0.00  0.00    -0.250 OA
ATOM     11  N   UNL     1      -3.702   3.252  25.191  0.00  0.00    -0.262 N 
ATOM     12  C   UNL     1      -4.185   3.905  25.388  0.00  0.00    +0.097 C 
ATOM     13  C   UNL     1      -5.054   3.445  25.483  0.00  0.00    +0.043 C 
ATOM     14  C   UNL     1      -5.829   3.221  25.597  0.00  0.00    +0.011 C 
ATOM     15  C   UNL     1      -5.220   2.915  25.431  0.00  0.00    +0.058 C 
ATOM     16  C   UNL     1      -4.387   3.374  25.342  0.00  0.00    +0.101 C 
ATOM     17  C   UNL     1      -4.856   2.095  25.230  0.00  0.00    +0.041 A 
ATOM     18  C   UNL     1      -5.070   1.303  25.146  0.00  0.00    +0.014 A 
ATOM     19  C   UNL     1      -4.501   0.741  24.946  0.00  0.00    +0.024 A 
ATOM     20  C   UNL     1      -3.717   0.971  24.831  0.00  0.00    +0.147 A 
ATOM     32  C   UNL     1      -3.502   1.763  24.915  0.00  0.00    +0.277 A 
ATOM     33  O   UNL     1      -2.748   1.489  24.726  0.00  0.00    -0.266 OA
ATOM     34  N   UNL     1      -4.072   2.325  25.115  0.00  0.00    -0.298 N 
ATOM     35  C   UNL     1      -4.666   2.592  25.272  0.00  0.00    +0.110 C 
ENDROOT
BRANCH   8   7
ATOM      4  C   UNL     1      -1.015   0.754  24.276  0.00  0.00    +0.035 A 
ATOM      5  C   UNL     1      -1.222   0.855  25.067  0.00  0.00    +0.004 A 
ATOM      6  C   UNL     1      -1.904   1.276  25.266  0.00  0.00    +0.017 A 
ATOM      7  C   UNL     1      -2.379   1.595  24.671  0.00  0.00    +0.075 A 
ATOM     36  C   UNL     1      -2.171   1.494  23.880  0.00  0.00    +0.017 A 
ATOM     37  C   UNL     1      -1.490   1.074  23.681  0.00  0.00    +0.004 A 
BRANCH   4   2
ATOM      1  C   UNL     1       0.151   0.598  23.464  0.00  0.00    +0.077 C 
ATOM      2  C   UNL     1      -0.333   0.334  24.077  0.00  0.00    +0.173 C 
ATOM      3  O   UNL     1      -0.136  -0.351  24.493  0.00  0.00    -0.291 OA
ENDBRANCH   4   2
ENDBRANCH   8   7
BRANCH  20  21
ATOM     21  N   UNL     1      -3.147   0.409  24.631  0.00  0.00    -0.092 NA
BRANCH  21  22
ATOM     22  S   UNL     1      -3.361  -0.384  24.549  0.00  0.00    +0.093 S 
ATOM     23  O   UNL     1      -3.223  -0.505  25.353  0.00  0.00    -0.148 OA
ATOM     24  O   UNL     1      -3.499  -0.263  23.745  0.00  0.00    -0.148 OA
BRANCH  22  25
ATOM     25  C   UNL     1      -3.575  -1.177  24.466  0.00  0.00    +0.129 A 
ATOM     26  C   UNL     1      -3.384  -1.720  25.057  0.00  0.00    +0.050 A 
ATOM     27  C   UNL     1      -3.598  -2.512  24.973  0.00  0.00    +0.141 A 
ATOM     28  F   UNL     1      -3.406  -3.055  25.564  0.00  0.00    -0.204 F 
ATOM     29  C   UNL     1      -4.003  -2.761  24.299  0.00  0.00    +0.030 A 
ATOM     30  C   UNL     1      -4.194  -2.218  23.708  0.00  0.00    +0.004 A 
ATOM     31  C   UNL     1      -3.980  -1.426  23.792  0.00  0.00    +0.020 A 
ENDBRANCH  22  25
ENDBRANCH  21  22
ENDBRANCH  20  21
TORSDOF 5
ENDMDL
MODEL 2
REMARK VINA RESULT:     -16.8      1.694      4.009
REMARK  Name = 
REMARK  5 active torsions:
REMARK  status: ('A' for Active; 'I' for Inactive)
REMARK    1  A    between atoms: C_2  and  C_4
REMARK    2  A    between atoms: C_7  and  N_8
REMARK    3  A    between atoms: C_20  and  N_21
REMARK    4  A    between atoms: N_21  and  S_22
REMARK    5  A    between atoms: S_22  and  C_25
REMARK                            x       y       z     vdW  Elec       q    Type
REMARK                         _______ _______ _______ _____ _____    ______ ____
ROOT
ATOM      8  N   UNL     1      -1.988  -0.556  24.678  0.00  0.00    -0.162 NA
ATOM      9  C   UNL     1      -1.689  -1.324  24.726  0.00  0.00    +0.327 C 
ATOM     10  O   UNL     1      -0.891  -1.445  24.893  0.00  0.00    -0.250 OA
ATOM     11  N   UNL     1      -2.189  -1.970  24.607  0.00  0.00    -0.262 N 
ATOM     12  C   UNL     1      -2.429  -2.767  24.540  0.00  0.00    +0.097 C 
ATOM     13  C   UNL     1      -3.387  -2.635  24.339  0.00  0.00    +0.043 C 
ATOM     14  C   UNL     1      -4.182  -2.696  24.170  0.00  0.00    +0.011 C 
ATOM     15  C   UNL     1      -3.712  -2.186  24.279  0.00  0.00    +0.058 C 
ATOM     16  C   UNL     1      -2.788  -2.330  24.473  0.00  0.00    +0.101 C 
ATOM     17  C   UNL     1      -3.638  -1.271  24.314  0.00  0.00    +0.041 A 
ATOM     18  C   UNL     1      -4.092  -0.587  24.231  0.00  0.00    +0.014 A 
ATOM     19  C   UNL     1      -3.742   0.154  24.320  0.00  0.00    +0.024 A 
ATOM     20  C   UNL     1      -2.937   0.212  24.492  0.00  0.00    +0.147 A 
ATOM     32  C   UNL     1      -2.482  -0.471  24.575  0.00  0.00    +0.277 A 
ATOM     33  O   UNL     1      -1.867   0.060  24.716  0.00  0.00    -0.266 OA
ATOM     34  N   UNL     1      -2.833  -1.212  24.486  0.00  0.00    -0.298 N 
ATOM     35  C   UNL     1      -3.299  -1.680  24.377  0.00  0.00    +0.110 C 
ENDROOT
BRANCH   8   7
ATOM      4  C   UNL     1      -0.488   1.380  25.033  0.00  0.00    +0.035 A 
ATOM      5  C   UNL     1      -0.590   1.072  24.275  0.00  0.00    +0.004 A 
ATOM      6  C   UNL     1      -1.091   0.426  24.157  0.00  0.00    +0.017 A 
ATOM      7  C   UNL     1      -1.489   0.089  24.797  0.00  0.00    +0.075 A 
ATOM     36  C   UNL     1      -1.386   0.398  25.554  0.00  0.00    +0.017 A 
ATOM     37  C   UNL     1      -0.886   1.043  25.673  0.00  0.00    +0.004 A 
BRANCH   4   2
ATOM      1  C   UNL     1       0.078   2.364  25.901  0.00  0.00    +0.077 C 
ATOM      2  C   UNL     1       0.012   2.026  25.152  0.00  0.00    +0.173 C 
ATOM      3  O   UNL     1       0.446   2.332  24.521  0.00  0.00    -0.291 OA
ENDBRANCH   4   2
ENDBRANCH   8   7
BRANCH  20  21
ATOM     21  N   UNL     1      -2.587   0.954  24.581  0.00  0.00    -0.092 NA
BRANCH  21  22
ATOM     22  S   UNL     1      -3.044   1.637  24.508  0.00  0.00    +0.093 S 
ATOM     23  O   UNL     1      -3.229   1.600  25.311  0.00  0.00    -0.148 OA
ATOM     24  O   UNL     1      -2.859   1.674  23.705  0.00  0.00    -0.148 OA
BRANCH  22  25
ATOM     25  C   UNL     1      -3.501   2.321  24.433  0.00  0.00    +0.129 A 
ATOM     26  C   UNL     1      -3.888   2.632  25.092  0.00  0.00    +0.050 A 
ATOM     27  C   UNL     1      -4.344   3.315  25.017  0.00  0.00    +0.141 A 
ATOM     28  F   UNL     1      -4.732   3.626  25.675  0.00  0.00    -0.204 F 
ATOM     29  C   UNL     1      -4.413   3.687  24.284  0.00  0.00    +0.030 A 
ATOM     30  C   UNL     1      -4.025   3.376  23.625  0.00  0.00    +0.004 A 
ATOM     31  C   UNL     1      -3.569   2.693  23.700  0.00  0.00    +0.020 A 
ENDBRANCH  22  25
ENDBRANCH  21  22
ENDBRANCH  20  21
TORSDOF 5
ENDMDL
MODEL 3
REMARK VINA RESULT:     -15.7      1.219      3.176
REMARK  Name = 
REMARK  5 active torsions:
REMARK  status: ('A' for Active; 'I' for Inactive)
REMARK    1  A    between atoms: C_2  and  C_4
REMARK    2  A    between atoms: C_7  and  N_8
REMARK    3  A    between atoms: C_20  and  N_21
REMARK    4  A    between atoms: N_21  and  S_22
REMARK    5  A    between atoms: S_22  and  C_25
REMARK                            x       y       z     vdW  Elec       q    Type
REMARK                         _______ _______ _______ _____ _____    ______ ____
ROOT
ATOM      8  N   UNL     1      -2.667   2.357  24.724  0.00  0.00    -0.162 NA
ATOM      9  C   UNL     1      -2.328   3.108  24.763  0.00  0.00    +0.327 C 
ATOM     10  O   UNL     1      -2.802   3.769  24.896  0.00  0.00    -0.250 OA
ATOM     11  N   UNL     1      -1.513   3.198  24.668  0.00  0.00    -0.262 N 
ATOM     12  C   UNL     1      -0.772   3.581  24.614  0.00  0.00    +0.097 C 
ATOM     13  C   UNL     1      -0.192   2.797  24.454  0.00  0.00    +0.043 C 
ATOM     14  C   UNL     1       0.411   2.267  24.319  0.00  0.00    +0.011 C 
ATOM     15  C   UNL     1      -0.285   2.249  24.406  0.00  0.00    +0.058 C 
ATOM     16  C   UNL     1      -0.832   3.017  24.561  0.00  0.00    +0.101 C 
ATOM     17  C   UNL     1      -0.994   1.665  24.434  0.00  0.00    +0.041 A 
ATOM     18  C   UNL     1      -1.164   0.861  24.368  0.00  0.00    +0.014 A 
ATOM     19  C   UNL     1      -1.942   0.597  24.439  0.00  0.00    +0.024 A 
ATOM     20  C   UNL     1      -2.550   1.137  24.576  0.00  0.00    +0.147 A 
ATOM     32  C   UNL     1      -2.380   1.941  24.642  0.00  0.00    +0.277 A 
ATOM     33  O   UNL     1      -3.194   2.016  24.755  0.00  0.00    -0.266 OA
ATOM     34  N   UNL     1      -1.602   2.206  24.571  0.00  0.00    -0.298 N 
ATOM     35  C   UNL     1      -0.938   2.195  24.484  0.00  0.00    +0.110 C 
ENDROOT
BRANCH   8   7
ATOM      4  C   UNL     1      -5.111   2.090  25.011  0.00  0.00    +0.035 A 
ATOM      5  C   UNL     1      -4.613   2.057  25.668  0.00  0.00    +0.004 A 
ATOM      6  C   UNL     1      -3.798   2.146  25.572  0.00  0.00    +0.017 A 
ATOM      7  C   UNL     1      -3.481   2.268  24.819  0.00  0.00    +0.075 A 
ATOM     36  C   UNL     1      -3.980   2.300  24.163  0.00  0.00    +0.017 A 
ATOM     37  C   UNL     1      -4.794   2.211  24.258  0.00  0.00    +0.004 A 
BRANCH   4   2
ATOM      1  C   UNL     1      -6.274   2.155  25.838  0.00  0.00    +0.077 C 
ATOM      2  C   UNL     1      -5.926   2.000  25.107  0.00  0.00    +0.173 C 
ATOM      3  O   UNL     1      -6.391   1.757  24.471  0.00  0.00    -0.291 OA
ENDBRANCH   4   2
ENDBRANCH   8   7
BRANCH  20  21
ATOM     21  N   UNL     1      -3.328   0.872  24.647  0.00  0.00    -0.092 NA
BRANCH  21  22
ATOM     22  S   UNL     1      -3.497   0.067  24.589  0.00  0.00    +0.093 S 
ATOM     23  O   UNL     1      -3.405  -0.011  25.405  0.00  0.00    -0.148 OA
ATOM     24  O   UNL     1      -3.588   0.145  23.773  0.00  0.00    -0.148 OA
BRANCH  22  25
ATOM     25  C   UNL     1      -3.666  -0.739  24.530  0.00  0.00    +0.129 A 
ATOM     26  C   UNL     1      -3.493  -1.244  25.159  0.00  0.00    +0.050 A 
ATOM     27  C   UNL     1      -3.663  -2.049  25.100  0.00  0.00    +0.141 A 
ATOM     28  F   UNL     1      -3.490  -2.554  25.729  0.00  0.00    -0.204 F 
ATOM     29  C   UNL     1      -4.004  -2.349  24.411  0.00  0.00    +0.030 A 
ATOM     30  C   UNL     1      -4.177  -1.844  23.782  0.00  0.00    +0.004 A 
ATOM     31  C   UNL     1      -4.008  -1.039  23.842  0.00  0.00    +0.020 A 
ENDBRANCH  22  25
ENDBRANCH  21  22
ENDBRANCH  20  21
TORSDOF 5
ENDMDL
MODEL 4
REMARK VINA RESULT:     -15.6      1.714      4.438
REMARK  Name = 
REMARK  5 active torsions:
REMARK  status: ('A' for Active; 'I' for Inactive)
REMARK    1  A    between atoms: C_2  and  C_4
REMARK    2  A    between atoms: C_7  and  N_8
REMARK    3  A    between atoms: C_20  and  N_21
REMARK    4  A    between atoms: N_21  and  S_22
REMARK    5  A    between atoms: S_22  and  C_25
REMARK                            x       y       z     vdW  Elec       q    Type
REMARK                         _______ _______ _______ _____ _____    ______ ____
ROOT
ATOM      8  N   UNL     1      -3.556  -0.159  24.402  0.00  0.00    -0.162 NA
ATOM      9  C   UNL     1      -4.152  -0.704  24.234  0.00  0.00    +0.327 C 
ATOM     10  O   UNL     1      -4.912  -0.441  24.050  0.00  0.00    -0.250 OA
ATOM     11  N   UNL     1      -3.989  -1.513  24.250  0.00  0.00    -0.262 N 
ATOM     12  C   UNL     1      -4.121  -2.336  24.191  0.00  0.00    +0.097 C 
ATOM     13  C   UNL     1      -3.216  -2.665  24.410  0.00  0.00    +0.043 C 
ATOM     14  C   UNL     1      -2.539  -3.090  24.568  0.00  0.00    +0.011 C 
ATOM     15  C   UNL     1      -2.734  -2.417  24.540  0.00  0.00    +0.058 C 
ATOM     16  C   UNL     1      -3.614  -2.114  24.326  0.00  0.00    +0.101 C 
ATOM     17  C   UNL     1      -2.404  -1.566  24.650  0.00  0.00    +0.041 A 
ATOM     18  C   UNL     1      -1.707  -1.168  24.839  0.00  0.00    +0.014 A 
ATOM     19  C   UNL     1      -1.697  -0.344  24.868  0.00  0.00    +0.024 A 
ATOM     20  C   UNL     1      -2.384   0.083  24.707  0.00  0.00    +0.147 A 
ATOM     32  C   UNL     1      -3.082  -0.314  24.518  0.00  0.00    +0.277 A 
ATOM     33  O   UNL     1      -3.397   0.446  24.461  0.00  0.00    -0.266 OA
ATOM     34  N   UNL     1      -3.092  -1.138  24.489  0.00  0.00    -0.298 N 
ATOM     35  C   UNL     1      -2.881  -1.773  24.523  0.00  0.00    +0.110 C 
ENDROOT
BRANCH   8   7
ATOM      4  C   UNL     1      -4.047   2.266  24.356  0.00  0.00    +0.035 A 
ATOM      5  C   UNL     1      -4.165   1.834  25.049  0.00  0.00    +0.004 A 
ATOM      6  C   UNL     1      -4.001   1.026  25.064  0.00  0.00    +0.017 A 
ATOM      7  C   UNL     1      -3.719   0.649  24.386  0.00  0.00    +0.075 A 
ATOM     36  C   UNL     1      -3.602   1.080  23.694  0.00  0.00    +0.017 A 
ATOM     37  C   UNL     1      -3.766   1.888  23.677  0.00  0.00    +0.004 A 
BRANCH   4   2
ATOM      1  C   UNL     1      -4.622   3.424  24.964  0.00  0.00    +0.077 C 
ATOM      2  C   UNL     1      -4.211   3.074  24.340  0.00  0.00    +0.173 C 
ATOM      3  O   UNL     1      -3.964   3.532  23.701  0.00  0.00    -0.291 OA
ENDBRANCH   4   2
ENDBRANCH   8   7
BRANCH  20  21
ATOM     21  N   UNL     1      -2.373   0.907  24.735  0.00  0.00    -0.092 NA
BRANCH  21  22
ATOM     22  S   UNL     1      -1.675   1.304  24.924  0.00  0.00    +0.093 S 
ATOM     23  O   UNL     1      -1.875   1.275  25.724  0.00  0.00    -0.148 OA
ATOM     24  O   UNL     1      -1.475   1.334  24.125  0.00  0.00    -0.148 OA
BRANCH  22  25
ATOM     25  C   UNL     1      -0.977   1.702  25.113  0.00  0.00    +0.129 A 
ATOM     26  C   UNL     1      -0.824   1.920  25.894  0.00  0.00    +0.050 A 
ATOM     27  C   UNL     1      -0.126   2.317  26.081  0.00  0.00    +0.141 A 
ATOM     28  F   UNL     1       0.027   2.536  26.862  0.00  0.00    -0.204 F 
ATOM     29  C   UNL     1       0.419   2.496  25.488  0.00  0.00    +0.030 A 
ATOM     30  C   UNL     1       0.266   2.278  24.708  0.00  0.00    +0.004 A 
ATOM     31  C   UNL     1      -0.432   1.881  24.520  0.00  0.00    +0.020 A 
ENDBRANCH  22  25
ENDBRANCH  21  22
ENDBRANCH  20  21
TORSDOF 5
ENDMDL
MODEL 5
REMARK VINA RESULT:     -15.5      1.402      2.951
REMARK  Name = 
REMARK  5 active torsions:
REMARK  status: ('A' for Active; 'I' for Inactive)
REMARK    1  A    between atoms: C_2  and  C_4
REMARK    2  A    between atoms: C_7  and  N_8
REMARK    3  A    between atoms: C_20  and  N_21
REMARK    4  A    between atoms: N_21  and  S_22
REMARK    5  A    between atoms: S_22  and  C_25
REMARK                            x       y       z     vdW  Elec       q    Type
REMARK                         _______ _______ _______ _____ _____    ______ ____
ROOT
ATOM      8  N   UNL     1      -4.197   1.075  24.949  0.00  0.00    -0.162 NA
ATOM      9  C   UNL     1      -4.937   1.403  25.114  0.00  0.00    +0.327 C 
ATOM     10  O   UNL     1      -5.603   0.919  25.156  0.00  0.00    -0.250 OA
ATOM     11  N   UNL     1      -5.009   2.216  25.235  0.00  0.00    -0.262 N 
ATOM     12  C   UNL     1      -5.374   2.951  25.394  0.00  0.00    +0.097 C 
ATOM     13  C   UNL     1      -4.584   3.542  25.345  0.00  0.00    +0.043 C 
ATOM     14  C   UNL     1      -4.045   4.153  25.340  0.00  0.00    +0.011 C 
ATOM     15  C   UNL     1      -4.042   3.458  25.246  0.00  0.00    +0.058 C 
ATOM     16  C   UNL     1      -4.815   2.899  25.296  0.00  0.00    +0.101 C 
ATOM     17  C   UNL     1      -3.476   2.758  25.059  0.00  0.00    +0.041 A 
ATOM     18  C   UNL     1      -2.681   2.600  24.909  0.00  0.00    +0.014 A 
ATOM     19  C   UNL     1      -2.434   1.826  24.764  0.00  0.00    +0.024 A 
ATOM     20  C   UNL     1      -2.983   1.210  24.770  0.00  0.00    +0.147 A 
ATOM     32  C   UNL     1      -3.779   1.368  24.921  0.00  0.00    +0.277 A 
ATOM     33  O   UNL     1      -3.869   0.554  24.825  0.00  0.00    -0.266 OA
ATOM     34  N   UNL     1      -4.025   2.142  25.065  0.00  0.00    -0.298 N 
ATOM     35  C   UNL     1      -4.001   2.805  25.151  0.00  0.00    +0.110 C 
ENDROOT
BRANCH   8   7
ATOM      4  C   UNL     1      -3.981  -1.363  24.586  0.00  0.00    +0.035 A 
ATOM      5  C   UNL     1      -3.908  -1.052  25.346  0.00  0.00    +0.004 A 
ATOM      6  C   UNL     1      -3.980  -0.239  25.467  0.00  0.00    +0.017 A 
ATOM      7  C   UNL     1      -4.125   0.263  24.828  0.00  0.00    +0.075 A 
ATOM     36  C   UNL     1      -4.198  -0.050  24.068  0.00  0.00    +0.017 A 
ATOM     37  C   UNL     1      -4.126  -0.862  23.947  0.00  0.00    +0.004 A 
BRANCH   4   2
ATOM      1  C   UNL     1      -4.169  -2.513  23.759  0.00  0.00    +0.077 C 
ATOM      2  C   UNL     1      -3.909  -2.177  24.465  0.00  0.00    +0.173 C 
ATOM      3  O   UNL     1      -3.576  -2.652  25.051  0.00  0.00    -0.291 OA
ENDBRANCH   4   2
ENDBRANCH   8   7
BRANCH  20  21
ATOM     21  N   UNL     1      -2.736   0.437  24.625  0.00  0.00    -0.092 NA
BRANCH  21  22
ATOM     22  S   UNL     1      -1.943   0.281  24.462  0.00  0.00    +0.093 S 
ATOM     23  O   UNL     1      -1.798   0.173  25.267  0.00  0.00    -0.148 OA
ATOM     24  O   UNL     1      -2.087   0.389  23.657  0.00  0.00    -0.148 OA
BRANCH  22  25
ATOM     25  C   UNL     1      -1.149   0.125  24.297  0.00  0.00    +0.129 A 
ATOM     26  C   UNL     1      -0.749   0.573  23.732  0.00  0.00    +0.050 A 
ATOM     27  C   UNL     1       0.044   0.417  23.568  0.00  0.00    +0.141 A 
ATOM     28  F   UNL     1       0.445   0.865  23.003  0.00  0.00    -0.204 F 
ATOM     29  C   UNL     1       0.437  -0.188  23.970  0.00  0.00    +0.030 A 
ATOM     30  C   UNL     1       0.037  -0.636  24.535  0.00  0.00    +0.004 A 
ATOM     31  C   UNL     1      -0.756  -0.479  24.699  0.00  0.00    +0.020 A 
ENDBRANCH  22  25
ENDBRANCH  21  22
ENDBRANCH  20  21
TORSDOF 5
ENDMDL
