MODEL 1
REMARK VINA RESULT:     -12.1      0.000      0.000
REMARK  Name = 
REMARK  3 active torsions:
REMARK  status: ('A' for Active; 'I' for Inactive)
REMARK    1  A    between atoms: N_3  and  C_22
REMARK    2  A    between atoms: N_7  and  C_8
REMARK    3  A    between atoms: C_8  and  C_9
REMARK                            x       y       z     vdW  Elec       q    Type
REMARK                         _______ _______ _______ _____ _____    ______ ____
ROOT
ATOM      1  O   UNL     1      -3.515   3.743  23.926  0.00  0.00    -0.252 OA
ATOM      2  C   UNL     1      -3.253   3.149  24.435  0.00  0.00    +0.307 C 
ATOM      3  N   UNL     1      -2.570   3.172  24.897  0.00  0.00    -0.264 N 
ATOM      4  C   UNL     1      -2.523   2.465  25.318  0.00  0.00    +0.116 C 
ATOM      5  C   UNL     1      -3.177   2.003  25.117  0.00  0.00    +0.113 C 
ATOM      6  C   UNL     1      -3.420   1.254  25.360  0.00  0.00    +0.094 C 
ATOM      7  N   UNL     1      -4.114   0.926  25.057  0.00  0.00    -0.266 NA
ATOM     19  C   UNL     1      -4.566   1.350  24.510  0.00  0.00    +0.094 C 
ATOM     20  C   UNL     1      -4.322   2.100  24.268  0.00  0.00    +0.112 C 
ATOM     21  N   UNL     1      -3.629   2.427  24.570  0.00  0.00    -0.261 N 
ENDROOT
BRANCH   3  22
ATOM     22  C   UNL     1      -2.029   3.794  24.931  0.00  0.00    +0.077 C 
ATOM     23  C   UNL     1      -2.236   4.500  25.306  0.00  0.00    +0.020 C 
ATOM     24  C   UNL     1      -1.695   5.122  25.340  0.00  0.00    +0.002 C 
ATOM     25  C   UNL     1      -0.947   5.038  25.001  0.00  0.00    +0.000 C 
ATOM     26  C   UNL     1      -0.741   4.332  24.627  0.00  0.00    +0.002 C 
ATOM     27  C   UNL     1      -1.282   3.710  24.592  0.00  0.00    +0.020 C 
ENDBRANCH   3  22
BRANCH   7   8
ATOM      8  C   UNL     1      -4.357   0.177  25.300  0.00  0.00    +0.099 C 
BRANCH   8   9
ATOM      9  C   UNL     1      -4.022  -0.497  24.960  0.00  0.00    -0.003 A 
ATOM     10  C   UNL     1      -4.395  -0.867  24.324  0.00  0.00    +0.000 A 
ATOM     11  C   UNL     1      -4.060  -1.540  23.984  0.00  0.00    +0.040 A 
ATOM     12  C   UNL     1      -3.351  -1.843  24.281  0.00  0.00    +0.172 A 
ATOM     13  O   UNL     1      -3.016  -2.516  23.942  0.00  0.00    -0.468 OA
ATOM     14  C   UNL     1      -2.308  -2.818  24.238  0.00  0.00    +0.253 C 
ATOM     15  C   UNL     1      -1.935  -2.448  24.874  0.00  0.00    +0.253 C 
ATOM     16  O   UNL     1      -2.271  -1.775  25.214  0.00  0.00    -0.468 OA
ATOM     17  C   UNL     1      -2.979  -1.472  24.917  0.00  0.00    +0.172 A 
ATOM     18  C   UNL     1      -3.313  -0.799  25.257  0.00  0.00    +0.037 A 
ENDBRANCH   8   9
ENDBRANCH   7   8
TORSDOF 3
ENDMDL
MODEL 2
REMARK VINA RESULT:     -11.9      1.227      5.265
REMARK  Name = 
REMARK  3 active torsions:
REMARK  status: ('A' for Active; 'I' for Inactive)
REMARK    1  A    between atoms: N_3  and  C_22
REMARK    2  A    between atoms: N_7  and  C_8
REMARK    3  A    between atoms: C_8  and  C_9
REMARK                            x       y       z     vdW  Elec       q    Type
REMARK                         _______ _______ _______ _____ _____    ______ ____
ROOT
ATOM      1  O   UNL     1      -4.737  -0.511  25.664  0.00  0.00    -0.252 OA
ATOM      2  C   UNL     1      -4.330  -0.152  25.043  0.00  0.00    +0.307 C 
ATOM      3  N   UNL     1      -3.889  -0.541  24.464  0.00  0.00    -0.264 N 
ATOM      4  C   UNL     1      -3.579   0.029  23.955  0.00  0.00    +0.116 C 
ATOM      5  C   UNL     1      -3.828   0.770  24.218  0.00  0.00    +0.113 C 
ATOM      6  C   UNL     1      -3.692   1.532  23.934  0.00  0.00    +0.094 C 
ATOM      7  N   UNL     1      -4.021   2.183  24.321  0.00  0.00    -0.266 NA
ATOM     19  C   UNL     1      -4.486   2.070  24.994  0.00  0.00    +0.094 C 
ATOM     20  C   UNL     1      -4.621   1.308  25.279  0.00  0.00    +0.112 C 
ATOM     21  N   UNL     1      -4.293   0.658  24.892  0.00  0.00    -0.261 N 
ENDROOT
BRANCH   3  22
ATOM     22  C   UNL     1      -3.777  -1.356  24.405  0.00  0.00    +0.077 C 
ATOM     23  C   UNL     1      -4.246  -1.800  23.891  0.00  0.00    +0.020 C 
ATOM     24  C   UNL     1      -4.134  -2.615  23.832  0.00  0.00    +0.002 C 
ATOM     25  C   UNL     1      -3.554  -2.987  24.288  0.00  0.00    +0.000 C 
ATOM     26  C   UNL     1      -3.087  -2.542  24.801  0.00  0.00    +0.002 C 
ATOM     27  C   UNL     1      -3.198  -1.727  24.860  0.00  0.00    +0.020 C 
ENDBRANCH   3  22
BRANCH   7   8
ATOM      8  C   UNL     1      -3.886   2.944  24.036  0.00  0.00    +0.099 C 
BRANCH   8   9
ATOM      9  C   UNL     1      -3.309   3.420  24.385  0.00  0.00    -0.003 A 
ATOM     10  C   UNL     1      -3.526   4.000  24.929  0.00  0.00    +0.000 A 
ATOM     11  C   UNL     1      -2.949   4.475  25.279  0.00  0.00    +0.040 A 
ATOM     12  C   UNL     1      -2.153   4.370  25.083  0.00  0.00    +0.172 A 
ATOM     13  O   UNL     1      -1.577   4.844  25.432  0.00  0.00    -0.468 OA
ATOM     14  C   UNL     1      -0.782   4.739  25.236  0.00  0.00    +0.253 C 
ATOM     15  C   UNL     1      -0.564   4.159  24.691  0.00  0.00    +0.253 C 
ATOM     16  O   UNL     1      -1.142   3.684  24.342  0.00  0.00    -0.468 OA
ATOM     17  C   UNL     1      -1.937   3.789  24.538  0.00  0.00    +0.172 A 
ATOM     18  C   UNL     1      -2.513   3.314  24.189  0.00  0.00    +0.037 A 
ENDBRANCH   8   9
ENDBRANCH   7   8
TORSDOF 3
ENDMDL
MODEL 3
REMARK VINA RESULT:     -11.9      1.801      5.613
REMARK  Name = 
REMARK  3 active torsions:
REMARK  status: ('A' for Active; 'I' for Inactive)
REMARK    1  A    between atoms: N_3  and  C_22
REMARK    2  A    between atoms: N_7  and  C_8
REMARK    3  A    between atoms: C_8  and  C_9
REMARK                            x       y       z     vdW  Elec       q    Type
REMARK                         _______ _______ _______ _____ _____    ______ ____
ROOT
ATOM      1  O   UNL     1      -1.374  -1.405  23.753  0.00  0.00    -0.252 OA
ATOM      2  C   UNL     1      -1.669  -0.903  24.338  0.00  0.00    +0.307 C 
ATOM      3  N   UNL     1      -2.416  -0.950  24.685  0.00  0.00    -0.264 N 
ATOM      4  C   UNL     1      -2.478  -0.342  25.239  0.00  0.00    +0.116 C 
ATOM      5  C   UNL     1      -1.770   0.081  25.234  0.00  0.00    +0.113 C 
ATOM      6  C   UNL     1      -1.516   0.737  25.664  0.00  0.00    +0.094 C 
ATOM      7  N   UNL     1      -0.761   1.047  25.538  0.00  0.00    -0.266 NA
ATOM     19  C   UNL     1      -0.261   0.700  24.980  0.00  0.00    +0.094 C 
ATOM     20  C   UNL     1      -0.516   0.044  24.550  0.00  0.00    +0.112 C 
ATOM     21  N   UNL     1      -1.269  -0.266  24.676  0.00  0.00    -0.261 N 
ENDROOT
BRANCH   3  22
ATOM     22  C   UNL     1      -2.998  -1.508  24.509  0.00  0.00    +0.077 C 
ATOM     23  C   UNL     1      -3.648  -1.294  24.048  0.00  0.00    +0.020 C 
ATOM     24  C   UNL     1      -4.230  -1.851  23.872  0.00  0.00    +0.002 C 
ATOM     25  C   UNL     1      -4.163  -2.623  24.158  0.00  0.00    +0.000 C 
ATOM     26  C   UNL     1      -3.513  -2.836  24.620  0.00  0.00    +0.002 C 
ATOM     27  C   UNL     1      -2.931  -2.278  24.795  0.00  0.00    +0.020 C 
ENDBRANCH   3  22
BRANCH   7   8
ATOM      8  C   UNL     1      -0.507   1.703  25.968  0.00  0.00    +0.099 C 
BRANCH   8   9
ATOM      9  C   UNL     1      -0.621   2.463  25.669  0.00  0.00    -0.003 A 
ATOM     10  C   UNL     1      -0.077   2.785  25.140  0.00  0.00    +0.000 A 
ATOM     11  C   UNL     1      -0.191   3.545  24.841  0.00  0.00    +0.040 A 
ATOM     12  C   UNL     1      -0.852   3.984  25.071  0.00  0.00    +0.172 A 
ATOM     13  O   UNL     1      -0.967   4.744  24.772  0.00  0.00    -0.468 OA
ATOM     14  C   UNL     1      -1.627   5.182  25.003  0.00  0.00    +0.253 C 
ATOM     15  C   UNL     1      -2.172   4.861  25.532  0.00  0.00    +0.253 C 
ATOM     16  O   UNL     1      -2.057   4.100  25.831  0.00  0.00    -0.468 OA
ATOM     17  C   UNL     1      -1.397   3.662  25.601  0.00  0.00    +0.172 A 
ATOM     18  C   UNL     1      -1.282   2.902  25.899  0.00  0.00    +0.037 A 
ENDBRANCH   8   9
ENDBRANCH   7   8
TORSDOF 3
ENDMDL
MODEL 4
REMARK VINA RESULT:     -11.6      1.753      2.293
REMARK  Name = 
REMARK  3 active torsions:
REMARK  status: ('A' for Active; 'I' for Inactive)
REMARK    1  A    between atoms: N_3  and  C_22
REMARK    2  A    between atoms: N_7  and  C_8
REMARK    3  A    between atoms: C_8  and  C_9
REMARK                            x       y       z     vdW  Elec       q    Type
REMARK                         _______ _______ _______ _____ _____    ______ ____
ROOT
ATOM      1  O   UNL     1      -0.408   2.839  23.701  0.00  0.00    -0.252 OA
ATOM      2  C   UNL     1      -0.714   2.477  24.377  0.00  0.00    +0.307 C 
ATOM      3  N   UNL     1      -1.107   2.857  24.995  0.00  0.00    -0.264 N 
ATOM      4  C   UNL     1      -1.315   2.287  25.552  0.00  0.00    +0.116 C 
ATOM      5  C   UNL     1      -1.051   1.554  25.281  0.00  0.00    +0.113 C 
ATOM      6  C   UNL     1      -1.101   0.796  25.600  0.00  0.00    +0.094 C 
ATOM      7  N   UNL     1      -0.780   0.154  25.193  0.00  0.00    -0.266 NA
ATOM     19  C   UNL     1      -0.407   0.271  24.465  0.00  0.00    +0.094 C 
ATOM     20  C   UNL     1      -0.357   1.031  24.146  0.00  0.00    +0.112 C 
ATOM     21  N   UNL     1      -0.679   1.672  24.553  0.00  0.00    -0.261 N 
ENDROOT
BRANCH   3  22
ATOM     22  C   UNL     1      -1.263   3.666  25.045  0.00  0.00    +0.077 C 
ATOM     23  C   UNL     1      -2.033   3.928  25.186  0.00  0.00    +0.020 C 
ATOM     24  C   UNL     1      -2.190   4.736  25.236  0.00  0.00    +0.002 C 
ATOM     25  C   UNL     1      -1.577   5.282  25.146  0.00  0.00    +0.000 C 
ATOM     26  C   UNL     1      -0.808   5.019  25.006  0.00  0.00    +0.002 C 
ATOM     27  C   UNL     1      -0.651   4.210  24.955  0.00  0.00    +0.020 C 
ENDBRANCH   3  22
BRANCH   7   8
ATOM      8  C   UNL     1      -0.830  -0.605  25.512  0.00  0.00    +0.099 C 
BRANCH   8   9
ATOM      9  C   UNL     1      -1.348  -1.158  25.185  0.00  0.00    -0.003 A 
ATOM     10  C   UNL     1      -1.054  -1.777  24.727  0.00  0.00    +0.000 A 
ATOM     11  C   UNL     1      -1.572  -2.330  24.400  0.00  0.00    +0.040 A 
ATOM     12  C   UNL     1      -2.385  -2.263  24.531  0.00  0.00    +0.172 A 
ATOM     13  O   UNL     1      -2.902  -2.815  24.204  0.00  0.00    -0.468 OA
ATOM     14  C   UNL     1      -3.714  -2.747  24.335  0.00  0.00    +0.253 C 
ATOM     15  C   UNL     1      -4.008  -2.127  24.794  0.00  0.00    +0.253 C 
ATOM     16  O   UNL     1      -3.489  -1.575  25.121  0.00  0.00    -0.468 OA
ATOM     17  C   UNL     1      -2.678  -1.642  24.990  0.00  0.00    +0.172 A 
ATOM     18  C   UNL     1      -2.160  -1.090  25.316  0.00  0.00    +0.037 A 
ENDBRANCH   8   9
ENDBRANCH   7   8
TORSDOF 3
ENDMDL
