MODEL 1
REMARK VINA RESULT:     -12.4      0.000      0.000
REMARK  Name = 
REMARK  6 active torsions:
REMARK  status: ('A' for Active; 'I' for Inactive)
REMARK    1  A    between atoms: C_4  and  C_18
REMARK    2  A    between atoms: C_6  and  C_8
REMARK    3  A    between atoms: C_11  and  C_14
REMARK    4  A    between atoms: C_25  and  C_26
REMARK    5  A    between atoms: C_26  and  N_27
REMARK    6  A    between atoms: N_27  and  S_28
REMARK                            x       y       z     vdW  Elec       q    Type
REMARK                         _______ _______ _______ _____ _____    ______ ____
ROOT
ATOM      1  C   UNL     1      -6.495   1.667  24.808  0.00  0.00    +0.074 C 
ATOM      2  C   UNL     1      -5.682   1.527  24.801  0.00  0.00    +0.139 A 
ATOM      3  N   UNL     1      -5.155   2.161  24.810  0.00  0.00    -0.235 NA
ATOM      4  C   UNL     1      -4.342   2.022  24.802  0.00  0.00    +0.063 A 
ATOM      5  C   UNL     1      -4.056   1.249  24.785  0.00  0.00    +0.034 A 
ATOM      6  C   UNL     1      -4.583   0.615  24.776  0.00  0.00    +0.084 A 
ATOM      7  N   UNL     1      -5.396   0.753  24.784  0.00  0.00    -0.231 NA
ENDROOT
BRANCH   4  18
ATOM     18  C   UNL     1      -3.814   2.658  24.812  0.00  0.00    +0.056 C 
ATOM     19  C   UNL     1      -3.354   2.748  24.190  0.00  0.00    +0.078 C 
ATOM     20  N   UNL     1      -3.366   3.228  24.862  0.00  0.00    -0.272 NA
ATOM     21  C   UNL     1      -4.093   2.838  25.508  0.00  0.00    +0.072 C 
ATOM     22  C   UNL     1      -4.422   2.860  26.072  0.00  0.00    +0.018 C 
ATOM     23  C   UNL     1      -3.820   3.133  25.467  0.00  0.00    +0.010 C 
ATOM     24  C   UNL     1      -3.354   3.845  25.681  0.00  0.00    +0.018 C 
ATOM     25  C   UNL     1      -2.885   3.969  25.090  0.00  0.00    +0.077 C 
BRANCH  25  26
ATOM     26  C   UNL     1      -2.293   4.475  24.820  0.00  0.00    +0.131 C 
BRANCH  26  27
ATOM     27  N   UNL     1      -1.607   4.583  25.265  0.00  0.00    -0.081 NA
BRANCH  27  28
ATOM     28  S   UNL     1      -0.979   5.017  24.953  0.00  0.00    +0.059 S 
ATOM     29  C   UNL     1      -0.350   5.452  24.642  0.00  0.00    +0.197 C 
ATOM     30  O   UNL     1      -1.412   5.712  25.051  0.00  0.00    -0.156 OA
ATOM     31  O   UNL     1      -0.545   4.322  24.856  0.00  0.00    -0.156 OA
ENDBRANCH  27  28
ENDBRANCH  26  27
ENDBRANCH  25  26
ENDBRANCH   4  18
BRANCH   6   8
ATOM      8  C   UNL     1      -4.297  -0.159  24.759  0.00  0.00    +0.018 A 
ATOM      9  C   UNL     1      -4.311  -0.588  24.054  0.00  0.00    +0.001 A 
ATOM     10  C   UNL     1      -4.026  -1.362  24.036  0.00  0.00    +0.004 A 
ATOM     11  C   UNL     1      -3.727  -1.707  24.724  0.00  0.00    +0.071 A 
ATOM     12  C   UNL     1      -3.713  -1.278  25.428  0.00  0.00    +0.004 A 
ATOM     13  C   UNL     1      -3.998  -0.504  25.446  0.00  0.00    +0.001 A 
BRANCH  11  14
ATOM     14  C   UNL     1      -3.441  -2.481  24.706  0.00  0.00    +0.419 C 
ATOM     15  F   UNL     1      -3.157  -3.256  24.687  0.00  0.00    -0.166 F 
ATOM     16  F   UNL     1      -2.726  -2.225  25.029  0.00  0.00    -0.166 F 
ATOM     17  F   UNL     1      -4.157  -2.736  24.383  0.00  0.00    -0.166 F 
ENDBRANCH  11  14
ENDBRANCH   6   8
TORSDOF 6
ENDMDL
MODEL 2
REMARK VINA RESULT:     -12.2      3.545      5.457
REMARK  Name = 
REMARK  6 active torsions:
REMARK  status: ('A' for Active; 'I' for Inactive)
REMARK    1  A    between atoms: C_4  and  C_18
REMARK    2  A    between atoms: C_6  and  C_8
REMARK    3  A    between atoms: C_11  and  C_14
REMARK    4  A    between atoms: C_25  and  C_26
REMARK    5  A    between atoms: C_26  and  N_27
REMARK    6  A    between atoms: N_27  and  S_28
REMARK                            x       y       z     vdW  Elec       q    Type
REMARK                         _______ _______ _______ _____ _____    ______ ____
ROOT
ATOM      1  C   UNL     1      -5.778   3.281  25.611  0.00  0.00    +0.074 C 
ATOM      2  C   UNL     1      -5.037   2.961  25.441  0.00  0.00    +0.139 A 
ATOM      3  N   UNL     1      -4.958   2.151  25.312  0.00  0.00    -0.235 NA
ATOM      4  C   UNL     1      -4.216   1.830  25.142  0.00  0.00    +0.063 A 
ATOM      5  C   UNL     1      -3.555   2.320  25.101  0.00  0.00    +0.034 A 
ATOM      6  C   UNL     1      -3.634   3.131  25.230  0.00  0.00    +0.084 A 
ATOM      7  N   UNL     1      -4.375   3.452  25.400  0.00  0.00    -0.231 NA
ENDROOT
BRANCH   4  18
ATOM     18  C   UNL     1      -4.137   1.018  25.013  0.00  0.00    +0.056 C 
ATOM     19  C   UNL     1      -4.099   0.560  25.640  0.00  0.00    +0.078 C 
ATOM     20  N   UNL     1      -4.068   0.313  24.853  0.00  0.00    -0.272 NA
ATOM     21  C   UNL     1      -4.144   1.171  24.256  0.00  0.00    +0.072 C 
ATOM     22  C   UNL     1      -4.166   1.453  23.667  0.00  0.00    +0.018 C 
ATOM     23  C   UNL     1      -4.106   0.768  24.243  0.00  0.00    +0.010 C 
ATOM     24  C   UNL     1      -4.026  -0.030  23.887  0.00  0.00    +0.018 C 
ATOM     25  C   UNL     1      -3.985  -0.514  24.476  0.00  0.00    +0.077 C 
BRANCH  25  26
ATOM     26  C   UNL     1      -3.910  -1.314  24.661  0.00  0.00    +0.131 C 
BRANCH  26  27
ATOM     27  N   UNL     1      -3.425  -1.800  24.205  0.00  0.00    -0.081 NA
BRANCH  27  28
ATOM     28  S   UNL     1      -3.332  -2.595  24.405  0.00  0.00    +0.059 S 
ATOM     29  C   UNL     1      -3.238  -3.390  24.606  0.00  0.00    +0.197 C 
ATOM     30  O   UNL     1      -2.574  -2.434  24.689  0.00  0.00    -0.156 OA
ATOM     31  O   UNL     1      -4.089  -2.756  24.121  0.00  0.00    -0.156 OA
ENDBRANCH  27  28
ENDBRANCH  26  27
ENDBRANCH  25  26
ENDBRANCH   4  18
BRANCH   6   8
ATOM      8  C   UNL     1      -2.972   3.623  25.190  0.00  0.00    +0.018 A 
ATOM      9  C   UNL     1      -2.849   4.093  24.523  0.00  0.00    +0.001 A 
ATOM     10  C   UNL     1      -2.187   4.585  24.482  0.00  0.00    +0.004 A 
ATOM     11  C   UNL     1      -1.650   4.606  25.108  0.00  0.00    +0.071 A 
ATOM     12  C   UNL     1      -1.774   4.136  25.774  0.00  0.00    +0.004 A 
ATOM     13  C   UNL     1      -2.435   3.644  25.815  0.00  0.00    +0.001 A 
BRANCH  11  14
ATOM     14  C   UNL     1      -0.988   5.098  25.067  0.00  0.00    +0.419 C 
ATOM     15  F   UNL     1      -0.326   5.588  25.025  0.00  0.00    -0.166 F 
ATOM     16  F   UNL     1      -1.440   5.729  25.345  0.00  0.00    -0.166 F 
ATOM     17  F   UNL     1      -0.537   4.465  24.788  0.00  0.00    -0.166 F 
ENDBRANCH  11  14
ENDBRANCH   6   8
TORSDOF 6
ENDMDL
MODEL 3
REMARK VINA RESULT:     -11.0      3.250      4.502
REMARK  Name = 
REMARK  6 active torsions:
REMARK  status: ('A' for Active; 'I' for Inactive)
REMARK    1  A    between atoms: C_4  and  C_18
REMARK    2  A    between atoms: C_6  and  C_8
REMARK    3  A    between atoms: C_11  and  C_14
REMARK    4  A    between atoms: C_25  and  C_26
REMARK    5  A    between atoms: C_26  and  N_27
REMARK    6  A    between atoms: N_27  and  S_28
REMARK                            x       y       z     vdW  Elec       q    Type
REMARK                         _______ _______ _______ _____ _____    ______ ____
ROOT
ATOM      1  C   UNL     1      -1.850   5.271  25.368  0.00  0.00    +0.074 C 
ATOM      2  C   UNL     1      -1.987   4.488  25.147  0.00  0.00    +0.139 A 
ATOM      3  N   UNL     1      -1.359   4.011  24.907  0.00  0.00    -0.235 NA
ATOM      4  C   UNL     1      -1.497   3.228  24.686  0.00  0.00    +0.063 A 
ATOM      5  C   UNL     1      -2.262   2.922  24.705  0.00  0.00    +0.034 A 
ATOM      6  C   UNL     1      -2.890   3.399  24.946  0.00  0.00    +0.084 A 
ATOM      7  N   UNL     1      -2.754   4.182  25.167  0.00  0.00    -0.231 NA
ENDROOT
BRANCH   4  18
ATOM     18  C   UNL     1      -0.867   2.750  24.445  0.00  0.00    +0.056 C 
ATOM     19  C   UNL     1      -0.739   2.690  23.680  0.00  0.00    +0.078 C 
ATOM     20  N   UNL     1      -0.305   2.321  24.278  0.00  0.00    -0.272 NA
ATOM     21  C   UNL     1      -0.732   2.607  25.192  0.00  0.00    +0.072 C 
ATOM     22  C   UNL     1      -0.746   2.584  25.845  0.00  0.00    +0.018 C 
ATOM     23  C   UNL     1      -0.437   2.386  25.026  0.00  0.00    +0.010 C 
ATOM     24  C   UNL     1       0.256   1.848  24.995  0.00  0.00    +0.018 C 
ATOM     25  C   UNL     1       0.416   1.762  24.253  0.00  0.00    +0.077 C 
BRANCH  25  26
ATOM     26  C   UNL     1       0.934   1.385  23.735  0.00  0.00    +0.131 C 
BRANCH  26  27
ATOM     27  N   UNL     1       0.931   0.562  23.674  0.00  0.00    -0.081 NA
BRANCH  27  28
ATOM     28  S   UNL     1       1.364   0.192  23.077  0.00  0.00    +0.059 S 
ATOM     29  C   UNL     1       1.796  -0.179  22.480  0.00  0.00    +0.197 C 
ATOM     30  O   UNL     1       0.725  -0.307  22.924  0.00  0.00    -0.156 OA
ATOM     31  O   UNL     1       2.003   0.690  23.230  0.00  0.00    -0.156 OA
ENDBRANCH  27  28
ENDBRANCH  26  27
ENDBRANCH  25  26
ENDBRANCH   4  18
BRANCH   6   8
ATOM      8  C   UNL     1      -3.657   3.094  24.965  0.00  0.00    +0.018 A 
ATOM      9  C   UNL     1      -4.080   3.087  25.674  0.00  0.00    +0.001 A 
ATOM     10  C   UNL     1      -4.846   2.782  25.694  0.00  0.00    +0.004 A 
ATOM     11  C   UNL     1      -5.189   2.484  25.005  0.00  0.00    +0.071 A 
ATOM     12  C   UNL     1      -4.767   2.491  24.298  0.00  0.00    +0.004 A 
ATOM     13  C   UNL     1      -4.000   2.796  24.277  0.00  0.00    +0.001 A 
BRANCH  11  14
ATOM     14  C   UNL     1      -5.956   2.179  25.026  0.00  0.00    +0.419 C 
ATOM     15  F   UNL     1      -6.723   1.875  25.047  0.00  0.00    -0.166 F 
ATOM     16  F   UNL     1      -5.677   1.459  24.736  0.00  0.00    -0.166 F 
ATOM     17  F   UNL     1      -6.234   2.900  25.316  0.00  0.00    -0.166 F 
ENDBRANCH  11  14
ENDBRANCH   6   8
TORSDOF 6
ENDMDL
MODEL 4
REMARK VINA RESULT:     -10.9      3.652      4.586
REMARK  Name = 
REMARK  6 active torsions:
REMARK  status: ('A' for Active; 'I' for Inactive)
REMARK    1  A    between atoms: C_4  and  C_18
REMARK    2  A    between atoms: C_6  and  C_8
REMARK    3  A    between atoms: C_11  and  C_14
REMARK    4  A    between atoms: C_25  and  C_26
REMARK    5  A    between atoms: C_26  and  N_27
REMARK    6  A    between atoms: N_27  and  S_28
REMARK                            x       y       z     vdW  Elec       q    Type
REMARK                         _______ _______ _______ _____ _____    ______ ____
ROOT
ATOM      1  C   UNL     1      -4.362  -1.084  24.250  0.00  0.00    +0.074 C 
ATOM      2  C   UNL     1      -3.960  -0.365  24.308  0.00  0.00    +0.139 A 
ATOM      3  N   UNL     1      -3.154  -0.328  24.140  0.00  0.00    -0.235 NA
ATOM      4  C   UNL     1      -2.753   0.390  24.198  0.00  0.00    +0.063 A 
ATOM      5  C   UNL     1      -3.157   1.072  24.424  0.00  0.00    +0.034 A 
ATOM      6  C   UNL     1      -3.964   1.035  24.593  0.00  0.00    +0.084 A 
ATOM      7  N   UNL     1      -4.366   0.317  24.535  0.00  0.00    -0.231 NA
ENDROOT
BRANCH   4  18
ATOM     18  C   UNL     1      -1.945   0.427  24.030  0.00  0.00    +0.056 C 
ATOM     19  C   UNL     1      -1.737   0.731  23.344  0.00  0.00    +0.078 C 
ATOM     20  N   UNL     1      -1.226   0.440  23.923  0.00  0.00    -0.272 NA
ATOM     21  C   UNL     1      -1.819   0.104  24.720  0.00  0.00    +0.072 C 
ATOM     22  C   UNL     1      -1.874  -0.165  25.313  0.00  0.00    +0.018 C 
ATOM     23  C   UNL     1      -1.437   0.143  24.593  0.00  0.00    +0.010 C 
ATOM     24  C   UNL     1      -0.561   0.087  24.620  0.00  0.00    +0.018 C 
ATOM     25  C   UNL     1      -0.316   0.378  23.958  0.00  0.00    +0.077 C 
BRANCH  25  26
ATOM     26  C   UNL     1       0.369   0.540  23.529  0.00  0.00    +0.131 C 
BRANCH  26  27
ATOM     27  N   UNL     1       0.913  -0.061  23.377  0.00  0.00    -0.081 NA
BRANCH  27  28
ATOM     28  S   UNL     1       1.563   0.086  22.890  0.00  0.00    +0.059 S 
ATOM     29  C   UNL     1       2.212   0.232  22.403  0.00  0.00    +0.197 C 
ATOM     30  O   UNL     1       1.292  -0.485  22.359  0.00  0.00    -0.156 OA
ATOM     31  O   UNL     1       1.833   0.656  23.421  0.00  0.00    -0.156 OA
ENDBRANCH  27  28
ENDBRANCH  26  27
ENDBRANCH  25  26
ENDBRANCH   4  18
BRANCH   6   8
ATOM      8  C   UNL     1      -4.370   1.717  24.819  0.00  0.00    +0.018 A 
ATOM      9  C   UNL     1      -4.855   1.705  25.487  0.00  0.00    +0.001 A 
ATOM     10  C   UNL     1      -5.262   2.386  25.714  0.00  0.00    +0.004 A 
ATOM     11  C   UNL     1      -5.183   3.079  25.273  0.00  0.00    +0.071 A 
ATOM     12  C   UNL     1      -4.699   3.091  24.606  0.00  0.00    +0.004 A 
ATOM     13  C   UNL     1      -4.292   2.410  24.379  0.00  0.00    +0.001 A 
BRANCH  11  14
ATOM     14  C   UNL     1      -5.590   3.760  25.500  0.00  0.00    +0.419 C 
ATOM     15  F   UNL     1      -5.995   4.442  25.727  0.00  0.00    -0.166 F 
ATOM     16  F   UNL     1      -6.308   3.374  25.375  0.00  0.00    -0.166 F 
ATOM     17  F   UNL     1      -4.871   4.146  25.625  0.00  0.00    -0.166 F 
ENDBRANCH  11  14
ENDBRANCH   6   8
TORSDOF 6
ENDMDL
MODEL 5
REMARK VINA RESULT:     -10.8      2.433      3.079
REMARK  Name = 
REMARK  6 active torsions:
REMARK  status: ('A' for Active; 'I' for Inactive)
REMARK    1  A    between atoms: C_4  and  C_18
REMARK    2  A    between atoms: C_6  and  C_8
REMARK    3  A    between atoms: C_11  and  C_14
REMARK    4  A    between atoms: C_25  and  C_26
REMARK    5  A    between atoms: C_26  and  N_27
REMARK    6  A    between atoms: N_27  and  S_28
REMARK                            x       y       z     vdW  Elec       q    Type
REMARK                         _______ _______ _______ _____ _____    ______ ____
ROOT
ATOM      1  C   UNL     1       0.690  -0.407  23.512  0.00  0.00    +0.074 C 
ATOM      2  C   UNL     1      -0.043  -0.226  23.844  0.00  0.00    +0.139 A 
ATOM      3  N   UNL     1      -0.218   0.550  24.060  0.00  0.00    -0.235 NA
ATOM      4  C   UNL     1      -0.951   0.731  24.392  0.00  0.00    +0.063 A 
ATOM      5  C   UNL     1      -1.509   0.136  24.509  0.00  0.00    +0.034 A 
ATOM      6  C   UNL     1      -1.335  -0.640  24.293  0.00  0.00    +0.084 A 
ATOM      7  N   UNL     1      -0.602  -0.822  23.961  0.00  0.00    -0.231 NA
ENDROOT
BRANCH   4  18
ATOM     18  C   UNL     1      -1.126   1.509  24.608  0.00  0.00    +0.056 C 
ATOM     19  C   UNL     1      -1.506   1.946  24.089  0.00  0.00    +0.078 C 
ATOM     20  N   UNL     1      -1.259   2.186  24.839  0.00  0.00    -0.272 NA
ATOM     21  C   UNL     1      -0.779   1.366  25.283  0.00  0.00    +0.072 C 
ATOM     22  C   UNL     1      -0.464   1.098  25.789  0.00  0.00    +0.018 C 
ATOM     23  C   UNL     1      -0.887   1.751  25.343  0.00  0.00    +0.010 C 
ATOM     24  C   UNL     1      -0.966   2.517  25.765  0.00  0.00    +0.018 C 
ATOM     25  C   UNL     1      -1.338   2.979  25.284  0.00  0.00    +0.077 C 
BRANCH  25  26
ATOM     26  C   UNL     1      -1.635   3.744  25.210  0.00  0.00    +0.131 C 
BRANCH  26  27
ATOM     27  N   UNL     1      -1.147   4.393  25.353  0.00  0.00    -0.081 NA
BRANCH  27  28
ATOM     28  S   UNL     1      -1.401   5.152  25.155  0.00  0.00    +0.059 S 
ATOM     29  C   UNL     1      -1.655   5.911  24.956  0.00  0.00    +0.197 C 
ATOM     30  O   UNL     1      -0.688   5.287  24.761  0.00  0.00    -0.156 OA
ATOM     31  O   UNL     1      -2.113   5.017  25.548  0.00  0.00    -0.156 OA
ENDBRANCH  27  28
ENDBRANCH  26  27
ENDBRANCH  25  26
ENDBRANCH   4  18
BRANCH   6   8
ATOM      8  C   UNL     1      -1.893  -1.237  24.410  0.00  0.00    +0.018 A 
ATOM      9  C   UNL     1      -1.656  -1.972  24.700  0.00  0.00    +0.001 A 
ATOM     10  C   UNL     1      -2.214  -2.569  24.817  0.00  0.00    +0.004 A 
ATOM     11  C   UNL     1      -3.009  -2.430  24.643  0.00  0.00    +0.071 A 
ATOM     12  C   UNL     1      -3.245  -1.696  24.353  0.00  0.00    +0.004 A 
ATOM     13  C   UNL     1      -2.687  -1.099  24.236  0.00  0.00    +0.001 A 
BRANCH  11  14
ATOM     14  C   UNL     1      -3.566  -3.027  24.759  0.00  0.00    +0.419 C 
ATOM     15  F   UNL     1      -4.124  -3.624  24.877  0.00  0.00    -0.166 F 
ATOM     16  F   UNL     1      -3.561  -3.191  23.951  0.00  0.00    -0.166 F 
ATOM     17  F   UNL     1      -3.571  -2.863  25.568  0.00  0.00    -0.166 F 
ENDBRANCH  11  14
ENDBRANCH   6   8
TORSDOF 6
ENDMDL
MODEL 6
REMARK VINA RESULT:     -10.4      4.248      6.214
REMARK  Name = 
REMARK  6 active torsions:
REMARK  status: ('A' for Active; 'I' for Inactive)
REMARK    1  A    between atoms: C_4  and  C_18
REMARK    2  A    between atoms: C_6  and  C_8
REMARK    3  A    between atoms: C_11  and  C_14
REMARK    4  A    between atoms: C_25  and  C_26
REMARK    5  A    between atoms: C_26  and  N_27
REMARK    6  A    between atoms: N_27  and  S_28
REMARK                            x       y       z     vdW  Elec       q    Type
REMARK                         _______ _______ _______ _____ _____    ______ ____
ROOT
ATOM      1  C   UNL     1       1.436   1.190  23.862  0.00  0.00    +0.074 C 
ATOM      2  C   UNL     1       0.647   1.291  24.081  0.00  0.00    +0.139 A 
ATOM      3  N   UNL     1       0.139   0.641  24.106  0.00  0.00    -0.235 NA
ATOM      4  C   UNL     1      -0.650   0.742  24.325  0.00  0.00    +0.063 A 
ATOM      5  C   UNL     1      -0.931   1.492  24.520  0.00  0.00    +0.034 A 
ATOM      6  C   UNL     1      -0.424   2.142  24.495  0.00  0.00    +0.084 A 
ATOM      7  N   UNL     1       0.365   2.042  24.276  0.00  0.00    -0.231 NA
ENDROOT
BRANCH   4  18
ATOM     18  C   UNL     1      -1.158   0.091  24.350  0.00  0.00    +0.056 C 
ATOM     19  C   UNL     1      -1.519  -0.103  23.689  0.00  0.00    +0.078 C 
ATOM     20  N   UNL     1      -1.594  -0.486  24.416  0.00  0.00    -0.272 NA
ATOM     21  C   UNL     1      -0.979   0.020  25.097  0.00  0.00    +0.072 C 
ATOM     22  C   UNL     1      -0.735   0.090  25.699  0.00  0.00    +0.018 C 
ATOM     23  C   UNL     1      -1.237  -0.289  25.060  0.00  0.00    +0.010 C 
ATOM     24  C   UNL     1      -1.712  -0.986  25.304  0.00  0.00    +0.018 C 
ATOM     25  C   UNL     1      -2.086  -1.209  24.677  0.00  0.00    +0.077 C 
BRANCH  25  26
ATOM     26  C   UNL     1      -2.619  -1.773  24.400  0.00  0.00    +0.131 C 
BRANCH  26  27
ATOM     27  N   UNL     1      -3.411  -1.741  24.630  0.00  0.00    -0.081 NA
BRANCH  27  28
ATOM     28  S   UNL     1      -3.968  -2.222  24.258  0.00  0.00    +0.059 S 
ATOM     29  C   UNL     1      -4.525  -2.703  23.886  0.00  0.00    +0.197 C 
ATOM     30  O   UNL     1      -4.333  -1.554  23.942  0.00  0.00    -0.156 OA
ATOM     31  O   UNL     1      -3.603  -2.891  24.574  0.00  0.00    -0.156 OA
ENDBRANCH  27  28
ENDBRANCH  26  27
ENDBRANCH  25  26
ENDBRANCH   4  18
BRANCH   6   8
ATOM      8  C   UNL     1      -0.705   2.893  24.690  0.00  0.00    +0.018 A 
ATOM      9  C   UNL     1      -0.511   3.230  25.418  0.00  0.00    +0.001 A 
ATOM     10  C   UNL     1      -0.792   3.981  25.613  0.00  0.00    +0.004 A 
ATOM     11  C   UNL     1      -1.266   4.395  25.080  0.00  0.00    +0.071 A 
ATOM     12  C   UNL     1      -1.459   4.058  24.353  0.00  0.00    +0.004 A 
ATOM     13  C   UNL     1      -1.179   3.307  24.157  0.00  0.00    +0.001 A 
BRANCH  11  14
ATOM     14  C   UNL     1      -1.547   5.146  25.275  0.00  0.00    +0.419 C 
ATOM     15  F   UNL     1      -1.826   5.898  25.470  0.00  0.00    -0.166 F 
ATOM     16  F   UNL     1      -2.201   4.806  25.645  0.00  0.00    -0.166 F 
ATOM     17  F   UNL     1      -0.892   5.486  24.905  0.00  0.00    -0.166 F 
ENDBRANCH  11  14
ENDBRANCH   6   8
TORSDOF 6
ENDMDL
MODEL 7
REMARK VINA RESULT:     -10.0      3.778      5.437
REMARK  Name = 
REMARK  6 active torsions:
REMARK  status: ('A' for Active; 'I' for Inactive)
REMARK    1  A    between atoms: C_4  and  C_18
REMARK    2  A    between atoms: C_6  and  C_8
REMARK    3  A    between atoms: C_11  and  C_14
REMARK    4  A    between atoms: C_25  and  C_26
REMARK    5  A    between atoms: C_26  and  N_27
REMARK    6  A    between atoms: N_27  and  S_28
REMARK                            x       y       z     vdW  Elec       q    Type
REMARK                         _______ _______ _______ _____ _____    ______ ____
ROOT
ATOM      1  C   UNL     1      -0.558   3.663  24.333  0.00  0.00    +0.074 C 
ATOM      2  C   UNL     1      -1.184   3.149  24.490  0.00  0.00    +0.139 A 
ATOM      3  N   UNL     1      -1.063   2.334  24.471  0.00  0.00    -0.235 NA
ATOM      4  C   UNL     1      -1.690   1.820  24.628  0.00  0.00    +0.063 A 
ATOM      5  C   UNL     1      -2.436   2.121  24.804  0.00  0.00    +0.034 A 
ATOM      6  C   UNL     1      -2.557   2.937  24.824  0.00  0.00    +0.084 A 
ATOM      7  N   UNL     1      -1.932   3.451  24.667  0.00  0.00    -0.231 NA
ENDROOT
BRANCH   4  18
ATOM     18  C   UNL     1      -1.568   1.003  24.608  0.00  0.00    +0.056 C 
ATOM     19  C   UNL     1      -1.858   0.615  23.999  0.00  0.00    +0.078 C 
ATOM     20  N   UNL     1      -1.439   0.288  24.631  0.00  0.00    -0.272 NA
ATOM     21  C   UNL     1      -1.192   1.075  25.278  0.00  0.00    +0.072 C 
ATOM     22  C   UNL     1      -0.910   1.292  25.826  0.00  0.00    +0.018 C 
ATOM     23  C   UNL     1      -1.158   0.675  25.224  0.00  0.00    +0.010 C 
ATOM     24  C   UNL     1      -0.922  -0.151  25.400  0.00  0.00    +0.018 C 
ATOM     25  C   UNL     1      -1.190  -0.569  24.820  0.00  0.00    +0.077 C 
BRANCH  25  26
ATOM     26  C   UNL     1      -1.230  -1.341  24.533  0.00  0.00    +0.131 C 
BRANCH  26  27
ATOM     27  N   UNL     1      -1.676  -1.908  24.934  0.00  0.00    -0.081 NA
BRANCH  27  28
ATOM     28  S   UNL     1      -1.985  -2.554  24.525  0.00  0.00    +0.059 S 
ATOM     29  C   UNL     1      -2.293  -3.200  24.115  0.00  0.00    +0.197 C 
ATOM     30  O   UNL     1      -1.263  -2.652  24.137  0.00  0.00    -0.156 OA
ATOM     31  O   UNL     1      -2.706  -2.456  24.912  0.00  0.00    -0.156 OA
ENDBRANCH  27  28
ENDBRANCH  26  27
ENDBRANCH  25  26
ENDBRANCH   4  18
BRANCH   6   8
ATOM      8  C   UNL     1      -3.304   3.239  25.001  0.00  0.00    +0.018 A 
ATOM      9  C   UNL     1      -3.904   3.215  24.434  0.00  0.00    +0.001 A 
ATOM     10  C   UNL     1      -4.651   3.517  24.610  0.00  0.00    +0.004 A 
ATOM     11  C   UNL     1      -4.799   3.844  25.353  0.00  0.00    +0.071 A 
ATOM     12  C   UNL     1      -4.200   3.868  25.919  0.00  0.00    +0.004 A 
ATOM     13  C   UNL     1      -3.452   3.566  25.743  0.00  0.00    +0.001 A 
BRANCH  11  14
ATOM     14  C   UNL     1      -5.546   4.146  25.529  0.00  0.00    +0.419 C 
ATOM     15  F   UNL     1      -6.293   4.450  25.705  0.00  0.00    -0.166 F 
ATOM     16  F   UNL     1      -5.801   3.392  25.746  0.00  0.00    -0.166 F 
ATOM     17  F   UNL     1      -5.291   4.901  25.313  0.00  0.00    -0.166 F 
ENDBRANCH  11  14
ENDBRANCH   6   8
TORSDOF 6
ENDMDL
