MODEL 1
REMARK VINA RESULT:      -9.6      0.000      0.000
REMARK  Name = 
REMARK  7 active torsions:
REMARK  status: ('A' for Active; 'I' for Inactive)
REMARK    1  A    between atoms: C_3  and  C_4
REMARK    2  A    between atoms: C_4  and  N_5
REMARK    3  A    between atoms: C_6  and  C_8
REMARK    4  A    between atoms: C_16  and  N_17
REMARK    5  A    between atoms: N_17  and  C_18
REMARK    6  A    between atoms: C_18  and  C_19
REMARK    7  A    between atoms: C_22  and  C_25
REMARK                            x       y       z     vdW  Elec       q    Type
REMARK                         _______ _______ _______ _____ _____    ______ ____
ROOT
ATOM      1  O   UNL     1      -0.806   0.786  23.778  0.00  0.00    -0.219 OA
ATOM      2  C   UNL     1      -0.745   0.791  24.601  0.00  0.00    +0.199 C 
ATOM      3  C   UNL     1      -0.502   1.428  25.065  0.00  0.00    +0.169 C 
ATOM     14  O   UNL     1      -0.524   1.190  25.854  0.00  0.00    -0.350 OA
ATOM     15  C   UNL     1      -0.780   0.407  25.878  0.00  0.00    +0.162 C 
ATOM     16  C   UNL     1      -0.917   0.159  25.104  0.00  0.00    +0.135 C 
ENDROOT
BRANCH   3   4
ATOM      4  C   UNL     1      -0.277   2.172  24.788  0.00  0.00    +0.148 C 
BRANCH   4   5
ATOM      5  N   UNL     1      -0.717   2.839  24.994  0.00  0.00    -0.199 NA
ATOM      6  C   UNL     1      -0.544   3.569  24.650  0.00  0.00    +0.265 C 
ATOM      7  O   UNL     1       0.069   3.632  24.102  0.00  0.00    -0.268 OA
BRANCH   6   8
ATOM      8  C   UNL     1      -0.984   4.236  24.856  0.00  0.00    +0.055 A 
ATOM      9  C   UNL     1      -1.721   4.149  25.215  0.00  0.00    +0.005 A 
ATOM     10  C   UNL     1      -2.161   4.816  25.421  0.00  0.00    +0.000 A 
ATOM     11  C   UNL     1      -1.863   5.570  25.267  0.00  0.00    +0.000 A 
ATOM     12  C   UNL     1      -1.126   5.657  24.907  0.00  0.00    +0.000 A 
ATOM     13  C   UNL     1      -0.686   4.990  24.702  0.00  0.00    +0.005 A 
ENDBRANCH   6   8
ENDBRANCH   4   5
ENDBRANCH   3   4
BRANCH  16  17
ATOM     17  N   UNL     1      -1.179  -0.587  24.872  0.00  0.00    -0.209 NA
BRANCH  17  18
ATOM     18  C   UNL     1      -1.664  -1.028  25.374  0.00  0.00    +0.115 C 
BRANCH  18  19
ATOM     19  C   UNL     1      -2.251  -1.514  25.058  0.00  0.00    -0.005 A 
ATOM     20  C   UNL     1      -2.044  -2.146  24.569  0.00  0.00    -0.003 A 
ATOM     21  C   UNL     1      -2.631  -2.632  24.253  0.00  0.00    +0.006 A 
ATOM     22  C   UNL     1      -3.425  -2.486  24.426  0.00  0.00    +0.080 A 
ATOM     23  C   UNL     1      -3.631  -1.855  24.914  0.00  0.00    +0.006 A 
ATOM     24  C   UNL     1      -3.044  -1.368  25.230  0.00  0.00    -0.003 A 
BRANCH  22  25
ATOM     25  C   UNL     1      -4.012  -2.973  24.110  0.00  0.00    +0.388 C 
ATOM     26  O   UNL     1      -3.994  -3.785  24.250  0.00  0.00    -0.241 OA
ATOM     27  O   UNL     1      -4.616  -2.646  23.653  0.00  0.00    -0.241 OA
ENDBRANCH  22  25
ENDBRANCH  18  19
ENDBRANCH  17  18
ENDBRANCH  16  17
TORSDOF 7
ENDMDL
MODEL 2
REMARK VINA RESULT:      -9.5      1.200      5.998
REMARK  Name = 
REMARK  7 active torsions:
REMARK  status: ('A' for Active; 'I' for Inactive)
REMARK    1  A    between atoms: C_3  and  C_4
REMARK    2  A    between atoms: C_4  and  N_5
REMARK    3  A    between atoms: C_6  and  C_8
REMARK    4  A    between atoms: C_16  and  N_17
REMARK    5  A    between atoms: N_17  and  C_18
REMARK    6  A    between atoms: C_18  and  C_19
REMARK    7  A    between atoms: C_22  and  C_25
REMARK                            x       y       z     vdW  Elec       q    Type
REMARK                         _______ _______ _______ _____ _____    ______ ____
ROOT
ATOM      1  O   UNL     1      -1.129   0.319  25.795  0.00  0.00    -0.219 OA
ATOM      2  C   UNL     1      -0.752   0.231  25.067  0.00  0.00    +0.199 C 
ATOM      3  C   UNL     1      -0.741  -0.453  24.606  0.00  0.00    +0.169 C 
ATOM     14  O   UNL     1      -0.302  -0.295  23.926  0.00  0.00    -0.350 OA
ATOM     15  C   UNL     1      -0.041   0.487  23.967  0.00  0.00    +0.162 C 
ATOM     16  C   UNL     1      -0.319   0.812  24.671  0.00  0.00    +0.135 C 
ENDROOT
BRANCH   3   4
ATOM      4  C   UNL     1      -1.106  -1.169  24.793  0.00  0.00    +0.148 C 
BRANCH   4   5
ATOM      5  N   UNL     1      -1.873  -1.322  24.530  0.00  0.00    -0.199 NA
ATOM      6  C   UNL     1      -2.211  -2.065  24.654  0.00  0.00    +0.265 C 
ATOM      7  O   UNL     1      -1.782  -2.654  25.041  0.00  0.00    -0.268 OA
BRANCH   6   8
ATOM      8  C   UNL     1      -2.978  -2.218  24.392  0.00  0.00    +0.055 A 
ATOM      9  C   UNL     1      -3.235  -2.996  24.301  0.00  0.00    +0.005 A 
ATOM     10  C   UNL     1      -4.002  -3.150  24.038  0.00  0.00    +0.000 A 
ATOM     11  C   UNL     1      -4.512  -2.524  23.867  0.00  0.00    +0.000 A 
ATOM     12  C   UNL     1      -4.255  -1.745  23.959  0.00  0.00    +0.000 A 
ATOM     13  C   UNL     1      -3.488  -1.592  24.221  0.00  0.00    +0.005 A 
ENDBRANCH   6   8
ENDBRANCH   4   5
ENDBRANCH   3   4
BRANCH  16  17
ATOM     17  N   UNL     1      -0.188   1.582  24.935  0.00  0.00    -0.209 NA
BRANCH  17  18
ATOM     18  C   UNL     1      -0.205   2.209  24.400  0.00  0.00    +0.115 C 
BRANCH  18  19
ATOM     19  C   UNL     1      -0.551   2.927  24.616  0.00  0.00    -0.005 A 
ATOM     20  C   UNL     1      -0.228   3.372  25.231  0.00  0.00    -0.003 A 
ATOM     21  C   UNL     1      -0.575   4.089  25.447  0.00  0.00    +0.006 A 
ATOM     22  C   UNL     1      -1.244   4.361  25.048  0.00  0.00    +0.080 A 
ATOM     23  C   UNL     1      -1.567   3.916  24.433  0.00  0.00    +0.006 A 
ATOM     24  C   UNL     1      -1.220   3.198  24.217  0.00  0.00    -0.003 A 
BRANCH  22  25
ATOM     25  C   UNL     1      -1.590   5.078  25.264  0.00  0.00    +0.388 C 
ATOM     26  O   UNL     1      -2.284   5.083  25.709  0.00  0.00    -0.241 OA
ATOM     27  O   UNL     1      -1.241   5.789  25.035  0.00  0.00    -0.241 OA
ENDBRANCH  22  25
ENDBRANCH  18  19
ENDBRANCH  17  18
ENDBRANCH  16  17
TORSDOF 7
ENDMDL
MODEL 3
REMARK VINA RESULT:      -9.5      2.142      2.615
REMARK  Name = 
REMARK  7 active torsions:
REMARK  status: ('A' for Active; 'I' for Inactive)
REMARK    1  A    between atoms: C_3  and  C_4
REMARK    2  A    between atoms: C_4  and  N_5
REMARK    3  A    between atoms: C_6  and  C_8
REMARK    4  A    between atoms: C_16  and  N_17
REMARK    5  A    between atoms: N_17  and  C_18
REMARK    6  A    between atoms: C_18  and  C_19
REMARK    7  A    between atoms: C_22  and  C_25
REMARK                            x       y       z     vdW  Elec       q    Type
REMARK                         _______ _______ _______ _____ _____    ______ ____
ROOT
ATOM      1  O   UNL     1      -3.626   1.821  23.708  0.00  0.00    -0.219 OA
ATOM      2  C   UNL     1      -4.098   1.894  24.381  0.00  0.00    +0.199 C 
ATOM      3  C   UNL     1      -4.233   2.588  24.806  0.00  0.00    +0.169 C 
ATOM     14  O   UNL     1      -4.736   2.409  25.434  0.00  0.00    -0.350 OA
ATOM     15  C   UNL     1      -4.912   1.604  25.398  0.00  0.00    +0.162 C 
ATOM     16  C   UNL     1      -4.519   1.285  24.747  0.00  0.00    +0.135 C 
ENDROOT
BRANCH   3   4
ATOM      4  C   UNL     1      -3.919   3.332  24.632  0.00  0.00    +0.148 C 
BRANCH   4   5
ATOM      5  N   UNL     1      -3.118   3.481  24.759  0.00  0.00    -0.199 NA
ATOM      6  C   UNL     1      -2.843   4.258  24.796  0.00  0.00    +0.265 C 
ATOM      7  O   UNL     1      -3.371   4.886  24.706  0.00  0.00    -0.268 OA
BRANCH   6   8
ATOM      8  C   UNL     1      -2.042   4.408  24.922  0.00  0.00    +0.055 A 
ATOM      9  C   UNL     1      -1.741   5.167  24.808  0.00  0.00    +0.005 A 
ATOM     10  C   UNL     1      -0.939   5.317  24.935  0.00  0.00    +0.000 A 
ATOM     11  C   UNL     1      -0.439   4.706  25.175  0.00  0.00    +0.000 A 
ATOM     12  C   UNL     1      -0.741   3.946  25.289  0.00  0.00    +0.000 A 
ATOM     13  C   UNL     1      -1.542   3.797  25.162  0.00  0.00    +0.005 A 
ENDBRANCH   6   8
ENDBRANCH   4   5
ENDBRANCH   3   4
BRANCH  16  17
ATOM     17  N   UNL     1      -4.540   0.498  24.505  0.00  0.00    -0.209 NA
BRANCH  17  18
ATOM     18  C   UNL     1      -4.520  -0.107  25.066  0.00  0.00    +0.115 C 
BRANCH  18  19
ATOM     19  C   UNL     1      -4.175  -0.833  24.878  0.00  0.00    -0.005 A 
ATOM     20  C   UNL     1      -4.385  -1.220  24.181  0.00  0.00    -0.003 A 
ATOM     21  C   UNL     1      -4.040  -1.946  23.993  0.00  0.00    +0.006 A 
ATOM     22  C   UNL     1      -3.487  -2.284  24.502  0.00  0.00    +0.080 A 
ATOM     23  C   UNL     1      -3.277  -1.897  25.200  0.00  0.00    +0.006 A 
ATOM     24  C   UNL     1      -3.622  -1.171  25.388  0.00  0.00    -0.003 A 
BRANCH  22  25
ATOM     25  C   UNL     1      -3.142  -3.010  24.314  0.00  0.00    +0.388 C 
ATOM     26  O   UNL     1      -2.329  -3.060  24.184  0.00  0.00    -0.241 OA
ATOM     27  O   UNL     1      -3.612  -3.686  24.257  0.00  0.00    -0.241 OA
ENDBRANCH  22  25
ENDBRANCH  18  19
ENDBRANCH  17  18
ENDBRANCH  16  17
TORSDOF 7
ENDMDL
MODEL 4
REMARK VINA RESULT:      -9.4      2.018      6.419
REMARK  Name = 
REMARK  7 active torsions:
REMARK  status: ('A' for Active; 'I' for Inactive)
REMARK    1  A    between atoms: C_3  and  C_4
REMARK    2  A    between atoms: C_4  and  N_5
REMARK    3  A    between atoms: C_6  and  C_8
REMARK    4  A    between atoms: C_16  and  N_17
REMARK    5  A    between atoms: N_17  and  C_18
REMARK    6  A    between atoms: C_18  and  C_19
REMARK    7  A    between atoms: C_22  and  C_25
REMARK                            x       y       z     vdW  Elec       q    Type
REMARK                         _______ _______ _______ _____ _____    ______ ____
ROOT
ATOM      1  O   UNL     1      -3.629   1.359  23.662  0.00  0.00    -0.219 OA
ATOM      2  C   UNL     1      -4.074   1.319  24.356  0.00  0.00    +0.199 C 
ATOM      3  C   UNL     1      -4.473   0.655  24.638  0.00  0.00    +0.169 C 
ATOM     14  O   UNL     1      -4.843   0.861  25.345  0.00  0.00    -0.350 OA
ATOM     15  C   UNL     1      -4.672   1.653  25.501  0.00  0.00    +0.162 C 
ATOM     16  C   UNL     1      -4.196   1.936  24.890  0.00  0.00    +0.135 C 
ENDROOT
BRANCH   3   4
ATOM      4  C   UNL     1      -4.499  -0.086  24.275  0.00  0.00    +0.148 C 
BRANCH   4   5
ATOM      5  N   UNL     1      -3.964  -0.673  24.498  0.00  0.00    -0.199 NA
ATOM      6  C   UNL     1      -3.985  -1.412  24.130  0.00  0.00    +0.265 C 
ATOM      7  O   UNL     1      -4.541  -1.562  23.540  0.00  0.00    -0.268 OA
BRANCH   6   8
ATOM      8  C   UNL     1      -3.450  -1.999  24.353  0.00  0.00    +0.055 A 
ATOM      9  C   UNL     1      -3.725  -2.710  24.667  0.00  0.00    +0.005 A 
ATOM     10  C   UNL     1      -3.190  -3.298  24.890  0.00  0.00    +0.000 A 
ATOM     11  C   UNL     1      -2.380  -3.173  24.799  0.00  0.00    +0.000 A 
ATOM     12  C   UNL     1      -2.104  -2.461  24.486  0.00  0.00    +0.000 A 
ATOM     13  C   UNL     1      -2.639  -1.874  24.263  0.00  0.00    +0.005 A 
ENDBRANCH   6   8
ENDBRANCH   4   5
ENDBRANCH   3   4
BRANCH  16  17
ATOM     17  N   UNL     1      -3.896   2.701  24.823  0.00  0.00    -0.209 NA
BRANCH  17  18
ATOM     18  C   UNL     1      -3.536   3.061  25.473  0.00  0.00    +0.115 C 
BRANCH  18  19
ATOM     19  C   UNL     1      -2.935   3.614  25.357  0.00  0.00    -0.005 A 
ATOM     20  C   UNL     1      -2.156   3.424  25.553  0.00  0.00    -0.003 A 
ATOM     21  C   UNL     1      -1.555   3.978  25.438  0.00  0.00    +0.006 A 
ATOM     22  C   UNL     1      -1.733   4.721  25.126  0.00  0.00    +0.080 A 
ATOM     23  C   UNL     1      -2.512   4.910  24.930  0.00  0.00    +0.006 A 
ATOM     24  C   UNL     1      -3.113   4.357  25.046  0.00  0.00    -0.003 A 
BRANCH  22  25
ATOM     25  C   UNL     1      -1.132   5.274  25.011  0.00  0.00    +0.388 C 
ATOM     26  O   UNL     1      -0.357   5.021  24.882  0.00  0.00    -0.241 OA
ATOM     27  O   UNL     1      -1.306   6.080  25.025  0.00  0.00    -0.241 OA
ENDBRANCH  22  25
ENDBRANCH  18  19
ENDBRANCH  17  18
ENDBRANCH  16  17
TORSDOF 7
ENDMDL
MODEL 5
REMARK VINA RESULT:      -9.3      3.492      6.126
REMARK  Name = 
REMARK  7 active torsions:
REMARK  status: ('A' for Active; 'I' for Inactive)
REMARK    1  A    between atoms: C_3  and  C_4
REMARK    2  A    between atoms: C_4  and  N_5
REMARK    3  A    between atoms: C_6  and  C_8
REMARK    4  A    between atoms: C_16  and  N_17
REMARK    5  A    between atoms: N_17  and  C_18
REMARK    6  A    between atoms: C_18  and  C_19
REMARK    7  A    between atoms: C_22  and  C_25
REMARK                            x       y       z     vdW  Elec       q    Type
REMARK                         _______ _______ _______ _____ _____    ______ ____
ROOT
ATOM      1  O   UNL     1       0.522   1.518  24.207  0.00  0.00    -0.219 OA
ATOM      2  C   UNL     1       0.406   0.807  23.805  0.00  0.00    +0.199 C 
ATOM      3  C   UNL     1      -0.293   0.368  23.788  0.00  0.00    +0.169 C 
ATOM     14  O   UNL     1      -0.163  -0.300  23.323  0.00  0.00    -0.350 OA
ATOM     15  C   UNL     1       0.616  -0.274  23.052  0.00  0.00    +0.162 C 
ATOM     16  C   UNL     1       0.968   0.409  23.350  0.00  0.00    +0.135 C 
ENDROOT
BRANCH   3   4
ATOM      4  C   UNL     1      -0.998   0.564  24.170  0.00  0.00    +0.148 C 
BRANCH   4   5
ATOM      5  N   UNL     1      -1.606   0.009  24.224  0.00  0.00    -0.199 NA
ATOM      6  C   UNL     1      -2.315   0.209  24.596  0.00  0.00    +0.265 C 
ATOM      7  O   UNL     1      -2.415   0.963  24.914  0.00  0.00    -0.268 OA
BRANCH   6   8
ATOM      8  C   UNL     1      -2.923  -0.346  24.650  0.00  0.00    +0.055 A 
ATOM      9  C   UNL     1      -3.534  -0.343  24.096  0.00  0.00    +0.005 A 
ATOM     10  C   UNL     1      -4.143  -0.898  24.149  0.00  0.00    +0.000 A 
ATOM     11  C   UNL     1      -4.139  -1.456  24.757  0.00  0.00    +0.000 A 
ATOM     12  C   UNL     1      -3.527  -1.459  25.311  0.00  0.00    +0.000 A 
ATOM     13  C   UNL     1      -2.919  -0.904  25.257  0.00  0.00    +0.005 A 
ENDBRANCH   6   8
ENDBRANCH   4   5
ENDBRANCH   3   4
BRANCH  16  17
ATOM     17  N   UNL     1       1.744   0.653  23.217  0.00  0.00    -0.209 NA
BRANCH  17  18
ATOM     18  C   UNL     1       2.255   0.179  22.776  0.00  0.00    +0.115 C 
BRANCH  18  19
ATOM     19  C   UNL     1       3.066   0.195  22.927  0.00  0.00    -0.005 A 
ATOM     20  C   UNL     1       3.438  -0.464  23.257  0.00  0.00    -0.003 A 
ATOM     21  C   UNL     1       4.249  -0.447  23.408  0.00  0.00    +0.006 A 
ATOM     22  C   UNL     1       4.688   0.228  23.229  0.00  0.00    +0.080 A 
ATOM     23  C   UNL     1       4.316   0.887  22.899  0.00  0.00    +0.006 A 
ATOM     24  C   UNL     1       3.505   0.870  22.748  0.00  0.00    -0.003 A 
BRANCH  22  25
ATOM     25  C   UNL     1       5.499   0.245  23.380  0.00  0.00    +0.388 C 
ATOM     26  O   UNL     1       5.796   0.713  23.990  0.00  0.00    -0.241 OA
ATOM     27  O   UNL     1       6.013  -0.208  22.920  0.00  0.00    -0.241 OA
ENDBRANCH  22  25
ENDBRANCH  18  19
ENDBRANCH  17  18
ENDBRANCH  16  17
TORSDOF 7
ENDMDL
MODEL 6
REMARK VINA RESULT:      -9.1      3.316      4.590
REMARK  Name = 
REMARK  7 active torsions:
REMARK  status: ('A' for Active; 'I' for Inactive)
REMARK    1  A    between atoms: C_3  and  C_4
REMARK    2  A    between atoms: C_4  and  N_5
REMARK    3  A    between atoms: C_6  and  C_8
REMARK    4  A    between atoms: C_16  and  N_17
REMARK    5  A    between atoms: N_17  and  C_18
REMARK    6  A    between atoms: C_18  and  C_19
REMARK    7  A    between atoms: C_22  and  C_25
REMARK                            x       y       z     vdW  Elec       q    Type
REMARK                         _______ _______ _______ _____ _____    ______ ____
ROOT
ATOM      1  O   UNL     1      -0.525   1.116  22.864  0.00  0.00    -0.219 OA
ATOM      2  C   UNL     1      -0.357   0.555  23.444  0.00  0.00    +0.199 C 
ATOM      3  C   UNL     1       0.292   0.046  23.454  0.00  0.00    +0.169 C 
ATOM     14  O   UNL     1       0.241  -0.419  24.132  0.00  0.00    -0.350 OA
ATOM     15  C   UNL     1      -0.440  -0.199  24.542  0.00  0.00    +0.162 C 
ATOM     16  C   UNL     1      -0.810   0.403  24.117  0.00  0.00    +0.135 C 
ENDROOT
BRANCH   3   4
ATOM      4  C   UNL     1       0.888   0.011  22.884  0.00  0.00    +0.148 C 
BRANCH   4   5
ATOM      5  N   UNL     1       1.675   0.133  23.102  0.00  0.00    -0.199 NA
ATOM      6  C   UNL     1       2.275   0.059  22.540  0.00  0.00    +0.265 C 
ATOM      7  O   UNL     1       2.088  -0.136  21.761  0.00  0.00    -0.268 OA
BRANCH   6   8
ATOM      8  C   UNL     1       3.061   0.181  22.758  0.00  0.00    +0.055 A 
ATOM      9  C   UNL     1       3.497  -0.435  23.088  0.00  0.00    +0.005 A 
ATOM     10  C   UNL     1       4.284  -0.314  23.306  0.00  0.00    +0.000 A 
ATOM     11  C   UNL     1       4.633   0.425  23.193  0.00  0.00    +0.000 A 
ATOM     12  C   UNL     1       4.196   1.042  22.863  0.00  0.00    +0.000 A 
ATOM     13  C   UNL     1       3.410   0.920  22.645  0.00  0.00    +0.005 A 
ENDBRANCH   6   8
ENDBRANCH   4   5
ENDBRANCH   3   4
BRANCH  16  17
ATOM     17  N   UNL     1      -1.510   0.786  24.327  0.00  0.00    -0.209 NA
BRANCH  17  18
ATOM     18  C   UNL     1      -2.105   0.370  24.719  0.00  0.00    +0.115 C 
BRANCH  18  19
ATOM     19  C   UNL     1      -2.858   0.700  24.792  0.00  0.00    -0.005 A 
ATOM     20  C   UNL     1      -3.526   0.218  24.742  0.00  0.00    -0.003 A 
ATOM     21  C   UNL     1      -4.279   0.548  24.816  0.00  0.00    +0.006 A 
ATOM     22  C   UNL     1      -4.364   1.359  24.939  0.00  0.00    +0.080 A 
ATOM     23  C   UNL     1      -3.696   1.841  24.989  0.00  0.00    +0.006 A 
ATOM     24  C   UNL     1      -2.943   1.511  24.915  0.00  0.00    -0.003 A 
BRANCH  22  25
ATOM     25  C   UNL     1      -5.117   1.689  25.012  0.00  0.00    +0.388 C 
ATOM     26  O   UNL     1      -5.588   1.500  25.662  0.00  0.00    -0.241 OA
ATOM     27  O   UNL     1      -5.397   2.208  24.435  0.00  0.00    -0.241 OA
ENDBRANCH  22  25
ENDBRANCH  18  19
ENDBRANCH  17  18
ENDBRANCH  16  17
TORSDOF 7
ENDMDL
MODEL 7
REMARK VINA RESULT:      -9.1      3.507      4.740
REMARK  Name = 
REMARK  7 active torsions:
REMARK  status: ('A' for Active; 'I' for Inactive)
REMARK    1  A    between atoms: C_3  and  C_4
REMARK    2  A    between atoms: C_4  and  N_5
REMARK    3  A    between atoms: C_6  and  C_8
REMARK    4  A    between atoms: C_16  and  N_17
REMARK    5  A    between atoms: N_17  and  C_18
REMARK    6  A    between atoms: C_18  and  C_19
REMARK    7  A    between atoms: C_22  and  C_25
REMARK                            x       y       z     vdW  Elec       q    Type
REMARK                         _______ _______ _______ _____ _____    ______ ____
ROOT
ATOM      1  O   UNL     1       0.469  -0.583  22.819  0.00  0.00    -0.219 OA
ATOM      2  C   UNL     1       0.620   0.121  23.221  0.00  0.00    +0.199 C 
ATOM      3  C   UNL     1       1.322   0.553  23.196  0.00  0.00    +0.169 C 
ATOM     14  O   UNL     1       1.230   1.216  23.678  0.00  0.00    -0.350 OA
ATOM     15  C   UNL     1       0.472   1.194  24.001  0.00  0.00    +0.162 C 
ATOM     16  C   UNL     1       0.094   0.517  23.719  0.00  0.00    +0.135 C 
ENDROOT
BRANCH   3   4
ATOM      4  C   UNL     1       1.997   0.357  22.764  0.00  0.00    +0.148 C 
BRANCH   4   5
ATOM      5  N   UNL     1       2.715   0.240  23.153  0.00  0.00    -0.199 NA
ATOM      6  C   UNL     1       3.420   0.231  22.723  0.00  0.00    +0.265 C 
ATOM      7  O   UNL     1       3.405   0.339  21.905  0.00  0.00    -0.268 OA
BRANCH   6   8
ATOM      8  C   UNL     1       4.139   0.115  23.111  0.00  0.00    +0.055 A 
ATOM      9  C   UNL     1       4.313  -0.619  23.443  0.00  0.00    +0.005 A 
ATOM     10  C   UNL     1       5.032  -0.736  23.832  0.00  0.00    +0.000 A 
ATOM     11  C   UNL     1       5.575  -0.118  23.888  0.00  0.00    +0.000 A 
ATOM     12  C   UNL     1       5.401   0.617  23.555  0.00  0.00    +0.000 A 
ATOM     13  C   UNL     1       4.682   0.733  23.167  0.00  0.00    +0.005 A 
ENDBRANCH   6   8
ENDBRANCH   4   5
ENDBRANCH   3   4
BRANCH  16  17
ATOM     17  N   UNL     1      -0.674   0.279  23.902  0.00  0.00    -0.209 NA
BRANCH  17  18
ATOM     18  C   UNL     1      -1.169   0.777  24.334  0.00  0.00    +0.115 C 
BRANCH  18  19
ATOM     19  C   UNL     1      -1.961   0.577  24.445  0.00  0.00    -0.005 A 
ATOM     20  C   UNL     1      -2.545   0.928  23.979  0.00  0.00    -0.003 A 
ATOM     21  C   UNL     1      -3.338   0.727  24.090  0.00  0.00    +0.006 A 
ATOM     22  C   UNL     1      -3.546   0.176  24.668  0.00  0.00    +0.080 A 
ATOM     23  C   UNL     1      -2.963  -0.175  25.134  0.00  0.00    +0.006 A 
ATOM     24  C   UNL     1      -2.170   0.026  25.023  0.00  0.00    -0.003 A 
BRANCH  22  25
ATOM     25  C   UNL     1      -4.339  -0.025  24.779  0.00  0.00    +0.388 C 
ATOM     26  O   UNL     1      -4.824   0.452  25.246  0.00  0.00    -0.241 OA
ATOM     27  O   UNL     1      -4.647  -0.702  24.422  0.00  0.00    -0.241 OA
ENDBRANCH  22  25
ENDBRANCH  18  19
ENDBRANCH  17  18
ENDBRANCH  16  17
TORSDOF 7
ENDMDL
MODEL 8
REMARK VINA RESULT:      -8.8      3.234      4.829
REMARK  Name = 
REMARK  7 active torsions:
REMARK  status: ('A' for Active; 'I' for Inactive)
REMARK    1  A    between atoms: C_3  and  C_4
REMARK    2  A    between atoms: C_4  and  N_5
REMARK    3  A    between atoms: C_6  and  C_8
REMARK    4  A    between atoms: C_16  and  N_17
REMARK    5  A    between atoms: N_17  and  C_18
REMARK    6  A    between atoms: C_18  and  C_19
REMARK    7  A    between atoms: C_22  and  C_25
REMARK                            x       y       z     vdW  Elec       q    Type
REMARK                         _______ _______ _______ _____ _____    ______ ____
ROOT
ATOM      1  O   UNL     1      -1.834   1.959  22.666  0.00  0.00    -0.219 OA
ATOM      2  C   UNL     1      -1.792   1.693  23.446  0.00  0.00    +0.199 C 
ATOM      3  C   UNL     1      -2.351   1.831  24.036  0.00  0.00    +0.169 C 
ATOM     14  O   UNL     1      -2.088   1.465  24.727  0.00  0.00    -0.350 OA
ATOM     15  C   UNL     1      -1.366   1.102  24.564  0.00  0.00    +0.162 C 
ATOM     16  C   UNL     1      -1.182   1.242  23.773  0.00  0.00    +0.135 C 
ENDROOT
BRANCH   3   4
ATOM      4  C   UNL     1      -3.051   2.259  23.951  0.00  0.00    +0.148 C 
BRANCH   4   5
ATOM      5  N   UNL     1      -3.684   2.122  24.462  0.00  0.00    -0.199 NA
ATOM      6  C   UNL     1      -4.366   2.583  24.407  0.00  0.00    +0.265 C 
ATOM      7  O   UNL     1      -4.415   3.182  23.841  0.00  0.00    -0.268 OA
BRANCH   6   8
ATOM      8  C   UNL     1      -4.999   2.446  24.918  0.00  0.00    +0.055 A 
ATOM      9  C   UNL     1      -5.095   2.915  25.590  0.00  0.00    +0.005 A 
ATOM     10  C   UNL     1      -5.728   2.778  26.102  0.00  0.00    +0.000 A 
ATOM     11  C   UNL     1      -6.265   2.172  25.941  0.00  0.00    +0.000 A 
ATOM     12  C   UNL     1      -6.168   1.703  25.268  0.00  0.00    +0.000 A 
ATOM     13  C   UNL     1      -5.535   1.840  24.757  0.00  0.00    +0.005 A 
ENDBRANCH   6   8
ENDBRANCH   4   5
ENDBRANCH   3   4
BRANCH  16  17
ATOM     17  N   UNL     1      -0.509   0.978  23.377  0.00  0.00    -0.209 NA
BRANCH  17  18
ATOM     18  C   UNL     1       0.089   0.591  23.793  0.00  0.00    +0.115 C 
BRANCH  18  19
ATOM     19  C   UNL     1       0.831   0.485  23.447  0.00  0.00    -0.005 A 
ATOM     20  C   UNL     1       0.962  -0.153  22.939  0.00  0.00    -0.003 A 
ATOM     21  C   UNL     1       1.703  -0.259  22.593  0.00  0.00    +0.006 A 
ATOM     22  C   UNL     1       2.313   0.273  22.755  0.00  0.00    +0.080 A 
ATOM     23  C   UNL     1       2.182   0.910  23.262  0.00  0.00    +0.006 A 
ATOM     24  C   UNL     1       1.441   1.016  23.608  0.00  0.00    -0.003 A 
BRANCH  22  25
ATOM     25  C   UNL     1       3.055   0.166  22.408  0.00  0.00    +0.388 C 
ATOM     26  O   UNL     1       3.703  -0.037  22.876  0.00  0.00    -0.241 OA
ATOM     27  O   UNL     1       3.147   0.263  21.594  0.00  0.00    -0.241 OA
ENDBRANCH  22  25
ENDBRANCH  18  19
ENDBRANCH  17  18
ENDBRANCH  16  17
TORSDOF 7
ENDMDL
MODEL 9
REMARK VINA RESULT:      -6.4     16.617     18.048
REMARK  Name = 
REMARK  7 active torsions:
REMARK  status: ('A' for Active; 'I' for Inactive)
REMARK    1  A    between atoms: C_3  and  C_4
REMARK    2  A    between atoms: C_4  and  N_5
REMARK    3  A    between atoms: C_6  and  C_8
REMARK    4  A    between atoms: C_16  and  N_17
REMARK    5  A    between atoms: N_17  and  C_18
REMARK    6  A    between atoms: C_18  and  C_19
REMARK    7  A    between atoms: C_22  and  C_25
REMARK                            x       y       z     vdW  Elec       q    Type
REMARK                         _______ _______ _______ _____ _____    ______ ____
ROOT
ATOM      1  O   UNL     1      13.002   6.880  19.794  0.00  0.00    -0.219 OA
ATOM      2  C   UNL     1      12.764   7.554  20.206  0.00  0.00    +0.199 C 
ATOM      3  C   UNL     1      13.061   7.808  20.932  0.00  0.00    +0.169 C 
ATOM     14  O   UNL     1      12.669   8.503  21.139  0.00  0.00    -0.350 OA
ATOM     15  C   UNL     1      12.129   8.679  20.541  0.00  0.00    +0.162 C 
ATOM     16  C   UNL     1      12.187   8.093  19.964  0.00  0.00    +0.135 C 
ENDROOT
BRANCH   3   4
ATOM      4  C   UNL     1      13.649   7.433  21.374  0.00  0.00    +0.148 C 
BRANCH   4   5
ATOM      5  N   UNL     1      14.434   7.459  21.123  0.00  0.00    -0.199 NA
ATOM      6  C   UNL     1      15.044   7.303  21.657  0.00  0.00    +0.265 C 
ATOM      7  O   UNL     1      14.867   7.120  22.442  0.00  0.00    -0.268 OA
BRANCH   6   8
ATOM      8  C   UNL     1      15.829   7.329  21.406  0.00  0.00    +0.055 A 
ATOM      9  C   UNL     1      16.213   6.635  21.181  0.00  0.00    +0.005 A 
ATOM     10  C   UNL     1      16.999   6.660  20.929  0.00  0.00    +0.000 A 
ATOM     11  C   UNL     1      17.400   7.381  20.904  0.00  0.00    +0.000 A 
ATOM     12  C   UNL     1      17.015   8.076  21.129  0.00  0.00    +0.000 A 
ATOM     13  C   UNL     1      16.230   8.050  21.380  0.00  0.00    +0.005 A 
ENDBRANCH   6   8
ENDBRANCH   4   5
ENDBRANCH   3   4
BRANCH  16  17
ATOM     17  N   UNL     1      11.747   8.052  19.268  0.00  0.00    -0.209 NA
BRANCH  17  18
ATOM     18  C   UNL     1      11.447   8.741  18.929  0.00  0.00    +0.115 C 
BRANCH  18  19
ATOM     19  C   UNL     1      11.374   8.800  18.109  0.00  0.00    -0.005 A 
ATOM     20  C   UNL     1      12.020   9.033  17.654  0.00  0.00    -0.003 A 
ATOM     21  C   UNL     1      11.948   9.092  16.833  0.00  0.00    +0.006 A 
ATOM     22  C   UNL     1      11.228   8.917  16.470  0.00  0.00    +0.080 A 
ATOM     23  C   UNL     1      10.581   8.684  16.926  0.00  0.00    +0.006 A 
ATOM     24  C   UNL     1      10.654   8.625  17.746  0.00  0.00    -0.003 A 
BRANCH  22  25
ATOM     25  C   UNL     1      11.155   8.976  15.650  0.00  0.00    +0.388 C 
ATOM     26  O   UNL     1      10.412   9.088  15.309  0.00  0.00    -0.241 OA
ATOM     27  O   UNL     1      11.825   8.923  15.172  0.00  0.00    -0.241 OA
ENDBRANCH  22  25
ENDBRANCH  18  19
ENDBRANCH  17  18
ENDBRANCH  16  17
TORSDOF 7
ENDMDL
MODEL 10
REMARK VINA RESULT:      -5.8     15.350     17.872
REMARK  Name = 
REMARK  7 active torsions:
REMARK  status: ('A' for Active; 'I' for Inactive)
REMARK    1  A    between atoms: C_3  and  C_4
REMARK    2  A    between atoms: C_4  and  N_5
REMARK    3  A    between atoms: C_6  and  C_8
REMARK    4  A    between atoms: C_16  and  N_17
REMARK    5  A    between atoms: N_17  and  C_18
REMARK    6  A    between atoms: C_18  and  C_19
REMARK    7  A    between atoms: C_22  and  C_25
REMARK                            x       y       z     vdW  Elec       q    Type
REMARK                         _______ _______ _______ _____ _____    ______ ____
ROOT
ATOM      1  O   UNL     1      12.951   6.582  19.050  0.00  0.00    -0.219 OA
ATOM      2  C   UNL     1      13.061   7.324  18.707  0.00  0.00    +0.199 C 
ATOM      3  C   UNL     1      13.717   7.563  18.268  0.00  0.00    +0.169 C 
ATOM     14  O   UNL     1      13.596   8.344  18.033  0.00  0.00    -0.350 OA
ATOM     15  C   UNL     1      12.865   8.588  18.328  0.00  0.00    +0.162 C 
ATOM     16  C   UNL     1      12.534   7.958  18.744  0.00  0.00    +0.135 C 
ENDROOT
BRANCH   3   4
ATOM      4  C   UNL     1      14.379   7.101  18.093  0.00  0.00    +0.148 C 
BRANCH   4   5
ATOM      5  N   UNL     1      14.956   6.974  18.669  0.00  0.00    -0.199 NA
ATOM      6  C   UNL     1      15.672   6.619  18.463  0.00  0.00    +0.265 C 
ATOM      7  O   UNL     1      15.810   6.392  17.682  0.00  0.00    -0.268 OA
BRANCH   6   8
ATOM      8  C   UNL     1      16.250   6.492  19.038  0.00  0.00    +0.055 A 
ATOM      9  C   UNL     1      16.295   6.990  19.694  0.00  0.00    +0.005 A 
ATOM     10  C   UNL     1      16.873   6.863  20.270  0.00  0.00    +0.000 A 
ATOM     11  C   UNL     1      17.405   6.238  20.188  0.00  0.00    +0.000 A 
ATOM     12  C   UNL     1      17.360   5.740  19.532  0.00  0.00    +0.000 A 
ATOM     13  C   UNL     1      16.782   5.867  18.956  0.00  0.00    +0.005 A 
ENDBRANCH   6   8
ENDBRANCH   4   5
ENDBRANCH   3   4
BRANCH  16  17
ATOM     17  N   UNL     1      11.806   7.961  19.130  0.00  0.00    -0.209 NA
BRANCH  17  18
ATOM     18  C   UNL     1      11.544   8.644  19.512  0.00  0.00    +0.115 C 
BRANCH  18  19
ATOM     19  C   UNL     1      11.268   8.602  20.289  0.00  0.00    -0.005 A 
ATOM     20  C   UNL     1      11.589   9.094  20.868  0.00  0.00    -0.003 A 
ATOM     21  C   UNL     1      11.313   9.051  21.645  0.00  0.00    +0.006 A 
ATOM     22  C   UNL     1      10.716   8.517  21.841  0.00  0.00    +0.080 A 
ATOM     23  C   UNL     1      10.395   8.025  21.262  0.00  0.00    +0.006 A 
ATOM     24  C   UNL     1      10.671   8.068  20.486  0.00  0.00    -0.003 A 
BRANCH  22  25
ATOM     25  C   UNL     1      10.440   8.475  22.618  0.00  0.00    +0.388 C 
ATOM     26  O   UNL     1       9.888   7.900  22.829  0.00  0.00    -0.241 OA
ATOM     27  O   UNL     1      10.717   9.009  23.183  0.00  0.00    -0.241 OA
ENDBRANCH  22  25
ENDBRANCH  18  19
ENDBRANCH  17  18
ENDBRANCH  16  17
TORSDOF 7
ENDMDL
