MODEL 1
REMARK VINA RESULT:     -11.8      0.000      0.000
REMARK  Name = 
REMARK  2 active torsions:
REMARK  status: ('A' for Active; 'I' for Inactive)
REMARK    1  A    between atoms: C_5  and  N_8
REMARK    2  A    between atoms: C_11  and  C_13
REMARK                            x       y       z     vdW  Elec       q    Type
REMARK                         _______ _______ _______ _____ _____    ______ ____
ROOT
ATOM      8  N   UNL     1      -3.463   2.249  24.895  0.00  0.00    -0.273 NA
ATOM      9  C   UNL     1      -4.282   2.242  24.794  0.00  0.00    +0.073 C 
ATOM     10  C   UNL     1      -4.522   1.456  24.715  0.00  0.00    +0.026 C 
ATOM     11  C   UNL     1      -3.852   0.978  24.767  0.00  0.00    +0.076 C 
ATOM     12  C   UNL     1      -3.197   1.467  24.878  0.00  0.00    +0.080 C 
ENDROOT
BRANCH  11  13
ATOM     13  C   UNL     1      -3.839   0.154  24.717  0.00  0.00    +0.140 A 
ATOM     14  N   UNL     1      -3.538  -0.362  25.286  0.00  0.00    -0.229 NA
ATOM     15  C   UNL     1      -3.637  -1.132  25.010  0.00  0.00    +0.102 A 
ATOM     16  C   UNL     1      -4.000  -1.093  24.270  0.00  0.00    +0.100 A 
ATOM     17  N   UNL     1      -4.124  -0.298  24.089  0.00  0.00    -0.229 NA
ATOM     18  C   UNL     1      -4.170  -1.786  23.857  0.00  0.00    +0.023 A 
ATOM     19  C   UNL     1      -3.977  -2.519  24.183  0.00  0.00    +0.031 A 
ATOM     20  C   UNL     1      -3.615  -2.558  24.923  0.00  0.00    +0.142 A 
ATOM     21  F   UNL     1      -3.422  -3.290  25.250  0.00  0.00    -0.204 F 
ATOM     22  C   UNL     1      -3.445  -1.865  25.337  0.00  0.00    +0.050 A 
ENDBRANCH  11  13
BRANCH   8   5
ATOM      1  C   UNL     1      -1.579   4.929  25.294  0.00  0.00    +0.090 C 
ATOM      2  N   UNL     1      -2.050   4.258  25.194  0.00  0.00    -0.271 NA
ATOM      3  C   UNL     1      -2.680   4.117  25.707  0.00  0.00    +0.074 C 
ATOM      4  C   UNL     1      -3.151   3.447  25.607  0.00  0.00    +0.033 C 
ATOM      5  C   UNL     1      -2.992   2.918  24.994  0.00  0.00    +0.060 C 
ATOM      6  C   UNL     1      -2.361   3.060  24.481  0.00  0.00    +0.033 C 
ATOM      7  C   UNL     1      -1.890   3.730  24.581  0.00  0.00    +0.074 C 
ENDBRANCH   8   5
TORSDOF 2
ENDMDL
MODEL 2
REMARK VINA RESULT:     -11.6      2.093      5.182
REMARK  Name = 
REMARK  2 active torsions:
REMARK  status: ('A' for Active; 'I' for Inactive)
REMARK    1  A    between atoms: C_5  and  N_8
REMARK    2  A    between atoms: C_11  and  C_13
REMARK                            x       y       z     vdW  Elec       q    Type
REMARK                         _______ _______ _______ _____ _____    ______ ____
ROOT
ATOM      8  N   UNL     1      -3.729   0.503  24.794  0.00  0.00    -0.273 NA
ATOM      9  C   UNL     1      -4.395   0.987  24.849  0.00  0.00    +0.073 C 
ATOM     10  C   UNL     1      -4.138   1.768  24.915  0.00  0.00    +0.026 C 
ATOM     11  C   UNL     1      -3.313   1.767  24.901  0.00  0.00    +0.076 C 
ATOM     12  C   UNL     1      -3.060   0.986  24.826  0.00  0.00    +0.080 C 
ENDROOT
BRANCH  11  13
ATOM     13  C   UNL     1      -2.826   2.431  24.954  0.00  0.00    +0.140 A 
ATOM     14  N   UNL     1      -3.064   3.192  25.166  0.00  0.00    -0.229 NA
ATOM     15  C   UNL     1      -2.401   3.681  25.146  0.00  0.00    +0.102 A 
ATOM     16  C   UNL     1      -1.753   3.224  24.921  0.00  0.00    +0.100 A 
ATOM     17  N   UNL     1      -2.015   2.451  24.803  0.00  0.00    -0.229 NA
ATOM     18  C   UNL     1      -1.007   3.571  24.855  0.00  0.00    +0.023 A 
ATOM     19  C   UNL     1      -0.910   4.374  25.012  0.00  0.00    +0.031 A 
ATOM     20  C   UNL     1      -1.558   4.832  25.236  0.00  0.00    +0.142 A 
ATOM     21  F   UNL     1      -1.462   5.636  25.394  0.00  0.00    -0.204 F 
ATOM     22  C   UNL     1      -2.304   4.486  25.303  0.00  0.00    +0.050 A 
ENDBRANCH  11  13
BRANCH   8   5
ATOM      1  C   UNL     1      -3.737  -2.783  24.494  0.00  0.00    +0.090 C 
ATOM      2  N   UNL     1      -3.735  -1.961  24.569  0.00  0.00    -0.271 NA
ATOM      3  C   UNL     1      -3.947  -1.488  23.928  0.00  0.00    +0.074 C 
ATOM      4  C   UNL     1      -3.945  -0.667  24.003  0.00  0.00    +0.033 C 
ATOM      5  C   UNL     1      -3.731  -0.318  24.719  0.00  0.00    +0.060 C 
ATOM      6  C   UNL     1      -3.519  -0.792  25.361  0.00  0.00    +0.033 C 
ATOM      7  C   UNL     1      -3.521  -1.614  25.286  0.00  0.00    +0.074 C 
ENDBRANCH   8   5
TORSDOF 2
ENDMDL
MODEL 3
REMARK VINA RESULT:     -10.5      1.400      1.910
REMARK  Name = 
REMARK  2 active torsions:
REMARK  status: ('A' for Active; 'I' for Inactive)
REMARK    1  A    between atoms: C_5  and  N_8
REMARK    2  A    between atoms: C_11  and  C_13
REMARK                            x       y       z     vdW  Elec       q    Type
REMARK                         _______ _______ _______ _____ _____    ______ ____
ROOT
ATOM      8  N   UNL     1      -4.183   1.852  24.553  0.00  0.00    -0.273 NA
ATOM      9  C   UNL     1      -3.619   1.852  23.951  0.00  0.00    +0.073 C 
ATOM     10  C   UNL     1      -3.380   1.072  23.825  0.00  0.00    +0.026 C 
ATOM     11  C   UNL     1      -3.797   0.590  24.349  0.00  0.00    +0.076 C 
ATOM     12  C   UNL     1      -4.293   1.072  24.798  0.00  0.00    +0.080 C 
ENDROOT
BRANCH  11  13
ATOM     13  C   UNL     1      -3.730  -0.230  24.412  0.00  0.00    +0.140 A 
ATOM     14  N   UNL     1      -4.112  -0.786  23.938  0.00  0.00    -0.229 NA
ATOM     15  C   UNL     1      -3.887  -1.536  24.193  0.00  0.00    +0.102 A 
ATOM     16  C   UNL     1      -3.365  -1.445  24.825  0.00  0.00    +0.100 A 
ATOM     17  N   UNL     1      -3.267  -0.638  24.961  0.00  0.00    -0.229 NA
ATOM     18  C   UNL     1      -3.046  -2.110  25.195  0.00  0.00    +0.023 A 
ATOM     19  C   UNL     1      -3.248  -2.865  24.934  0.00  0.00    +0.031 A 
ATOM     20  C   UNL     1      -3.770  -2.957  24.302  0.00  0.00    +0.142 A 
ATOM     21  F   UNL     1      -3.973  -3.712  24.040  0.00  0.00    -0.204 F 
ATOM     22  C   UNL     1      -4.090  -2.293  23.931  0.00  0.00    +0.050 A 
ENDBRANCH  11  13
BRANCH   8   5
ATOM      1  C   UNL     1      -5.731   4.503  25.765  0.00  0.00    +0.090 C 
ATOM      2  N   UNL     1      -5.343   3.840  25.461  0.00  0.00    -0.271 NA
ATOM      3  C   UNL     1      -5.719   3.106  25.464  0.00  0.00    +0.074 C 
ATOM      4  C   UNL     1      -5.333   2.444  25.161  0.00  0.00    +0.033 C 
ATOM      5  C   UNL     1      -4.570   2.515  24.855  0.00  0.00    +0.060 C 
ATOM      6  C   UNL     1      -4.193   3.249  24.853  0.00  0.00    +0.033 C 
ATOM      7  C   UNL     1      -4.581   3.912  25.156  0.00  0.00    +0.074 C 
ENDBRANCH   8   5
TORSDOF 2
ENDMDL
MODEL 4
REMARK VINA RESULT:      -9.8      2.373      4.634
REMARK  Name = 
REMARK  2 active torsions:
REMARK  status: ('A' for Active; 'I' for Inactive)
REMARK    1  A    between atoms: C_5  and  N_8
REMARK    2  A    between atoms: C_11  and  C_13
REMARK                            x       y       z     vdW  Elec       q    Type
REMARK                         _______ _______ _______ _____ _____    ______ ____
ROOT
ATOM      8  N   UNL     1      -3.013  -0.611  24.679  0.00  0.00    -0.273 NA
ATOM      9  C   UNL     1      -3.643  -0.833  24.195  0.00  0.00    +0.073 C 
ATOM     10  C   UNL     1      -4.213  -0.238  24.229  0.00  0.00    +0.026 C 
ATOM     11  C   UNL     1      -3.936   0.353  24.734  0.00  0.00    +0.076 C 
ATOM     12  C   UNL     1      -3.194   0.122  25.012  0.00  0.00    +0.080 C 
ENDROOT
BRANCH  11  13
ATOM     13  C   UNL     1      -4.331   1.051  24.927  0.00  0.00    +0.140 A 
ATOM     14  N   UNL     1      -4.051   1.816  24.804  0.00  0.00    -0.229 NA
ATOM     15  C   UNL     1      -4.622   2.344  25.077  0.00  0.00    +0.102 A 
ATOM     16  C   UNL     1      -5.256   1.904  25.370  0.00  0.00    +0.100 A 
ATOM     17  N   UNL     1      -5.076   1.105  25.277  0.00  0.00    -0.229 NA
ATOM     18  C   UNL     1      -5.915   2.290  25.683  0.00  0.00    +0.023 A 
ATOM     19  C   UNL     1      -5.941   3.113  25.704  0.00  0.00    +0.031 A 
ATOM     20  C   UNL     1      -5.307   3.553  25.411  0.00  0.00    +0.142 A 
ATOM     21  F   UNL     1      -5.332   4.377  25.432  0.00  0.00    -0.204 F 
ATOM     22  C   UNL     1      -4.648   3.169  25.098  0.00  0.00    +0.050 A 
ENDBRANCH  11  13
BRANCH   8   5
ATOM      1  C   UNL     1      -0.253  -2.346  25.195  0.00  0.00    +0.090 C 
ATOM      2  N   UNL     1      -0.943  -1.912  25.066  0.00  0.00    -0.271 NA
ATOM      3  C   UNL     1      -1.620  -2.288  24.783  0.00  0.00    +0.074 C 
ATOM      4  C   UNL     1      -2.310  -1.854  24.654  0.00  0.00    +0.033 C 
ATOM      5  C   UNL     1      -2.323  -1.044  24.808  0.00  0.00    +0.060 C 
ATOM      6  C   UNL     1      -1.646  -0.668  25.092  0.00  0.00    +0.033 C 
ATOM      7  C   UNL     1      -0.955  -1.102  25.221  0.00  0.00    +0.074 C 
ENDBRANCH   8   5
TORSDOF 2
ENDMDL
MODEL 5
REMARK VINA RESULT:      -9.3      2.129      2.693
REMARK  Name = 
REMARK  2 active torsions:
REMARK  status: ('A' for Active; 'I' for Inactive)
REMARK    1  A    between atoms: C_5  and  N_8
REMARK    2  A    between atoms: C_11  and  C_13
REMARK                            x       y       z     vdW  Elec       q    Type
REMARK                         _______ _______ _______ _____ _____    ______ ____
ROOT
ATOM      8  N   UNL     1      -3.613   2.072  24.397  0.00  0.00    -0.273 NA
ATOM      9  C   UNL     1      -3.393   2.071  23.602  0.00  0.00    +0.073 C 
ATOM     10  C   UNL     1      -2.794   1.512  23.504  0.00  0.00    +0.026 C 
ATOM     11  C   UNL     1      -2.644   1.167  24.238  0.00  0.00    +0.076 C 
ATOM     12  C   UNL     1      -3.150   1.513  24.790  0.00  0.00    +0.080 C 
ENDROOT
BRANCH  11  13
ATOM     13  C   UNL     1      -2.086   0.579  24.393  0.00  0.00    +0.140 A 
ATOM     14  N   UNL     1      -2.128   0.018  24.996  0.00  0.00    -0.229 NA
ATOM     15  C   UNL     1      -1.456  -0.458  24.947  0.00  0.00    +0.102 A 
ATOM     16  C   UNL     1      -0.999  -0.191  24.315  0.00  0.00    +0.100 A 
ATOM     17  N   UNL     1      -1.388   0.450  23.972  0.00  0.00    -0.229 NA
ATOM     18  C   UNL     1      -0.287  -0.567  24.133  0.00  0.00    +0.023 A 
ATOM     19  C   UNL     1      -0.033  -1.209  24.583  0.00  0.00    +0.031 A 
ATOM     20  C   UNL     1      -0.490  -1.476  25.216  0.00  0.00    +0.142 A 
ATOM     21  F   UNL     1      -0.235  -2.118  25.666  0.00  0.00    -0.204 F 
ATOM     22  C   UNL     1      -1.201  -1.101  25.398  0.00  0.00    +0.050 A 
ENDBRANCH  11  13
BRANCH   8   5
ATOM      1  C   UNL     1      -5.936   3.974  25.767  0.00  0.00    +0.090 C 
ATOM      2  N   UNL     1      -5.355   3.499  25.424  0.00  0.00    -0.271 NA
ATOM      3  C   UNL     1      -5.527   2.718  25.223  0.00  0.00    +0.074 C 
ATOM      4  C   UNL     1      -4.947   2.242  24.881  0.00  0.00    +0.033 C 
ATOM      5  C   UNL     1      -4.193   2.547  24.740  0.00  0.00    +0.060 C 
ATOM      6  C   UNL     1      -4.021   3.329  24.941  0.00  0.00    +0.033 C 
ATOM      7  C   UNL     1      -4.602   3.805  25.284  0.00  0.00    +0.074 C 
ENDBRANCH   8   5
TORSDOF 2
ENDMDL
MODEL 6
REMARK VINA RESULT:      -9.1      2.943      4.391
REMARK  Name = 
REMARK  2 active torsions:
REMARK  status: ('A' for Active; 'I' for Inactive)
REMARK    1  A    between atoms: C_5  and  N_8
REMARK    2  A    between atoms: C_11  and  C_13
REMARK                            x       y       z     vdW  Elec       q    Type
REMARK                         _______ _______ _______ _____ _____    ______ ____
ROOT
ATOM      8  N   UNL     1      -1.014   1.636  24.662  0.00  0.00    -0.273 NA
ATOM      9  C   UNL     1      -0.824   2.168  25.263  0.00  0.00    +0.073 C 
ATOM     10  C   UNL     1      -1.522   2.530  25.514  0.00  0.00    +0.026 C 
ATOM     11  C   UNL     1      -2.144   2.221  25.067  0.00  0.00    +0.076 C 
ATOM     12  C   UNL     1      -1.830   1.669  24.541  0.00  0.00    +0.080 C 
ENDROOT
BRANCH  11  13
ATOM     13  C   UNL     1      -2.939   2.428  25.136  0.00  0.00    +0.140 A 
ATOM     14  N   UNL     1      -3.231   3.174  25.333  0.00  0.00    -0.229 NA
ATOM     15  C   UNL     1      -4.054   3.133  25.338  0.00  0.00    +0.102 A 
ATOM     16  C   UNL     1      -4.272   2.361  25.145  0.00  0.00    +0.100 A 
ATOM     17  N   UNL     1      -3.583   1.925  25.020  0.00  0.00    -0.229 NA
ATOM     18  C   UNL     1      -5.070   2.155  25.108  0.00  0.00    +0.023 A 
ATOM     19  C   UNL     1      -5.650   2.720  25.264  0.00  0.00    +0.031 A 
ATOM     20  C   UNL     1      -5.432   3.492  25.457  0.00  0.00    +0.142 A 
ATOM     21  F   UNL     1      -6.012   4.058  25.613  0.00  0.00    -0.204 F 
ATOM     22  C   UNL     1      -4.635   3.699  25.494  0.00  0.00    +0.050 A 
ENDBRANCH  11  13
BRANCH   8   5
ATOM      1  C   UNL     1       1.112  -0.286  23.025  0.00  0.00    +0.090 C 
ATOM      2  N   UNL     1       0.580   0.195  23.435  0.00  0.00    -0.271 NA
ATOM      3  C   UNL     1       0.725   1.003  23.504  0.00  0.00    +0.074 C 
ATOM      4  C   UNL     1       0.193   1.484  23.913  0.00  0.00    +0.033 C 
ATOM      5  C   UNL     1      -0.483   1.155  24.253  0.00  0.00    +0.060 C 
ATOM      6  C   UNL     1      -0.628   0.346  24.183  0.00  0.00    +0.033 C 
ATOM      7  C   UNL     1      -0.096  -0.135  23.773  0.00  0.00    +0.074 C 
ENDBRANCH   8   5
TORSDOF 2
ENDMDL
MODEL 7
REMARK VINA RESULT:      -7.9     17.017     19.367
REMARK  Name = 
REMARK  2 active torsions:
REMARK  status: ('A' for Active; 'I' for Inactive)
REMARK    1  A    between atoms: C_5  and  N_8
REMARK    2  A    between atoms: C_11  and  C_13
REMARK                            x       y       z     vdW  Elec       q    Type
REMARK                         _______ _______ _______ _____ _____    ______ ____
ROOT
ATOM      8  N   UNL     1      13.124   7.741  21.339  0.00  0.00    -0.273 NA
ATOM      9  C   UNL     1      13.542   8.447  21.424  0.00  0.00    +0.073 C 
ATOM     10  C   UNL     1      14.305   8.329  21.134  0.00  0.00    +0.026 C 
ATOM     11  C   UNL     1      14.358   7.549  20.869  0.00  0.00    +0.076 C 
ATOM     12  C   UNL     1      13.629   7.186  20.996  0.00  0.00    +0.080 C 
ENDROOT
BRANCH  11  13
ATOM     13  C   UNL     1      15.025   7.194  20.536  0.00  0.00    +0.140 A 
ATOM     14  N   UNL     1      15.092   6.919  19.761  0.00  0.00    -0.229 NA
ATOM     15  C   UNL     1      15.849   6.608  19.666  0.00  0.00    +0.102 A 
ATOM     16  C   UNL     1      16.251   6.691  20.382  0.00  0.00    +0.100 A 
ATOM     17  N   UNL     1      15.742   7.053  20.920  0.00  0.00    -0.229 NA
ATOM     18  C   UNL     1      17.029   6.425  20.451  0.00  0.00    +0.023 A 
ATOM     19  C   UNL     1      17.405   6.077  19.805  0.00  0.00    +0.031 A 
ATOM     20  C   UNL     1      17.004   5.994  19.089  0.00  0.00    +0.142 A 
ATOM     21  F   UNL     1      17.379   5.647  18.443  0.00  0.00    -0.204 F 
ATOM     22  C   UNL     1      16.226   6.260  19.019  0.00  0.00    +0.050 A 
ENDBRANCH  11  13
BRANCH   8   5
ATOM      1  C   UNL     1       9.984   7.227  22.218  0.00  0.00    +0.090 C 
ATOM      2  N   UNL     1      10.769   7.355  21.998  0.00  0.00    -0.271 NA
ATOM      3  C   UNL     1      11.132   8.076  22.168  0.00  0.00    +0.074 C 
ATOM      4  C   UNL     1      11.917   8.205  21.949  0.00  0.00    +0.033 C 
ATOM      5  C   UNL     1      12.339   7.612  21.559  0.00  0.00    +0.060 C 
ATOM      6  C   UNL     1      11.976   6.891  21.389  0.00  0.00    +0.033 C 
ATOM      7  C   UNL     1      11.190   6.763  21.609  0.00  0.00    +0.074 C 
ENDBRANCH   8   5
TORSDOF 2
ENDMDL
