MODEL 1
REMARK VINA RESULT:     -19.0      0.000      0.000
REMARK  Name = 
REMARK  2 active torsions:
REMARK  status: ('A' for Active; 'I' for Inactive)
REMARK    1  A    between atoms: C_2  and  C_3
REMARK    2  A    between atoms: C_18  and  C_19
REMARK                            x       y       z     vdW  Elec       q    Type
REMARK                         _______ _______ _______ _____ _____    ______ ____
ROOT
ATOM      1  O   UNL     1      -2.103   1.852  23.117  0.00  0.00    -0.275 OA
ATOM      2  C   UNL     1      -2.801   1.731  23.662  0.00  0.00    +0.225 C 
ATOM      9  N   UNL     1      -3.203   2.458  23.918  0.00  0.00    -0.279 N 
ATOM     10  C   UNL     1      -3.257   3.291  23.900  0.00  0.00    +0.095 C 
ATOM     11  C   UNL     1      -4.038   3.420  24.491  0.00  0.00    +0.043 C 
ATOM     12  C   UNL     1      -4.657   3.690  24.947  0.00  0.00    +0.011 C 
ATOM     13  C   UNL     1      -4.372   3.073  24.773  0.00  0.00    +0.058 C 
ATOM     14  C   UNL     1      -3.616   2.965  24.199  0.00  0.00    +0.099 C 
ATOM     15  C   UNL     1      -4.469   2.170  24.912  0.00  0.00    +0.041 A 
ATOM     16  C   UNL     1      -4.946   1.632  25.316  0.00  0.00    +0.013 A 
ATOM     17  C   UNL     1      -4.795   0.823  25.258  0.00  0.00    +0.006 A 
ATOM     18  C   UNL     1      -4.168   0.552  24.795  0.00  0.00    +0.062 A 
ATOM     28  C   UNL     1      -3.691   1.090  24.391  0.00  0.00    +0.261 A 
ATOM     29  O   UNL     1      -2.904   0.855  23.804  0.00  0.00    -0.267 OA
ATOM     30  N   UNL     1      -3.842   1.899  24.449  0.00  0.00    -0.299 N 
ATOM     31  C   UNL     1      -4.132   2.474  24.631  0.00  0.00    +0.110 C 
ENDROOT
BRANCH  18  19
ATOM     19  C   UNL     1      -4.018  -0.257  24.738  0.00  0.00    +0.034 A 
ATOM     20  C   UNL     1      -4.231  -0.747  24.110  0.00  0.00    +0.007 A 
ATOM     21  C   UNL     1      -3.973  -1.511  24.282  0.00  0.00    +0.006 A 
ATOM     22  C   UNL     1      -3.599  -1.493  25.018  0.00  0.00    +0.029 A 
ATOM     23  S   UNL     1      -3.627  -0.719  25.299  0.00  0.00    -0.087 S 
ATOM     24  C   UNL     1      -3.282  -2.186  25.336  0.00  0.00    +0.006 A 
ATOM     25  C   UNL     1      -3.339  -2.895  24.920  0.00  0.00    +0.001 A 
ATOM     26  C   UNL     1      -3.712  -2.913  24.184  0.00  0.00    +0.000 A 
ATOM     27  C   UNL     1      -4.029  -2.221  23.866  0.00  0.00    +0.001 A 
ENDBRANCH  18  19
BRANCH   2   3
ATOM      3  C   UNL     1      -3.286   1.040  24.083  0.00  0.00    +0.077 C 
ATOM      4  C   UNL     1      -2.930   0.755  24.770  0.00  0.00    +0.009 C 
ATOM      5  C   UNL     1      -3.213   0.232  25.167  0.00  0.00    +0.000 C 
ATOM      6  C   UNL     1      -4.233  -0.417  25.041  0.00  0.00    +0.000 C 
ATOM      7  C   UNL     1      -4.437   0.033  24.287  0.00  0.00    +0.000 C 
ATOM      8  C   UNL     1      -4.000   0.721  23.825  0.00  0.00    +0.009 C 
ENDBRANCH   2   3
TORSDOF 2
ENDMDL
MODEL 2
REMARK VINA RESULT:     -18.2      1.247      3.869
REMARK  Name = 
REMARK  2 active torsions:
REMARK  status: ('A' for Active; 'I' for Inactive)
REMARK    1  A    between atoms: C_2  and  C_3
REMARK    2  A    between atoms: C_18  and  C_19
REMARK                            x       y       z     vdW  Elec       q    Type
REMARK                         _______ _______ _______ _____ _____    ______ ____
ROOT
ATOM      1  O   UNL     1      -1.338  -0.530  25.701  0.00  0.00    -0.275 OA
ATOM      2  C   UNL     1      -2.127  -0.630  25.293  0.00  0.00    +0.225 C 
ATOM      9  N   UNL     1      -2.337  -1.447  25.086  0.00  0.00    -0.279 N 
ATOM     10  C   UNL     1      -2.140  -2.259  25.083  0.00  0.00    +0.095 C 
ATOM     11  C   UNL     1      -2.943  -2.622  24.635  0.00  0.00    +0.043 C 
ATOM     12  C   UNL     1      -3.527  -3.071  24.287  0.00  0.00    +0.011 C 
ATOM     13  C   UNL     1      -3.409  -2.394  24.430  0.00  0.00    +0.058 C 
ATOM     14  C   UNL     1      -2.627  -2.059  24.864  0.00  0.00    +0.099 C 
ATOM     15  C   UNL     1      -3.790  -1.562  24.344  0.00  0.00    +0.041 A 
ATOM     16  C   UNL     1      -4.468  -1.196  24.050  0.00  0.00    +0.013 A 
ATOM     17  C   UNL     1      -4.552  -0.377  24.110  0.00  0.00    +0.006 A 
ATOM     18  C   UNL     1      -3.959   0.074  24.464  0.00  0.00    +0.062 A 
ATOM     28  C   UNL     1      -3.281  -0.292  24.757  0.00  0.00    +0.261 A 
ATOM     29  O   UNL     1      -2.505   0.174  25.204  0.00  0.00    -0.267 OA
ATOM     30  N   UNL     1      -3.197  -1.111  24.697  0.00  0.00    -0.299 N 
ATOM     31  C   UNL     1      -3.333  -1.749  24.549  0.00  0.00    +0.110 C 
ENDROOT
BRANCH  18  19
ATOM     19  C   UNL     1      -4.045   0.892  24.523  0.00  0.00    +0.034 A 
ATOM     20  C   UNL     1      -3.773   1.450  23.979  0.00  0.00    +0.007 A 
ATOM     21  C   UNL     1      -3.977   2.199  24.257  0.00  0.00    +0.006 A 
ATOM     22  C   UNL     1      -4.376   2.104  24.974  0.00  0.00    +0.029 A 
ATOM     23  S   UNL     1      -4.417   1.298  25.138  0.00  0.00    -0.087 S 
ATOM     24  C   UNL     1      -4.650   2.767  25.384  0.00  0.00    +0.006 A 
ATOM     25  C   UNL     1      -4.525   3.522  25.078  0.00  0.00    +0.001 A 
ATOM     26  C   UNL     1      -4.126   3.616  24.362  0.00  0.00    +0.000 A 
ATOM     27  C   UNL     1      -3.853   2.955  23.952  0.00  0.00    +0.001 A 
ENDBRANCH  18  19
BRANCH   2   3
ATOM      3  C   UNL     1      -2.859  -0.120  24.990  0.00  0.00    +0.077 C 
ATOM      4  C   UNL     1      -2.735   0.241  24.259  0.00  0.00    +0.009 C 
ATOM      5  C   UNL     1      -3.226   0.650  23.938  0.00  0.00    +0.000 C 
ATOM      6  C   UNL     1      -4.349   0.976  24.269  0.00  0.00    +0.000 C 
ATOM      7  C   UNL     1      -4.271   0.504  25.032  0.00  0.00    +0.000 C 
ATOM      8  C   UNL     1      -3.576  -0.017  25.385  0.00  0.00    +0.009 C 
ENDBRANCH   2   3
TORSDOF 2
ENDMDL
