MODEL 1
REMARK VINA RESULT:     -12.0      0.000      0.000
REMARK  Name = 
REMARK  5 active torsions:
REMARK  status: ('A' for Active; 'I' for Inactive)
REMARK    1  A    between atoms: C_4  and  C_14
REMARK    2  A    between atoms: N_5  and  C_6
REMARK    3  A    between atoms: C_6  and  C_7
REMARK    4  A    between atoms: C_16  and  C_17
REMARK    5  A    between atoms: C_17  and  C_18
REMARK                            x       y       z     vdW  Elec       q    Type
REMARK                         _______ _______ _______ _____ _____    ______ ____
ROOT
ATOM     14  C   UNL     1      -4.342   1.209  24.711  0.00  0.00    +0.251 A 
ATOM     15  N   UNL     1      -4.407   0.491  25.113  0.00  0.00    -0.193 NA
ATOM     16  C   UNL     1      -4.193  -0.112  24.592  0.00  0.00    +0.185 A 
ATOM     26  N   UNL     1      -3.997   0.232  23.869  0.00  0.00    -0.060 NA
ATOM     27  O   UNL     1      -4.089   1.048  23.942  0.00  0.00    -0.336 OA
ENDROOT
BRANCH  14   4
ATOM      1  O   UNL     1      -5.736   3.473  25.878  0.00  0.00    -0.222 OA
ATOM      2  C   UNL     1      -5.143   2.997  25.559  0.00  0.00    +0.170 C 
ATOM      3  C   UNL     1      -5.234   2.219  25.298  0.00  0.00    +0.060 C 
ATOM      4  C   UNL     1      -4.502   1.955  25.022  0.00  0.00    +0.140 C 
ATOM      5  N   UNL     1      -3.960   2.570  25.113  0.00  0.00    -0.260 NA
ATOM     13  C   UNL     1      -4.356   3.214  25.444  0.00  0.00    +0.106 C 
BRANCH   5   6
ATOM      6  C   UNL     1      -3.161   2.546  24.907  0.00  0.00    +0.101 C 
BRANCH   6   7
ATOM      7  C   UNL     1      -2.668   3.183  25.090  0.00  0.00    +0.013 A 
ATOM      8  C   UNL     1      -2.197   3.160  25.766  0.00  0.00    +0.000 A 
ATOM      9  C   UNL     1      -1.705   3.796  25.948  0.00  0.00    +0.020 A 
ATOM     10  C   UNL     1      -1.684   4.457  25.453  0.00  0.00    +0.099 A 
ATOM     11  N   UNL     1      -2.156   4.480  24.776  0.00  0.00    -0.243 NA
ATOM     12  C   UNL     1      -2.648   3.843  24.594  0.00  0.00    +0.096 A 
ENDBRANCH   6   7
ENDBRANCH   5   6
ENDBRANCH  14   4
BRANCH  16  17
ATOM     17  C   UNL     1      -4.179  -0.919  24.765  0.00  0.00    +0.096 C 
BRANCH  17  18
ATOM     18  C   UNL     1      -3.460  -1.324  24.786  0.00  0.00    -0.004 A 
ATOM     19  C   UNL     1      -2.805  -0.983  25.151  0.00  0.00    -0.001 A 
ATOM     20  C   UNL     1      -2.087  -1.388  25.171  0.00  0.00    +0.029 A 
ATOM     21  C   UNL     1      -2.025  -2.135  24.826  0.00  0.00    +0.141 A 
ATOM     22  F   UNL     1      -1.307  -2.540  24.846  0.00  0.00    -0.204 F 
ATOM     23  C   UNL     1      -2.681  -2.476  24.461  0.00  0.00    +0.041 A 
ATOM     24  C   UNL     1      -3.399  -2.071  24.441  0.00  0.00    +0.056 A 
ATOM     25 CL   UNL     1      -4.055  -2.412  24.075  0.00  0.00    -0.082 Cl
ENDBRANCH  17  18
ENDBRANCH  16  17
TORSDOF 5
ENDMDL
MODEL 2
REMARK VINA RESULT:     -11.8      1.433      1.997
REMARK  Name = 
REMARK  5 active torsions:
REMARK  status: ('A' for Active; 'I' for Inactive)
REMARK    1  A    between atoms: C_4  and  C_14
REMARK    2  A    between atoms: N_5  and  C_6
REMARK    3  A    between atoms: C_6  and  C_7
REMARK    4  A    between atoms: C_16  and  C_17
REMARK    5  A    between atoms: C_17  and  C_18
REMARK                            x       y       z     vdW  Elec       q    Type
REMARK                         _______ _______ _______ _____ _____    ______ ____
ROOT
ATOM     14  C   UNL     1      -3.610   1.209  24.185  0.00  0.00    +0.251 A 
ATOM     15  N   UNL     1      -3.361   0.515  24.555  0.00  0.00    -0.193 NA
ATOM     16  C   UNL     1      -4.002   0.206  24.973  0.00  0.00    +0.185 A 
ATOM     26  N   UNL     1      -4.646   0.708  24.861  0.00  0.00    -0.060 NA
ATOM     27  O   UNL     1      -4.404   1.328  24.374  0.00  0.00    -0.336 OA
ENDROOT
BRANCH  14   4
ATOM      1  O   UNL     1      -2.312   2.381  21.866  0.00  0.00    -0.222 OA
ATOM      2  C   UNL     1      -2.550   2.237  22.642  0.00  0.00    +0.170 C 
ATOM      3  C   UNL     1      -3.063   1.639  22.890  0.00  0.00    +0.060 C 
ATOM      4  C   UNL     1      -3.146   1.697  23.709  0.00  0.00    +0.140 C 
ATOM      5  N   UNL     1      -2.685   2.330  23.967  0.00  0.00    -0.260 NA
ATOM     13  C   UNL     1      -2.316   2.663  23.308  0.00  0.00    +0.106 C 
BRANCH   5   6
ATOM      6  C   UNL     1      -2.605   2.586  24.747  0.00  0.00    +0.101 C 
BRANCH   6   7
ATOM      7  C   UNL     1      -2.164   3.262  24.918  0.00  0.00    +0.013 A 
ATOM      8  C   UNL     1      -1.354   3.201  25.064  0.00  0.00    +0.000 A 
ATOM      9  C   UNL     1      -0.914   3.877  25.234  0.00  0.00    +0.020 A 
ATOM     10  C   UNL     1      -1.282   4.615  25.259  0.00  0.00    +0.099 A 
ATOM     11  N   UNL     1      -2.092   4.676  25.113  0.00  0.00    -0.243 NA
ATOM     12  C   UNL     1      -2.533   4.000  24.942  0.00  0.00    +0.096 A 
ENDBRANCH   6   7
ENDBRANCH   5   6
ENDBRANCH  14   4
BRANCH  16  17
ATOM     17  C   UNL     1      -3.998  -0.485  25.424  0.00  0.00    +0.096 C 
BRANCH  17  18
ATOM     18  C   UNL     1      -3.908  -1.218  25.056  0.00  0.00    -0.004 A 
ATOM     19  C   UNL     1      -4.264  -1.358  24.326  0.00  0.00    -0.001 A 
ATOM     20  C   UNL     1      -4.174  -2.091  23.958  0.00  0.00    +0.029 A 
ATOM     21  C   UNL     1      -3.729  -2.683  24.321  0.00  0.00    +0.141 A 
ATOM     22  F   UNL     1      -3.639  -3.416  23.954  0.00  0.00    -0.204 F 
ATOM     23  C   UNL     1      -3.374  -2.542  25.052  0.00  0.00    +0.041 A 
ATOM     24  C   UNL     1      -3.463  -1.810  25.419  0.00  0.00    +0.056 A 
ATOM     25 CL   UNL     1      -3.108  -1.669  26.151  0.00  0.00    -0.082 Cl
ENDBRANCH  17  18
ENDBRANCH  16  17
TORSDOF 5
ENDMDL
MODEL 3
REMARK VINA RESULT:     -11.7      2.174      4.396
REMARK  Name = 
REMARK  5 active torsions:
REMARK  status: ('A' for Active; 'I' for Inactive)
REMARK    1  A    between atoms: C_4  and  C_14
REMARK    2  A    between atoms: N_5  and  C_6
REMARK    3  A    between atoms: C_6  and  C_7
REMARK    4  A    between atoms: C_16  and  C_17
REMARK    5  A    between atoms: C_17  and  C_18
REMARK                            x       y       z     vdW  Elec       q    Type
REMARK                         _______ _______ _______ _____ _____    ______ ____
ROOT
ATOM     14  C   UNL     1      -4.004   2.770  24.704  0.00  0.00    +0.251 A 
ATOM     15  N   UNL     1      -3.533   3.088  25.302  0.00  0.00    -0.193 NA
ATOM     16  C   UNL     1      -2.973   3.581  24.950  0.00  0.00    +0.185 A 
ATOM     26  N   UNL     1      -3.097   3.568  24.134  0.00  0.00    -0.060 NA
ATOM     27  O   UNL     1      -3.735   3.067  23.982  0.00  0.00    -0.336 OA
ENDROOT
BRANCH  14   4
ATOM      1  O   UNL     1      -6.661   1.715  25.218  0.00  0.00    -0.222 OA
ATOM      2  C   UNL     1      -5.856   1.763  25.044  0.00  0.00    +0.170 C 
ATOM      3  C   UNL     1      -5.411   2.457  24.992  0.00  0.00    +0.060 C 
ATOM      4  C   UNL     1      -4.634   2.248  24.808  0.00  0.00    +0.140 C 
ATOM      5  N   UNL     1      -4.598   1.426  24.748  0.00  0.00    -0.260 NA
ATOM     13  C   UNL     1      -5.353   1.127  24.894  0.00  0.00    +0.106 C 
BRANCH   5   6
ATOM      6  C   UNL     1      -3.926   0.982  24.572  0.00  0.00    +0.101 C 
BRANCH   6   7
ATOM      7  C   UNL     1      -3.940   0.161  24.655  0.00  0.00    +0.013 A 
ATOM      8  C   UNL     1      -4.130  -0.316  24.009  0.00  0.00    +0.000 A 
ATOM      9  C   UNL     1      -4.144  -1.136  24.092  0.00  0.00    +0.020 A 
ATOM     10  C   UNL     1      -3.969  -1.481  24.821  0.00  0.00    +0.099 A 
ATOM     11  N   UNL     1      -3.779  -1.004  25.467  0.00  0.00    -0.243 NA
ATOM     12  C   UNL     1      -3.765  -0.183  25.384  0.00  0.00    +0.096 A 
ENDBRANCH   6   7
ENDBRANCH   5   6
ENDBRANCH  14   4
BRANCH  16  17
ATOM     17  C   UNL     1      -2.390   4.011  25.344  0.00  0.00    +0.096 C 
BRANCH  17  18
ATOM     18  C   UNL     1      -1.649   3.674  25.481  0.00  0.00    -0.004 A 
ATOM     19  C   UNL     1      -1.593   2.927  25.824  0.00  0.00    -0.001 A 
ATOM     20  C   UNL     1      -0.852   2.590  25.960  0.00  0.00    +0.029 A 
ATOM     21  C   UNL     1      -0.168   3.001  25.753  0.00  0.00    +0.141 A 
ATOM     22  F   UNL     1       0.573   2.665  25.888  0.00  0.00    -0.204 F 
ATOM     23  C   UNL     1      -0.225   3.750  25.409  0.00  0.00    +0.041 A 
ATOM     24  C   UNL     1      -0.965   4.085  25.273  0.00  0.00    +0.056 A 
ATOM     25 CL   UNL     1      -1.021   4.834  24.929  0.00  0.00    -0.082 Cl
ENDBRANCH  17  18
ENDBRANCH  16  17
TORSDOF 5
ENDMDL
MODEL 4
REMARK VINA RESULT:     -11.7      2.772      5.504
REMARK  Name = 
REMARK  5 active torsions:
REMARK  status: ('A' for Active; 'I' for Inactive)
REMARK    1  A    between atoms: C_4  and  C_14
REMARK    2  A    between atoms: N_5  and  C_6
REMARK    3  A    between atoms: C_6  and  C_7
REMARK    4  A    between atoms: C_16  and  C_17
REMARK    5  A    between atoms: C_17  and  C_18
REMARK                            x       y       z     vdW  Elec       q    Type
REMARK                         _______ _______ _______ _____ _____    ______ ____
ROOT
ATOM     14  C   UNL     1      -1.814   0.992  24.573  0.00  0.00    +0.251 A 
ATOM     15  N   UNL     1      -1.824   1.485  25.235  0.00  0.00    -0.193 NA
ATOM     16  C   UNL     1      -2.185   2.194  25.018  0.00  0.00    +0.185 A 
ATOM     26  N   UNL     1      -2.397   2.141  24.223  0.00  0.00    -0.060 NA
ATOM     27  O   UNL     1      -2.168   1.398  23.948  0.00  0.00    -0.336 OA
ENDROOT
BRANCH  14   4
ATOM      1  O   UNL     1       0.040  -1.227  24.306  0.00  0.00    -0.222 OA
ATOM      2  C   UNL     1      -0.652  -0.792  24.419  0.00  0.00    +0.170 C 
ATOM      3  C   UNL     1      -0.715   0.031  24.403  0.00  0.00    +0.060 C 
ATOM      4  C   UNL     1      -1.504   0.229  24.542  0.00  0.00    +0.140 C 
ATOM      5  N   UNL     1      -1.928  -0.472  24.644  0.00  0.00    -0.260 NA
ATOM     13  C   UNL     1      -1.401  -1.102  24.568  0.00  0.00    +0.106 C 
BRANCH   5   6
ATOM      6  C   UNL     1      -2.736  -0.531  24.796  0.00  0.00    +0.101 C 
BRANCH   6   7
ATOM      7  C   UNL     1      -3.120  -1.258  24.715  0.00  0.00    +0.013 A 
ATOM      8  C   UNL     1      -3.547  -1.425  24.030  0.00  0.00    +0.000 A 
ATOM      9  C   UNL     1      -3.930  -2.151  23.949  0.00  0.00    +0.020 A 
ATOM     10  C   UNL     1      -3.885  -2.711  24.554  0.00  0.00    +0.099 A 
ATOM     11  N   UNL     1      -3.458  -2.543  25.239  0.00  0.00    -0.243 NA
ATOM     12  C   UNL     1      -3.074  -1.817  25.320  0.00  0.00    +0.096 A 
ENDBRANCH   6   7
ENDBRANCH   5   6
ENDBRANCH  14   4
BRANCH  16  17
ATOM     17  C   UNL     1      -2.311   2.844  25.511  0.00  0.00    +0.096 C 
BRANCH  17  18
ATOM     18  C   UNL     1      -1.916   3.554  25.367  0.00  0.00    -0.004 A 
ATOM     19  C   UNL     1      -1.146   3.545  25.074  0.00  0.00    -0.001 A 
ATOM     20  C   UNL     1      -0.751   4.255  24.930  0.00  0.00    +0.029 A 
ATOM     21  C   UNL     1      -1.127   4.974  25.080  0.00  0.00    +0.141 A 
ATOM     22  F   UNL     1      -0.732   5.684  24.937  0.00  0.00    -0.204 F 
ATOM     23  C   UNL     1      -1.898   4.982  25.374  0.00  0.00    +0.041 A 
ATOM     24  C   UNL     1      -2.292   4.273  25.517  0.00  0.00    +0.056 A 
ATOM     25 CL   UNL     1      -3.063   4.282  25.811  0.00  0.00    -0.082 Cl
ENDBRANCH  17  18
ENDBRANCH  16  17
TORSDOF 5
ENDMDL
MODEL 5
REMARK VINA RESULT:     -11.7      2.525      5.105
REMARK  Name = 
REMARK  5 active torsions:
REMARK  status: ('A' for Active; 'I' for Inactive)
REMARK    1  A    between atoms: C_4  and  C_14
REMARK    2  A    between atoms: N_5  and  C_6
REMARK    3  A    between atoms: C_6  and  C_7
REMARK    4  A    between atoms: C_16  and  C_17
REMARK    5  A    between atoms: C_17  and  C_18
REMARK                            x       y       z     vdW  Elec       q    Type
REMARK                         _______ _______ _______ _____ _____    ______ ____
ROOT
ATOM     14  C   UNL     1      -2.275   1.209  23.993  0.00  0.00    +0.251 A 
ATOM     15  N   UNL     1      -2.447   1.841  24.494  0.00  0.00    -0.193 NA
ATOM     16  C   UNL     1      -2.892   2.390  24.067  0.00  0.00    +0.185 A 
ATOM     26  N   UNL     1      -2.994   2.097  23.303  0.00  0.00    -0.060 NA
ATOM     27  O   UNL     1      -2.613   1.367  23.257  0.00  0.00    -0.336 OA
ENDROOT
BRANCH  14   4
ATOM      1  O   UNL     1      -0.060  -0.612  24.457  0.00  0.00    -0.222 OA
ATOM      2  C   UNL     1      -0.822  -0.301  24.405  0.00  0.00    +0.170 C 
ATOM      3  C   UNL     1      -1.019   0.462  24.158  0.00  0.00    +0.060 C 
ATOM      4  C   UNL     1      -1.841   0.536  24.192  0.00  0.00    +0.140 C 
ATOM      5  N   UNL     1      -2.151  -0.179  24.460  0.00  0.00    -0.260 NA
ATOM     13  C   UNL     1      -1.521  -0.697  24.592  0.00  0.00    +0.106 C 
BRANCH   5   6
ATOM      6  C   UNL     1      -2.950  -0.349  24.576  0.00  0.00    +0.101 C 
BRANCH   6   7
ATOM      7  C   UNL     1      -3.192  -1.127  24.706  0.00  0.00    +0.013 A 
ATOM      8  C   UNL     1      -3.447  -1.592  24.074  0.00  0.00    +0.000 A 
ATOM      9  C   UNL     1      -3.690  -2.369  24.205  0.00  0.00    +0.020 A 
ATOM     10  C   UNL     1      -3.677  -2.682  24.968  0.00  0.00    +0.099 A 
ATOM     11  N   UNL     1      -3.422  -2.218  25.600  0.00  0.00    -0.243 NA
ATOM     12  C   UNL     1      -3.179  -1.440  25.470  0.00  0.00    +0.096 A 
ENDBRANCH   6   7
ENDBRANCH   5   6
ENDBRANCH  14   4
BRANCH  16  17
ATOM     17  C   UNL     1      -3.183   3.106  24.355  0.00  0.00    +0.096 C 
BRANCH  17  18
ATOM     18  C   UNL     1      -3.890   3.124  24.780  0.00  0.00    -0.004 A 
ATOM     19  C   UNL     1      -4.541   2.694  24.515  0.00  0.00    -0.001 A 
ATOM     20  C   UNL     1      -5.248   2.711  24.940  0.00  0.00    +0.029 A 
ATOM     21  C   UNL     1      -5.302   3.159  25.631  0.00  0.00    +0.141 A 
ATOM     22  F   UNL     1      -6.008   3.177  26.057  0.00  0.00    -0.204 F 
ATOM     23  C   UNL     1      -4.649   3.589  25.896  0.00  0.00    +0.041 A 
ATOM     24  C   UNL     1      -3.944   3.571  25.471  0.00  0.00    +0.056 A 
ATOM     25 CL   UNL     1      -3.291   4.001  25.737  0.00  0.00    -0.082 Cl
ENDBRANCH  17  18
ENDBRANCH  16  17
TORSDOF 5
ENDMDL
MODEL 6
REMARK VINA RESULT:     -11.6      2.654      4.608
REMARK  Name = 
REMARK  5 active torsions:
REMARK  status: ('A' for Active; 'I' for Inactive)
REMARK    1  A    between atoms: C_4  and  C_14
REMARK    2  A    between atoms: N_5  and  C_6
REMARK    3  A    between atoms: C_6  and  C_7
REMARK    4  A    between atoms: C_16  and  C_17
REMARK    5  A    between atoms: C_17  and  C_18
REMARK                            x       y       z     vdW  Elec       q    Type
REMARK                         _______ _______ _______ _____ _____    ______ ____
ROOT
ATOM     14  C   UNL     1      -1.986   2.673  24.781  0.00  0.00    +0.251 A 
ATOM     15  N   UNL     1      -2.659   2.959  25.162  0.00  0.00    -0.193 NA
ATOM     16  C   UNL     1      -3.202   3.185  24.583  0.00  0.00    +0.185 A 
ATOM     26  N   UNL     1      -2.864   3.039  23.845  0.00  0.00    -0.060 NA
ATOM     27  O   UNL     1      -2.112   2.723  23.967  0.00  0.00    -0.336 OA
ENDROOT
BRANCH  14   4
ATOM      1  O   UNL     1       0.509   2.554  26.264  0.00  0.00    -0.222 OA
ATOM      2  C   UNL     1      -0.158   2.333  25.831  0.00  0.00    +0.170 C 
ATOM      3  C   UNL     1      -0.745   2.842  25.552  0.00  0.00    +0.060 C 
ATOM      4  C   UNL     1      -1.305   2.388  25.149  0.00  0.00    +0.140 C 
ATOM      5  N   UNL     1      -1.063   1.600  25.180  0.00  0.00    -0.260 NA
ATOM     13  C   UNL     1      -0.354   1.566  25.601  0.00  0.00    +0.106 C 
BRANCH   5   6
ATOM      6  C   UNL     1      -1.461   0.958  24.847  0.00  0.00    +0.101 C 
BRANCH   6   7
ATOM      7  C   UNL     1      -1.183   0.191  24.972  0.00  0.00    +0.013 A 
ATOM      8  C   UNL     1      -1.467  -0.253  25.606  0.00  0.00    +0.000 A 
ATOM      9  C   UNL     1      -1.190  -1.020  25.731  0.00  0.00    +0.020 A 
ATOM     10  C   UNL     1      -0.627  -1.343  25.221  0.00  0.00    +0.099 A 
ATOM     11  N   UNL     1      -0.343  -0.899  24.587  0.00  0.00    -0.243 NA
ATOM     12  C   UNL     1      -0.620  -0.132  24.462  0.00  0.00    +0.096 A 
ENDBRANCH   6   7
ENDBRANCH   5   6
ENDBRANCH  14   4
BRANCH  16  17
ATOM     17  C   UNL     1      -3.952   3.501  24.719  0.00  0.00    +0.096 C 
BRANCH  17  18
ATOM     18  C   UNL     1      -4.586   3.002  24.889  0.00  0.00    -0.004 A 
ATOM     19  C   UNL     1      -4.644   2.268  24.519  0.00  0.00    -0.001 A 
ATOM     20  C   UNL     1      -5.278   1.768  24.689  0.00  0.00    +0.029 A 
ATOM     21  C   UNL     1      -5.854   2.004  25.230  0.00  0.00    +0.141 A 
ATOM     22  F   UNL     1      -6.489   1.505  25.401  0.00  0.00    -0.204 F 
ATOM     23  C   UNL     1      -5.796   2.739  25.601  0.00  0.00    +0.041 A 
ATOM     24  C   UNL     1      -5.163   3.237  25.430  0.00  0.00    +0.056 A 
ATOM     25 CL   UNL     1      -5.105   3.972  25.801  0.00  0.00    -0.082 Cl
ENDBRANCH  17  18
ENDBRANCH  16  17
TORSDOF 5
ENDMDL
MODEL 7
REMARK VINA RESULT:     -11.4      1.858      2.640
REMARK  Name = 
REMARK  5 active torsions:
REMARK  status: ('A' for Active; 'I' for Inactive)
REMARK    1  A    between atoms: C_4  and  C_14
REMARK    2  A    between atoms: N_5  and  C_6
REMARK    3  A    between atoms: C_6  and  C_7
REMARK    4  A    between atoms: C_16  and  C_17
REMARK    5  A    between atoms: C_17  and  C_18
REMARK                            x       y       z     vdW  Elec       q    Type
REMARK                         _______ _______ _______ _____ _____    ______ ____
ROOT
ATOM     14  C   UNL     1      -1.430   0.678  24.991  0.00  0.00    +0.251 A 
ATOM     15  N   UNL     1      -1.801   0.075  25.414  0.00  0.00    -0.193 NA
ATOM     16  C   UNL     1      -1.774  -0.611  24.956  0.00  0.00    +0.185 A 
ATOM     26  N   UNL     1      -1.386  -0.432  24.250  0.00  0.00    -0.060 NA
ATOM     27  O   UNL     1      -1.174   0.364  24.272  0.00  0.00    -0.336 OA
ENDROOT
BRANCH  14   4
ATOM      1  O   UNL     1      -0.339   3.058  26.248  0.00  0.00    -0.222 OA
ATOM      2  C   UNL     1      -0.830   2.552  25.820  0.00  0.00    +0.170 C 
ATOM      3  C   UNL     1      -0.707   1.745  25.699  0.00  0.00    +0.060 C 
ATOM      4  C   UNL     1      -1.332   1.457  25.242  0.00  0.00    +0.140 C 
ATOM      5  N   UNL     1      -1.841   2.086  25.082  0.00  0.00    -0.260 NA
ATOM     13  C   UNL     1      -1.530   2.763  25.439  0.00  0.00    +0.106 C 
BRANCH   5   6
ATOM      6  C   UNL     1      -2.537   2.047  24.642  0.00  0.00    +0.101 C 
BRANCH   6   7
ATOM      7  C   UNL     1      -3.110   2.636  24.721  0.00  0.00    +0.013 A 
ATOM      8  C   UNL     1      -3.719   2.549  25.270  0.00  0.00    +0.000 A 
ATOM      9  C   UNL     1      -4.291   3.137  25.349  0.00  0.00    +0.020 A 
ATOM     10  C   UNL     1      -4.255   3.814  24.878  0.00  0.00    +0.099 A 
ATOM     11  N   UNL     1      -3.646   3.901  24.329  0.00  0.00    -0.243 NA
ATOM     12  C   UNL     1      -3.073   3.312  24.250  0.00  0.00    +0.096 A 
ENDBRANCH   6   7
ENDBRANCH   5   6
ENDBRANCH  14   4
BRANCH  16  17
ATOM     17  C   UNL     1      -2.081  -1.347  25.167  0.00  0.00    +0.096 C 
BRANCH  17  18
ATOM     18  C   UNL     1      -2.757  -1.636  24.792  0.00  0.00    -0.004 A 
ATOM     19  C   UNL     1      -3.419  -1.153  24.707  0.00  0.00    -0.001 A 
ATOM     20  C   UNL     1      -4.095  -1.441  24.332  0.00  0.00    +0.029 A 
ATOM     21  C   UNL     1      -4.107  -2.213  24.041  0.00  0.00    +0.141 A 
ATOM     22  F   UNL     1      -4.782  -2.502  23.666  0.00  0.00    -0.204 F 
ATOM     23  C   UNL     1      -3.444  -2.697  24.126  0.00  0.00    +0.041 A 
ATOM     24  C   UNL     1      -2.769  -2.408  24.501  0.00  0.00    +0.056 A 
ATOM     25 CL   UNL     1      -2.106  -2.891  24.586  0.00  0.00    -0.082 Cl
ENDBRANCH  17  18
ENDBRANCH  16  17
TORSDOF 5
ENDMDL
MODEL 8
REMARK VINA RESULT:     -11.4      2.251      4.548
REMARK  Name = 
REMARK  5 active torsions:
REMARK  status: ('A' for Active; 'I' for Inactive)
REMARK    1  A    between atoms: C_4  and  C_14
REMARK    2  A    between atoms: N_5  and  C_6
REMARK    3  A    between atoms: C_6  and  C_7
REMARK    4  A    between atoms: C_16  and  C_17
REMARK    5  A    between atoms: C_17  and  C_18
REMARK                            x       y       z     vdW  Elec       q    Type
REMARK                         _______ _______ _______ _____ _____    ______ ____
ROOT
ATOM     14  C   UNL     1      -4.349   0.279  24.775  0.00  0.00    +0.251 A 
ATOM     15  N   UNL     1      -4.272   0.963  24.320  0.00  0.00    -0.193 NA
ATOM     16  C   UNL     1      -4.647   1.579  24.722  0.00  0.00    +0.185 A 
ATOM     26  N   UNL     1      -4.955   1.276  25.425  0.00  0.00    -0.060 NA
ATOM     27  O   UNL     1      -4.771   0.473  25.458  0.00  0.00    -0.336 OA
ENDROOT
BRANCH  14   4
ATOM      1  O   UNL     1      -4.154  -2.431  23.750  0.00  0.00    -0.222 OA
ATOM      2  C   UNL     1      -3.966  -1.713  24.111  0.00  0.00    +0.170 C 
ATOM      3  C   UNL     1      -4.469  -1.062  24.187  0.00  0.00    +0.060 C 
ATOM      4  C   UNL     1      -4.056  -0.467  24.582  0.00  0.00    +0.140 C 
ATOM      5  N   UNL     1      -3.299  -0.749  24.750  0.00  0.00    -0.260 NA
ATOM     13  C   UNL     1      -3.244  -1.519  24.458  0.00  0.00    +0.106 C 
BRANCH   5   6
ATOM      6  C   UNL     1      -2.703  -0.335  25.140  0.00  0.00    +0.101 C 
BRANCH   6   7
ATOM      7  C   UNL     1      -1.915  -0.567  25.055  0.00  0.00    +0.013 A 
ATOM      8  C   UNL     1      -1.447  -0.230  24.466  0.00  0.00    +0.000 A 
ATOM      9  C   UNL     1      -0.660  -0.462  24.381  0.00  0.00    +0.020 A 
ATOM     10  C   UNL     1      -0.341  -1.031  24.886  0.00  0.00    +0.099 A 
ATOM     11  N   UNL     1      -0.809  -1.367  25.476  0.00  0.00    -0.243 NA
ATOM     12  C   UNL     1      -1.596  -1.136  25.561  0.00  0.00    +0.096 A 
ENDBRANCH   6   7
ENDBRANCH   5   6
ENDBRANCH  14   4
BRANCH  16  17
ATOM     17  C   UNL     1      -4.703   2.361  24.465  0.00  0.00    +0.096 C 
BRANCH  17  18
ATOM     18  C   UNL     1      -4.148   2.919  24.715  0.00  0.00    -0.004 A 
ATOM     19  C   UNL     1      -4.020   3.041  25.520  0.00  0.00    -0.001 A 
ATOM     20  C   UNL     1      -3.465   3.598  25.769  0.00  0.00    +0.029 A 
ATOM     21  C   UNL     1      -3.039   4.033  25.213  0.00  0.00    +0.141 A 
ATOM     22  F   UNL     1      -2.484   4.590  25.461  0.00  0.00    -0.204 F 
ATOM     23  C   UNL     1      -3.168   3.910  24.407  0.00  0.00    +0.041 A 
ATOM     24  C   UNL     1      -3.722   3.354  24.158  0.00  0.00    +0.056 A 
ATOM     25 CL   UNL     1      -3.851   3.231  23.352  0.00  0.00    -0.082 Cl
ENDBRANCH  17  18
ENDBRANCH  16  17
TORSDOF 5
ENDMDL
