MODEL 1
REMARK VINA RESULT:      -7.1      0.000      0.000
REMARK  Name = 
REMARK  8 active torsions:
REMARK  status: ('A' for Active; 'I' for Inactive)
REMARK    1  A    between atoms: C_2  and  C_3
REMARK    2  A    between atoms: C_3  and  S_4
REMARK    3  A    between atoms: S_4  and  N_7
REMARK    4  A    between atoms: N_7  and  C_8
REMARK    5  A    between atoms: C_8  and  C_9
REMARK    6  A    between atoms: C_13  and  C_14
REMARK    7  A    between atoms: C_14  and  C_15
REMARK    8  A    between atoms: C_30  and  C_31
REMARK                            x       y       z     vdW  Elec       q    Type
REMARK                         _______ _______ _______ _____ _____    ______ ____
ROOT
ATOM      9  C   UNL     1      -2.918   1.373  24.436  0.00  0.00    +0.041 C 
ATOM     10  C   UNL     1      -2.697   0.837  25.022  0.00  0.00    -0.033 C 
ATOM     11  C   UNL     1      -1.933   0.521  25.026  0.00  0.00    -0.048 C 
ATOM     12  C   UNL     1      -1.712  -0.015  25.613  0.00  0.00    +0.026 C 
ATOM     13  C   UNL     1      -1.393   0.742  24.444  0.00  0.00    +0.027 C 
ATOM     29  C   UNL     1      -1.614   1.278  23.858  0.00  0.00    +0.005 C 
ATOM     30  C   UNL     1      -2.378   1.594  23.854  0.00  0.00    +0.006 C 
ENDROOT
BRANCH  30  31
ATOM     31  C   UNL     1      -2.599   2.131  23.267  0.00  0.00    +0.000 C 
ATOM     32  C   UNL     1      -2.462   2.937  23.374  0.00  0.00    +0.000 C 
ATOM     33  C   UNL     1      -2.956   1.861  22.574  0.00  0.00    +0.000 C 
ENDBRANCH  30  31
BRANCH   9   8
ATOM      8  C   UNL     1      -3.680   1.688  24.432  0.00  0.00    +0.119 C 
BRANCH   8   7
ATOM      7  N   UNL     1      -4.201   1.518  25.049  0.00  0.00    -0.082 NA
BRANCH   7   4
ATOM      4  S   UNL     1      -4.905   1.939  25.122  0.00  0.00    +0.057 S 
ATOM      5  O   UNL     1      -4.514   2.516  25.565  0.00  0.00    -0.156 OA
ATOM      6  O   UNL     1      -5.296   1.362  24.680  0.00  0.00    -0.156 OA
BRANCH   4   3
ATOM      3  C   UNL     1      -5.612   2.361  25.196  0.00  0.00    +0.171 C 
BRANCH   3   2
ATOM      1  C   UNL     1      -6.282   3.524  25.684  0.00  0.00    +0.002 C 
ATOM      2  C   UNL     1      -5.670   2.974  25.745  0.00  0.00    +0.027 C 
ENDBRANCH   3   2
ENDBRANCH   4   3
ENDBRANCH   7   4
ENDBRANCH   8   7
ENDBRANCH   9   8
BRANCH  13  14
ATOM     14  C   UNL     1      -0.631   0.427  24.448  0.00  0.00    +0.089 C 
BRANCH  14  15
ATOM     15  C   UNL     1      -0.355   0.006  23.794  0.00  0.00    +0.226 C 
ATOM     16  O   UNL     1      -0.850  -0.531  23.410  0.00  0.00    -0.275 OA
ATOM     17  N   UNL     1       0.415   0.123  23.524  0.00  0.00    -0.276 N 
ATOM     18  C   UNL     1       0.691  -0.299  22.870  0.00  0.00    +0.115 C 
ATOM     19  C   UNL     1       1.462  -0.182  22.599  0.00  0.00    +0.114 C 
ATOM     20  N   UNL     1       1.957   0.355  22.983  0.00  0.00    -0.290 N 
ATOM     21  C   UNL     1       1.681   0.776  23.636  0.00  0.00    +0.114 C 
ATOM     22  C   UNL     1       0.910   0.660  23.907  0.00  0.00    +0.115 C 
ATOM     23  C   UNL     1       2.727   0.471  22.713  0.00  0.00    +0.132 A 
ATOM     24  N   UNL     1       3.003   0.050  22.058  0.00  0.00    -0.229 NA
ATOM     25  C   UNL     1       3.774   0.167  21.788  0.00  0.00    +0.100 A 
ATOM     26  C   UNL     1       4.269   0.704  22.172  0.00  0.00    +0.021 A 
ATOM     27  C   UNL     1       3.993   1.125  22.825  0.00  0.00    +0.004 A 
ATOM     28  C   UNL     1       3.223   1.008  23.096  0.00  0.00    +0.034 A 
ENDBRANCH  14  15
ENDBRANCH  13  14
TORSDOF 8
ENDMDL
MODEL 2
REMARK VINA RESULT:      -6.8      2.072      6.777
REMARK  Name = 
REMARK  8 active torsions:
REMARK  status: ('A' for Active; 'I' for Inactive)
REMARK    1  A    between atoms: C_2  and  C_3
REMARK    2  A    between atoms: C_3  and  S_4
REMARK    3  A    between atoms: S_4  and  N_7
REMARK    4  A    between atoms: N_7  and  C_8
REMARK    5  A    between atoms: C_8  and  C_9
REMARK    6  A    between atoms: C_13  and  C_14
REMARK    7  A    between atoms: C_14  and  C_15
REMARK    8  A    between atoms: C_30  and  C_31
REMARK                            x       y       z     vdW  Elec       q    Type
REMARK                         _______ _______ _______ _____ _____    ______ ____
ROOT
ATOM      9  C   UNL     1       0.899   0.905  23.599  0.00  0.00    +0.041 C 
ATOM     10  C   UNL     1       0.894   1.712  23.763  0.00  0.00    -0.033 C 
ATOM     11  C   UNL     1       0.192   2.083  23.990  0.00  0.00    -0.048 C 
ATOM     12  C   UNL     1       0.187   2.892  24.154  0.00  0.00    +0.026 C 
ATOM     13  C   UNL     1      -0.504   1.645  24.051  0.00  0.00    +0.027 C 
ATOM     29  C   UNL     1      -0.499   0.838  23.887  0.00  0.00    +0.005 C 
ATOM     30  C   UNL     1       0.204   0.467  23.660  0.00  0.00    +0.006 C 
ENDROOT
BRANCH  30  31
ATOM     31  C   UNL     1       0.208  -0.342  23.496  0.00  0.00    +0.000 C 
ATOM     32  C   UNL     1       0.257  -0.887  24.113  0.00  0.00    +0.000 C 
ATOM     33  C   UNL     1       0.164  -0.606  22.715  0.00  0.00    +0.000 C 
ENDBRANCH  30  31
BRANCH   9   8
ATOM      8  C   UNL     1       1.601   0.534  23.373  0.00  0.00    +0.119 C 
BRANCH   8   7
ATOM      7  N   UNL     1       2.239   0.985  23.107  0.00  0.00    -0.082 NA
BRANCH   7   4
ATOM      4  S   UNL     1       2.970   0.628  22.977  0.00  0.00    +0.057 S 
ATOM      5  O   UNL     1       2.716   0.380  22.231  0.00  0.00    -0.156 OA
ATOM      6  O   UNL     1       3.224   0.875  23.722  0.00  0.00    -0.156 OA
BRANCH   4   3
ATOM      3  C   UNL     1       3.703   0.270  22.846  0.00  0.00    +0.171 C 
BRANCH   3   2
ATOM      1  C   UNL     1       5.103   0.218  23.129  0.00  0.00    +0.002 C 
ATOM      2  C   UNL     1       4.394   0.639  23.106  0.00  0.00    +0.027 C 
ENDBRANCH   3   2
ENDBRANCH   4   3
ENDBRANCH   7   4
ENDBRANCH   8   7
ENDBRANCH   9   8
BRANCH  13  14
ATOM     14  C   UNL     1      -1.206   2.016  24.277  0.00  0.00    +0.089 C 
BRANCH  14  15
ATOM     15  C   UNL     1      -1.857   2.009  23.771  0.00  0.00    +0.226 C 
ATOM     16  O   UNL     1      -1.745   1.989  22.954  0.00  0.00    -0.275 OA
ATOM     17  N   UNL     1      -2.621   2.023  24.082  0.00  0.00    -0.276 N 
ATOM     18  C   UNL     1      -3.273   2.016  23.576  0.00  0.00    +0.115 C 
ATOM     19  C   UNL     1      -4.037   2.030  23.887  0.00  0.00    +0.114 C 
ATOM     20  N   UNL     1      -4.149   2.050  24.704  0.00  0.00    -0.290 N 
ATOM     21  C   UNL     1      -3.498   2.057  25.210  0.00  0.00    +0.114 C 
ATOM     22  C   UNL     1      -2.734   2.043  24.899  0.00  0.00    +0.115 C 
ATOM     23  C   UNL     1      -4.913   2.064  25.015  0.00  0.00    +0.132 A 
ATOM     24  N   UNL     1      -5.565   2.057  24.509  0.00  0.00    -0.229 NA
ATOM     25  C   UNL     1      -6.329   2.071  24.820  0.00  0.00    +0.100 A 
ATOM     26  C   UNL     1      -6.441   2.092  25.637  0.00  0.00    +0.021 A 
ATOM     27  C   UNL     1      -5.790   2.098  26.143  0.00  0.00    +0.004 A 
ATOM     28  C   UNL     1      -5.026   2.085  25.832  0.00  0.00    +0.034 A 
ENDBRANCH  14  15
ENDBRANCH  13  14
TORSDOF 8
ENDMDL
MODEL 3
REMARK VINA RESULT:      -5.4     15.043     15.783
REMARK  Name = 
REMARK  8 active torsions:
REMARK  status: ('A' for Active; 'I' for Inactive)
REMARK    1  A    between atoms: C_2  and  C_3
REMARK    2  A    between atoms: C_3  and  S_4
REMARK    3  A    between atoms: S_4  and  N_7
REMARK    4  A    between atoms: N_7  and  C_8
REMARK    5  A    between atoms: C_8  and  C_9
REMARK    6  A    between atoms: C_13  and  C_14
REMARK    7  A    between atoms: C_14  and  C_15
REMARK    8  A    between atoms: C_30  and  C_31
REMARK                            x       y       z     vdW  Elec       q    Type
REMARK                         _______ _______ _______ _____ _____    ______ ____
ROOT
ATOM      9  C   UNL     1      -8.040  -9.854  16.099  0.00  0.00    +0.041 C 
ATOM     10  C   UNL     1      -8.565  -9.826  15.464  0.00  0.00    -0.033 C 
ATOM     11  C   UNL     1      -8.275  -9.817  14.690  0.00  0.00    -0.048 C 
ATOM     12  C   UNL     1      -8.801  -9.789  14.054  0.00  0.00    +0.026 C 
ATOM     13  C   UNL     1      -7.463  -9.838  14.554  0.00  0.00    +0.027 C 
ATOM     29  C   UNL     1      -6.939  -9.866  15.189  0.00  0.00    +0.005 C 
ATOM     30  C   UNL     1      -7.228  -9.875  15.963  0.00  0.00    +0.006 C 
ENDROOT
BRANCH  30  31
ATOM     31  C   UNL     1      -6.703  -9.903  16.599  0.00  0.00    +0.000 C 
ATOM     32  C   UNL     1      -6.331  -9.213  16.858  0.00  0.00    +0.000 C 
ATOM     33  C   UNL     1      -6.548 -10.621  16.976  0.00  0.00    +0.000 C 
ENDBRANCH  30  31
BRANCH   9   8
ATOM      8  C   UNL     1      -8.329  -9.863  16.872  0.00  0.00    +0.119 C 
BRANCH   8   7
ATOM      7  N   UNL     1      -9.139  -9.938  17.009  0.00  0.00    -0.082 NA
BRANCH   7   4
ATOM      4  S   UNL     1      -9.429  -9.936  17.781  0.00  0.00    +0.057 S 
ATOM      5  O   UNL     1      -9.481  -9.112  17.759  0.00  0.00    -0.156 OA
ATOM      6  O   UNL     1      -9.376 -10.759  17.803  0.00  0.00    -0.156 OA
BRANCH   4   3
ATOM      3  C   UNL     1      -9.719  -9.934  18.554  0.00  0.00    +0.171 C 
BRANCH   3   2
ATOM      1  C   UNL     1     -10.695 -10.367  19.504  0.00  0.00    +0.002 C 
ATOM      2  C   UNL     1     -10.340 -10.436  18.763  0.00  0.00    +0.027 C 
ENDBRANCH   3   2
ENDBRANCH   4   3
ENDBRANCH   7   4
ENDBRANCH   8   7
ENDBRANCH   9   8
BRANCH  13  14
ATOM     14  C   UNL     1      -7.174  -9.829  13.781  0.00  0.00    +0.089 C 
BRANCH  14  15
ATOM     15  C   UNL     1      -6.448 -10.180  13.608  0.00  0.00    +0.226 C 
ATOM     16  O   UNL     1      -6.147 -10.769  14.101  0.00  0.00    -0.275 OA
ATOM     17  N   UNL     1      -6.023  -9.942  12.943  0.00  0.00    -0.276 N 
ATOM     18  C   UNL     1      -5.296 -10.293  12.770  0.00  0.00    +0.115 C 
ATOM     19  C   UNL     1      -4.870 -10.055  12.105  0.00  0.00    +0.114 C 
ATOM     20  N   UNL     1      -5.172  -9.465  11.612  0.00  0.00    -0.290 N 
ATOM     21  C   UNL     1      -5.898  -9.114  11.785  0.00  0.00    +0.114 C 
ATOM     22  C   UNL     1      -6.323  -9.353  12.450  0.00  0.00    +0.115 C 
ATOM     23  C   UNL     1      -4.746  -9.227  10.947  0.00  0.00    +0.132 A 
ATOM     24  N   UNL     1      -4.019  -9.578  10.774  0.00  0.00    -0.229 NA
ATOM     25  C   UNL     1      -3.594  -9.340  10.108  0.00  0.00    +0.100 A 
ATOM     26  C   UNL     1      -3.896  -8.751   9.616  0.00  0.00    +0.021 A 
ATOM     27  C   UNL     1      -4.621  -8.400   9.788  0.00  0.00    +0.004 A 
ATOM     28  C   UNL     1      -5.047  -8.638  10.454  0.00  0.00    +0.034 A 
ENDBRANCH  14  15
ENDBRANCH  13  14
TORSDOF 8
ENDMDL
