MODEL 1
REMARK VINA RESULT:      -9.3      0.000      0.000
REMARK  Name = 
REMARK  9 active torsions:
REMARK  status: ('A' for Active; 'I' for Inactive)
REMARK    1  A    between atoms: O_2  and  C_3
REMARK    2  A    between atoms: C_5  and  S_6
REMARK    3  A    between atoms: C_10  and  C_11
REMARK    4  A    between atoms: N_13  and  C_14
REMARK    5  A    between atoms: C_16  and  C_23
REMARK    6  A    between atoms: N_25  and  C_26
REMARK    7  A    between atoms: C_26  and  C_27
REMARK    8  A    between atoms: C_26  and  C_37
REMARK    9  A    between atoms: C_27  and  C_28
REMARK                            x       y       z     vdW  Elec       q    Type
REMARK                         _______ _______ _______ _____ _____    ______ ____
ROOT
ATOM     14  C   UNL     1       0.032   1.715  24.399  0.00  0.00    +0.131 C 
ATOM     15  C   UNL     1      -0.681   1.501  24.046  0.00  0.00    +0.064 C 
ATOM     16  C   UNL     1      -1.391   1.598  24.456  0.00  0.00    +0.200 C 
ATOM     17  O   UNL     1      -1.677   1.282  23.749  0.00  0.00    -0.216 OA
ATOM     18  C   UNL     1      -1.386   1.910  25.220  0.00  0.00    +0.075 C 
ATOM     19  C   UNL     1      -0.673   2.124  25.573  0.00  0.00    +0.187 C 
ATOM     20  O   UNL     1      -0.668   2.436  26.337  0.00  0.00    -0.220 OA
ATOM     21  C   UNL     1       0.037   2.026  25.163  0.00  0.00    +0.202 C 
ATOM     22  O   UNL     1       0.751   2.240  25.517  0.00  0.00    -0.219 OA
ENDROOT
BRANCH  14  13
ATOM     11  C   UNL     1       1.000   0.859  23.787  0.00  0.00    +0.268 C 
ATOM     12  O   UNL     1       0.550   0.201  23.996  0.00  0.00    -0.268 OA
ATOM     13  N   UNL     1       0.742   1.617  23.989  0.00  0.00    -0.201 NA
BRANCH  11  10
ATOM      3  C   UNL     1       1.755   0.221  22.755  0.00  0.00    +0.144 A 
ATOM      4  C   UNL     1       2.463   0.123  22.345  0.00  0.00    +0.043 A 
ATOM      5  C   UNL     1       3.126   0.565  22.557  0.00  0.00    +0.028 A 
ATOM      8  C   UNL     1       3.081   1.106  23.178  0.00  0.00    +0.006 A 
ATOM      9  C   UNL     1       2.372   1.204  23.588  0.00  0.00    +0.008 A 
ATOM     10  C   UNL     1       1.709   0.761  23.377  0.00  0.00    +0.089 A 
BRANCH   3   2
ATOM      1  C   UNL     1       1.074  -0.624  21.825  0.00  0.00    +0.252 C 
ATOM      2  O   UNL     1       1.091  -0.222  22.545  0.00  0.00    -0.471 OA
ENDBRANCH   3   2
BRANCH   5   6
ATOM      6  S   UNL     1       3.836   0.467  22.146  0.00  0.00    -0.113 S 
ATOM      7  C   UNL     1       4.551   0.448  22.558  0.00  0.00    +0.074 C 
ENDBRANCH   5   6
ENDBRANCH  11  10
ENDBRANCH  14  13
BRANCH  16  23
ATOM     23  C   UNL     1      -2.199   1.586  24.620  0.00  0.00    +0.269 C 
ATOM     24  O   UNL     1      -2.510   2.089  25.195  0.00  0.00    -0.271 OA
ATOM     25  N   UNL     1      -2.697   1.072  24.209  0.00  0.00    -0.195 NA
BRANCH  25  26
ATOM     26  C   UNL     1      -3.505   1.060  24.373  0.00  0.00    +0.179 C 
BRANCH  26  37
ATOM     37  C   UNL     1      -3.993   1.660  24.084  0.00  0.00    +0.281 C 
ATOM     38  N   UNL     1      -4.557   2.005  24.578  0.00  0.00    -0.086 NA
ATOM     39  O   UNL     1      -3.917   1.913  23.303  0.00  0.00    -0.270 OA
ENDBRANCH  26  37
BRANCH  26  27
ATOM     27  C   UNL     1      -3.825   0.450  24.826  0.00  0.00    +0.059 C 
BRANCH  27  28
ATOM     28  C   UNL     1      -3.911  -0.304  24.502  0.00  0.00    +0.001 A 
ATOM     29  C   UNL     1      -4.189  -0.478  23.745  0.00  0.00    +0.095 A 
ATOM     30  N   UNL     1      -4.184  -1.297  23.653  0.00  0.00    -0.244 NA
ATOM     31  C   UNL     1      -3.902  -1.630  24.353  0.00  0.00    +0.081 A 
ATOM     32  C   UNL     1      -3.733  -1.016  24.878  0.00  0.00    +0.015 A 
ATOM     33  C   UNL     1      -3.440  -1.186  25.630  0.00  0.00    +0.001 A 
ATOM     34  C   UNL     1      -3.315  -1.969  25.857  0.00  0.00    +0.000 A 
ATOM     35  C   UNL     1      -3.484  -2.582  25.333  0.00  0.00    +0.002 A 
ATOM     36  C   UNL     1      -3.777  -2.414  24.580  0.00  0.00    +0.019 A 
ENDBRANCH  27  28
ENDBRANCH  26  27
ENDBRANCH  25  26
ENDBRANCH  16  23
TORSDOF 9
ENDMDL
MODEL 2
REMARK VINA RESULT:      -8.7      1.599      2.895
REMARK  Name = 
REMARK  9 active torsions:
REMARK  status: ('A' for Active; 'I' for Inactive)
REMARK    1  A    between atoms: O_2  and  C_3
REMARK    2  A    between atoms: C_5  and  S_6
REMARK    3  A    between atoms: C_10  and  C_11
REMARK    4  A    between atoms: N_13  and  C_14
REMARK    5  A    between atoms: C_16  and  C_23
REMARK    6  A    between atoms: N_25  and  C_26
REMARK    7  A    between atoms: C_26  and  C_27
REMARK    8  A    between atoms: C_26  and  C_37
REMARK    9  A    between atoms: C_27  and  C_28
REMARK                            x       y       z     vdW  Elec       q    Type
REMARK                         _______ _______ _______ _____ _____    ______ ____
ROOT
ATOM     14  C   UNL     1      -0.186  -0.438  24.358  0.00  0.00    +0.131 C 
ATOM     15  C   UNL     1      -0.719   0.183  24.453  0.00  0.00    +0.064 C 
ATOM     16  C   UNL     1      -1.490   0.032  24.708  0.00  0.00    +0.200 C 
ATOM     17  O   UNL     1      -1.525   0.852  24.627  0.00  0.00    -0.216 OA
ATOM     18  C   UNL     1      -1.726  -0.743  24.866  0.00  0.00    +0.075 C 
ATOM     19  C   UNL     1      -1.193  -1.364  24.771  0.00  0.00    +0.187 C 
ATOM     20  O   UNL     1      -1.429  -2.139  24.930  0.00  0.00    -0.220 OA
ATOM     21  C   UNL     1      -0.422  -1.212  24.516  0.00  0.00    +0.202 C 
ATOM     22  O   UNL     1       0.111  -1.834  24.421  0.00  0.00    -0.219 OA
ENDROOT
BRANCH  14  13
ATOM     11  C   UNL     1       0.712   0.103  23.387  0.00  0.00    +0.268 C 
ATOM     12  O   UNL     1       0.071   0.340  22.925  0.00  0.00    -0.268 OA
ATOM     13  N   UNL     1       0.584  -0.286  24.103  0.00  0.00    -0.201 NA
BRANCH  11  10
ATOM      3  C   UNL     1       1.749  -0.055  22.415  0.00  0.00    +0.144 A 
ATOM      4  C   UNL     1       2.518   0.097  22.161  0.00  0.00    +0.043 A 
ATOM      5  C   UNL     1       3.021   0.560  22.623  0.00  0.00    +0.028 A 
ATOM      8  C   UNL     1       2.755   0.870  23.340  0.00  0.00    +0.006 A 
ATOM      9  C   UNL     1       1.986   0.718  23.594  0.00  0.00    +0.008 A 
ATOM     10  C   UNL     1       1.482   0.255  23.132  0.00  0.00    +0.089 A 
BRANCH   3   2
ATOM      1  C   UNL     1       1.447  -0.698  21.175  0.00  0.00    +0.252 C 
ATOM      2  O   UNL     1       1.245  -0.517  21.954  0.00  0.00    -0.471 OA
ENDBRANCH   3   2
BRANCH   5   6
ATOM      6  S   UNL     1       3.792   0.712  22.368  0.00  0.00    -0.113 S 
ATOM      7  C   UNL     1       4.428   0.572  22.875  0.00  0.00    +0.074 C 
ENDBRANCH   5   6
ENDBRANCH  11  10
ENDBRANCH  14  13
BRANCH  16  23
ATOM     23  C   UNL     1      -2.271   0.165  24.934  0.00  0.00    +0.269 C 
ATOM     24  O   UNL     1      -2.524  -0.049  25.689  0.00  0.00    -0.271 OA
ATOM     25  N   UNL     1      -2.801   0.512  24.405  0.00  0.00    -0.195 NA
BRANCH  25  26
ATOM     26  C   UNL     1      -3.583   0.645  24.631  0.00  0.00    +0.179 C 
BRANCH  26  37
ATOM     37  C   UNL     1      -4.161   0.080  24.466  0.00  0.00    +0.281 C 
ATOM     38  N   UNL     1      -4.689  -0.154  25.057  0.00  0.00    -0.086 NA
ATOM     39  O   UNL     1      -4.212  -0.252  23.714  0.00  0.00    -0.270 OA
ENDBRANCH  26  37
BRANCH  26  27
ATOM     27  C   UNL     1      -3.787   1.342  25.022  0.00  0.00    +0.059 C 
BRANCH  27  28
ATOM     28  C   UNL     1      -3.908   2.036  24.594  0.00  0.00    +0.001 A 
ATOM     29  C   UNL     1      -4.037   2.087  23.780  0.00  0.00    +0.095 A 
ATOM     30  N   UNL     1      -4.130   2.883  23.586  0.00  0.00    -0.244 NA
ATOM     31  C   UNL     1      -4.058   3.324  24.279  0.00  0.00    +0.081 A 
ATOM     32  C   UNL     1      -3.920   2.801  24.901  0.00  0.00    +0.015 A 
ATOM     33  C   UNL     1      -3.825   3.089  25.669  0.00  0.00    +0.001 A 
ATOM     34  C   UNL     1      -3.867   3.899  25.813  0.00  0.00    +0.000 A 
ATOM     35  C   UNL     1      -4.004   4.423  25.191  0.00  0.00    +0.002 A 
ATOM     36  C   UNL     1      -4.100   4.136  24.423  0.00  0.00    +0.019 A 
ENDBRANCH  27  28
ENDBRANCH  26  27
ENDBRANCH  25  26
ENDBRANCH  16  23
TORSDOF 9
ENDMDL
MODEL 3
REMARK VINA RESULT:      -8.4      2.343      6.188
REMARK  Name = 
REMARK  9 active torsions:
REMARK  status: ('A' for Active; 'I' for Inactive)
REMARK    1  A    between atoms: O_2  and  C_3
REMARK    2  A    between atoms: C_5  and  S_6
REMARK    3  A    between atoms: C_10  and  C_11
REMARK    4  A    between atoms: N_13  and  C_14
REMARK    5  A    between atoms: C_16  and  C_23
REMARK    6  A    between atoms: N_25  and  C_26
REMARK    7  A    between atoms: C_26  and  C_27
REMARK    8  A    between atoms: C_26  and  C_37
REMARK    9  A    between atoms: C_27  and  C_28
REMARK                            x       y       z     vdW  Elec       q    Type
REMARK                         _______ _______ _______ _____ _____    ______ ____
ROOT
ATOM     14  C   UNL     1      -1.119   0.525  24.757  0.00  0.00    +0.131 C 
ATOM     15  C   UNL     1      -0.647   0.647  24.093  0.00  0.00    +0.064 C 
ATOM     16  C   UNL     1      -0.088   0.081  23.873  0.00  0.00    +0.200 C 
ATOM     17  O   UNL     1       0.035   0.640  23.279  0.00  0.00    -0.216 OA
ATOM     18  C   UNL     1      -0.003  -0.608  24.319  0.00  0.00    +0.075 C 
ATOM     19  C   UNL     1      -0.475  -0.731  24.984  0.00  0.00    +0.187 C 
ATOM     20  O   UNL     1      -0.390  -1.420  25.430  0.00  0.00    -0.220 OA
ATOM     21  C   UNL     1      -1.034  -0.164  25.203  0.00  0.00    +0.202 C 
ATOM     22  O   UNL     1      -1.506  -0.286  25.868  0.00  0.00    -0.219 OA
ENDROOT
BRANCH  14  13
ATOM     11  C   UNL     1      -2.307   1.266  24.472  0.00  0.00    +0.268 C 
ATOM     12  O   UNL     1      -2.379   0.875  23.750  0.00  0.00    -0.268 OA
ATOM     13  N   UNL     1      -1.678   1.092  24.976  0.00  0.00    -0.201 NA
BRANCH  11  10
ATOM      3  C   UNL     1      -3.667   1.635  24.717  0.00  0.00    +0.144 A 
ATOM      4  C   UNL     1      -4.224   2.201  24.936  0.00  0.00    +0.043 A 
ATOM      5  C   UNL     1      -3.983   2.965  25.129  0.00  0.00    +0.028 A 
ATOM      8  C   UNL     1      -3.182   3.163  25.104  0.00  0.00    +0.006 A 
ATOM      9  C   UNL     1      -2.624   2.597  24.885  0.00  0.00    +0.008 A 
ATOM     10  C   UNL     1      -2.865   1.832  24.691  0.00  0.00    +0.089 A 
BRANCH   3   2
ATOM      1  C   UNL     1      -4.685   0.634  24.664  0.00  0.00    +0.252 C 
ATOM      2  O   UNL     1      -3.908   0.870  24.523  0.00  0.00    -0.471 OA
ENDBRANCH   3   2
BRANCH   5   6
ATOM      6  S   UNL     1      -4.541   3.532  25.349  0.00  0.00    -0.113 S 
ATOM      7  C   UNL     1      -4.458   3.938  26.062  0.00  0.00    +0.074 C 
ENDBRANCH   5   6
ENDBRANCH  11  10
ENDBRANCH  14  13
BRANCH  16  23
ATOM     23  C   UNL     1       0.513  -0.291  23.448  0.00  0.00    +0.269 C 
ATOM     24  O   UNL     1       0.537  -1.114  23.402  0.00  0.00    -0.271 OA
ATOM     25  N   UNL     1       1.090   0.160  23.068  0.00  0.00    -0.195 NA
BRANCH  25  26
ATOM     26  C   UNL     1       1.690  -0.212  22.642  0.00  0.00    +0.179 C 
BRANCH  26  37
ATOM     37  C   UNL     1       1.583  -0.383  21.842  0.00  0.00    +0.281 C 
ATOM     38  N   UNL     1       1.722  -1.147  21.562  0.00  0.00    -0.086 NA
ATOM     39  O   UNL     1       1.339   0.208  21.322  0.00  0.00    -0.270 OA
ENDBRANCH  26  37
BRANCH  26  27
ATOM     27  C   UNL     1       2.398  -0.413  23.016  0.00  0.00    +0.059 C 
BRANCH  27  28
ATOM     28  C   UNL     1       3.035   0.110  23.003  0.00  0.00    +0.001 A 
ATOM     29  C   UNL     1       3.016   0.891  22.736  0.00  0.00    +0.095 A 
ATOM     30  N   UNL     1       3.773   1.208  22.821  0.00  0.00    -0.244 NA
ATOM     31  C   UNL     1       4.259   0.624  23.141  0.00  0.00    +0.081 A 
ATOM     32  C   UNL     1       3.803  -0.055  23.253  0.00  0.00    +0.015 A 
ATOM     33  C   UNL     1       4.148  -0.735  23.568  0.00  0.00    +0.001 A 
ATOM     34  C   UNL     1       4.946  -0.738  23.772  0.00  0.00    +0.000 A 
ATOM     35  C   UNL     1       5.402  -0.059  23.660  0.00  0.00    +0.002 A 
ATOM     36  C   UNL     1       5.060   0.622  23.344  0.00  0.00    +0.019 A 
ENDBRANCH  27  28
ENDBRANCH  26  27
ENDBRANCH  25  26
ENDBRANCH  16  23
TORSDOF 9
ENDMDL
MODEL 4
REMARK VINA RESULT:      -8.1      1.792      2.184
REMARK  Name = 
REMARK  9 active torsions:
REMARK  status: ('A' for Active; 'I' for Inactive)
REMARK    1  A    between atoms: O_2  and  C_3
REMARK    2  A    between atoms: C_5  and  S_6
REMARK    3  A    between atoms: C_10  and  C_11
REMARK    4  A    between atoms: N_13  and  C_14
REMARK    5  A    between atoms: C_16  and  C_23
REMARK    6  A    between atoms: N_25  and  C_26
REMARK    7  A    between atoms: C_26  and  C_27
REMARK    8  A    between atoms: C_26  and  C_37
REMARK    9  A    between atoms: C_27  and  C_28
REMARK                            x       y       z     vdW  Elec       q    Type
REMARK                         _______ _______ _______ _____ _____    ______ ____
ROOT
ATOM     14  C   UNL     1       0.035   2.333  24.591  0.00  0.00    +0.131 C 
ATOM     15  C   UNL     1      -0.592   2.579  24.116  0.00  0.00    +0.064 C 
ATOM     16  C   UNL     1      -1.277   2.886  24.461  0.00  0.00    +0.200 C 
ATOM     17  O   UNL     1      -1.483   2.939  23.664  0.00  0.00    -0.216 OA
ATOM     18  C   UNL     1      -1.332   2.947  25.282  0.00  0.00    +0.075 C 
ATOM     19  C   UNL     1      -0.705   2.701  25.757  0.00  0.00    +0.187 C 
ATOM     20  O   UNL     1      -0.760   2.761  26.579  0.00  0.00    -0.220 OA
ATOM     21  C   UNL     1      -0.021   2.394  25.412  0.00  0.00    +0.202 C 
ATOM     22  O   UNL     1       0.607   2.147  25.888  0.00  0.00    -0.219 OA
ENDROOT
BRANCH  14  13
ATOM     11  C   UNL     1       0.681   1.327  23.809  0.00  0.00    +0.268 C 
ATOM     12  O   UNL     1      -0.038   0.935  23.717  0.00  0.00    -0.268 OA
ATOM     13  N   UNL     1       0.719   2.026  24.246  0.00  0.00    -0.201 NA
BRANCH  11  10
ATOM      3  C   UNL     1       1.348   0.277  23.103  0.00  0.00    +0.144 A 
ATOM      4  C   UNL     1       2.031  -0.029  22.758  0.00  0.00    +0.043 A 
ATOM      5  C   UNL     1       2.731   0.406  22.772  0.00  0.00    +0.028 A 
ATOM      8  C   UNL     1       2.748   1.148  23.131  0.00  0.00    +0.006 A 
ATOM      9  C   UNL     1       2.065   1.455  23.477  0.00  0.00    +0.008 A 
ATOM     10  C   UNL     1       1.364   1.020  23.463  0.00  0.00    +0.089 A 
BRANCH   3   2
ATOM      1  C   UNL     1       0.604  -0.860  22.661  0.00  0.00    +0.252 C 
ATOM      2  O   UNL     1       0.647  -0.158  23.090  0.00  0.00    -0.471 OA
ENDBRANCH   3   2
BRANCH   5   6
ATOM      6  S   UNL     1       3.415   0.099  22.426  0.00  0.00    -0.113 S 
ATOM      7  C   UNL     1       4.148   0.440  22.590  0.00  0.00    +0.074 C 
ENDBRANCH   5   6
ENDBRANCH  11  10
ENDBRANCH  14  13
BRANCH  16  23
ATOM     23  C   UNL     1      -2.031   3.211  24.529  0.00  0.00    +0.269 C 
ATOM     24  O   UNL     1      -2.140   3.920  24.938  0.00  0.00    -0.271 OA
ATOM     25  N   UNL     1      -2.678   2.828  24.189  0.00  0.00    -0.195 NA
BRANCH  25  26
ATOM     26  C   UNL     1      -3.433   3.153  24.258  0.00  0.00    +0.179 C 
BRANCH  26  37
ATOM     37  C   UNL     1      -3.724   3.646  23.663  0.00  0.00    +0.281 C 
ATOM     38  N   UNL     1      -3.958   4.417  23.846  0.00  0.00    -0.086 NA
ATOM     39  O   UNL     1      -3.782   3.370  22.889  0.00  0.00    -0.270 OA
ENDBRANCH  26  37
BRANCH  26  27
ATOM     27  C   UNL     1      -3.897   2.985  24.919  0.00  0.00    +0.059 C 
BRANCH  27  28
ATOM     28  C   UNL     1      -4.391   2.326  24.920  0.00  0.00    +0.001 A 
ATOM     29  C   UNL     1      -4.297   1.648  24.460  0.00  0.00    +0.095 A 
ATOM     30  N   UNL     1      -4.915   1.131  24.637  0.00  0.00    -0.244 NA
ATOM     31  C   UNL     1      -5.391   1.490  25.206  0.00  0.00    +0.081 A 
ATOM     32  C   UNL     1      -5.068   2.228  25.381  0.00  0.00    +0.015 A 
ATOM     33  C   UNL     1      -5.432   2.716  25.939  0.00  0.00    +0.001 A 
ATOM     34  C   UNL     1      -6.119   2.465  26.320  0.00  0.00    +0.000 A 
ATOM     35  C   UNL     1      -6.442   1.727  26.145  0.00  0.00    +0.002 A 
ATOM     36  C   UNL     1      -6.079   1.239  25.588  0.00  0.00    +0.019 A 
ENDBRANCH  27  28
ENDBRANCH  26  27
ENDBRANCH  25  26
ENDBRANCH  16  23
TORSDOF 9
ENDMDL
MODEL 5
REMARK VINA RESULT:      -7.4      3.387      5.392
REMARK  Name = 
REMARK  9 active torsions:
REMARK  status: ('A' for Active; 'I' for Inactive)
REMARK    1  A    between atoms: O_2  and  C_3
REMARK    2  A    between atoms: C_5  and  S_6
REMARK    3  A    between atoms: C_10  and  C_11
REMARK    4  A    between atoms: N_13  and  C_14
REMARK    5  A    between atoms: C_16  and  C_23
REMARK    6  A    between atoms: N_25  and  C_26
REMARK    7  A    between atoms: C_26  and  C_27
REMARK    8  A    between atoms: C_26  and  C_37
REMARK    9  A    between atoms: C_27  and  C_28
REMARK                            x       y       z     vdW  Elec       q    Type
REMARK                         _______ _______ _______ _____ _____    ______ ____
ROOT
ATOM     14  C   UNL     1      -3.695   0.687  23.710  0.00  0.00    +0.131 C 
ATOM     15  C   UNL     1      -4.113   1.093  24.293  0.00  0.00    +0.064 C 
ATOM     16  C   UNL     1      -4.117   1.918  24.301  0.00  0.00    +0.200 C 
ATOM     17  O   UNL     1      -4.591   1.767  24.959  0.00  0.00    -0.216 OA
ATOM     18  C   UNL     1      -3.700   2.337  23.724  0.00  0.00    +0.075 C 
ATOM     19  C   UNL     1      -3.282   1.932  23.141  0.00  0.00    +0.187 C 
ATOM     20  O   UNL     1      -2.865   2.351  22.565  0.00  0.00    -0.220 OA
ATOM     21  C   UNL     1      -3.279   1.106  23.134  0.00  0.00    +0.202 C 
ATOM     22  O   UNL     1      -2.860   0.701  22.550  0.00  0.00    -0.219 OA
ENDROOT
BRANCH  14  13
ATOM     11  C   UNL     1      -3.419  -0.555  24.359  0.00  0.00    +0.268 C 
ATOM     12  O   UNL     1      -3.148  -0.148  25.023  0.00  0.00    -0.268 OA
ATOM     13  N   UNL     1      -3.692  -0.138  23.702  0.00  0.00    -0.201 NA
BRANCH  11  10
ATOM      3  C   UNL     1      -2.731  -1.793  24.556  0.00  0.00    +0.144 A 
ATOM      4  C   UNL     1      -2.728  -2.617  24.549  0.00  0.00    +0.043 A 
ATOM      5  C   UNL     1      -3.410  -3.030  24.337  0.00  0.00    +0.028 A 
ATOM      8  C   UNL     1      -4.095  -2.618  24.133  0.00  0.00    +0.006 A 
ATOM      9  C   UNL     1      -4.098  -1.793  24.140  0.00  0.00    +0.008 A 
ATOM     10  C   UNL     1      -3.416  -1.380  24.352  0.00  0.00    +0.089 A 
BRANCH   3   2
ATOM      1  C   UNL     1      -1.342  -1.784  24.891  0.00  0.00    +0.252 C 
ATOM      2  O   UNL     1      -2.049  -1.379  24.768  0.00  0.00    -0.471 OA
ENDBRANCH   3   2
BRANCH   5   6
ATOM      6  S   UNL     1      -3.407  -3.855  24.330  0.00  0.00    -0.113 S 
ATOM      7  C   UNL     1      -3.806  -4.263  23.734  0.00  0.00    +0.074 C 
ENDBRANCH   5   6
ENDBRANCH  11  10
ENDBRANCH  14  13
BRANCH  16  23
ATOM     23  C   UNL     1      -4.284   2.690  24.537  0.00  0.00    +0.269 C 
ATOM     24  O   UNL     1      -4.759   3.172  24.065  0.00  0.00    -0.271 OA
ATOM     25  N   UNL     1      -3.977   2.982  25.245  0.00  0.00    -0.195 NA
BRANCH  25  26
ATOM     26  C   UNL     1      -4.144   3.754  25.481  0.00  0.00    +0.179 C 
BRANCH  26  37
ATOM     37  C   UNL     1      -4.868   3.928  25.838  0.00  0.00    +0.281 C 
ATOM     38  N   UNL     1      -5.351   4.518  25.522  0.00  0.00    -0.086 NA
ATOM     39  O   UNL     1      -5.109   3.512  26.507  0.00  0.00    -0.270 OA
ENDBRANCH  26  37
BRANCH  26  27
ATOM     27  C   UNL     1      -3.589   4.352  25.362  0.00  0.00    +0.059 C 
BRANCH  27  28
ATOM     28  C   UNL     1      -2.818   4.261  25.639  0.00  0.00    +0.001 A 
ATOM     29  C   UNL     1      -2.587   3.818  26.296  0.00  0.00    +0.095 A 
ATOM     30  N   UNL     1      -1.769   3.880  26.371  0.00  0.00    -0.244 NA
ATOM     31  C   UNL     1      -1.492   4.361  25.761  0.00  0.00    +0.081 A 
ATOM     32  C   UNL     1      -2.141   4.596  25.308  0.00  0.00    +0.015 A 
ATOM     33  C   UNL     1      -2.030   5.086  24.653  0.00  0.00    +0.001 A 
ATOM     34  C   UNL     1      -1.272   5.339  24.451  0.00  0.00    +0.000 A 
ATOM     35  C   UNL     1      -0.624   5.104  24.904  0.00  0.00    +0.002 A 
ATOM     36  C   UNL     1      -0.733   4.615  25.559  0.00  0.00    +0.019 A 
ENDBRANCH  27  28
ENDBRANCH  26  27
ENDBRANCH  25  26
ENDBRANCH  16  23
TORSDOF 9
ENDMDL
MODEL 6
REMARK VINA RESULT:      -6.8      2.408      4.910
REMARK  Name = 
REMARK  9 active torsions:
REMARK  status: ('A' for Active; 'I' for Inactive)
REMARK    1  A    between atoms: O_2  and  C_3
REMARK    2  A    between atoms: C_5  and  S_6
REMARK    3  A    between atoms: C_10  and  C_11
REMARK    4  A    between atoms: N_13  and  C_14
REMARK    5  A    between atoms: C_16  and  C_23
REMARK    6  A    between atoms: N_25  and  C_26
REMARK    7  A    between atoms: C_26  and  C_27
REMARK    8  A    between atoms: C_26  and  C_37
REMARK    9  A    between atoms: C_27  and  C_28
REMARK                            x       y       z     vdW  Elec       q    Type
REMARK                         _______ _______ _______ _____ _____    ______ ____
ROOT
ATOM     14  C   UNL     1      -1.170   0.329  24.086  0.00  0.00    +0.131 C 
ATOM     15  C   UNL     1      -1.652   0.994  24.165  0.00  0.00    +0.064 C 
ATOM     16  C   UNL     1      -1.315   1.746  24.209  0.00  0.00    +0.200 C 
ATOM     17  O   UNL     1      -2.113   1.944  24.267  0.00  0.00    -0.216 OA
ATOM     18  C   UNL     1      -0.495   1.832  24.173  0.00  0.00    +0.075 C 
ATOM     19  C   UNL     1      -0.013   1.168  24.093  0.00  0.00    +0.187 C 
ATOM     20  O   UNL     1       0.807   1.254  24.056  0.00  0.00    -0.220 OA
ATOM     21  C   UNL     1      -0.351   0.416  24.049  0.00  0.00    +0.202 C 
ATOM     22  O   UNL     1       0.131  -0.249  23.970  0.00  0.00    -0.219 OA
ENDROOT
BRANCH  14  13
ATOM     11  C   UNL     1      -2.010  -0.684  24.643  0.00  0.00    +0.268 C 
ATOM     12  O   UNL     1      -2.174  -0.195  25.286  0.00  0.00    -0.268 OA
ATOM     13  N   UNL     1      -1.508  -0.423  24.042  0.00  0.00    -0.201 NA
BRANCH  11  10
ATOM      3  C   UNL     1      -3.167  -1.517  24.539  0.00  0.00    +0.144 A 
ATOM      4  C   UNL     1      -3.505  -2.268  24.496  0.00  0.00    +0.043 A 
ATOM      5  C   UNL     1      -3.024  -2.938  24.512  0.00  0.00    +0.028 A 
ATOM      8  C   UNL     1      -2.205  -2.857  24.573  0.00  0.00    +0.006 A 
ATOM      9  C   UNL     1      -1.868  -2.106  24.616  0.00  0.00    +0.008 A 
ATOM     10  C   UNL     1      -2.348  -1.435  24.599  0.00  0.00    +0.089 A 
BRANCH   3   2
ATOM      1  C   UNL     1      -4.454  -0.919  24.366  0.00  0.00    +0.252 C 
ATOM      2  O   UNL     1      -3.647  -0.846  24.523  0.00  0.00    -0.471 OA
ENDBRANCH   3   2
BRANCH   5   6
ATOM      6  S   UNL     1      -3.362  -3.689  24.469  0.00  0.00    -0.113 S 
ATOM      7  C   UNL     1      -3.699  -3.950  23.762  0.00  0.00    +0.074 C 
ENDBRANCH   5   6
ENDBRANCH  11  10
ENDBRANCH  14  13
BRANCH  16  23
ATOM     23  C   UNL     1      -1.255   2.566  24.273  0.00  0.00    +0.269 C 
ATOM     24  O   UNL     1      -0.946   3.006  23.647  0.00  0.00    -0.271 OA
ATOM     25  N   UNL     1      -1.503   2.946  24.961  0.00  0.00    -0.195 NA
BRANCH  25  26
ATOM     26  C   UNL     1      -1.444   3.766  25.025  0.00  0.00    +0.179 C 
BRANCH  26  37
ATOM     37  C   UNL     1      -0.710   4.115  25.175  0.00  0.00    +0.281 C 
ATOM     38  N   UNL     1      -0.460   4.756  24.720  0.00  0.00    -0.086 NA
ATOM     39  O   UNL     1      -0.230   3.823  25.777  0.00  0.00    -0.270 OA
ENDBRANCH  26  37
BRANCH  26  27
ATOM     27  C   UNL     1      -2.115   4.237  24.939  0.00  0.00    +0.059 C 
BRANCH  27  28
ATOM     28  C   UNL     1      -2.722   4.195  25.496  0.00  0.00    +0.001 A 
ATOM     29  C   UNL     1      -2.633   4.233  26.315  0.00  0.00    +0.095 A 
ATOM     30  N   UNL     1      -3.381   4.170  26.657  0.00  0.00    -0.244 NA
ATOM     31  C   UNL     1      -3.933   4.093  26.049  0.00  0.00    +0.081 A 
ATOM     32  C   UNL     1      -3.526   4.109  25.331  0.00  0.00    +0.015 A 
ATOM     33  C   UNL     1      -3.940   4.043  24.621  0.00  0.00    +0.001 A 
ATOM     34  C   UNL     1      -4.761   3.960  24.628  0.00  0.00    +0.000 A 
ATOM     35  C   UNL     1      -5.167   3.945  25.345  0.00  0.00    +0.002 A 
ATOM     36  C   UNL     1      -4.754   4.011  26.056  0.00  0.00    +0.019 A 
ENDBRANCH  27  28
ENDBRANCH  26  27
ENDBRANCH  25  26
ENDBRANCH  16  23
TORSDOF 9
ENDMDL
MODEL 7
REMARK VINA RESULT:      -6.5      2.428      4.249
REMARK  Name = 
REMARK  9 active torsions:
REMARK  status: ('A' for Active; 'I' for Inactive)
REMARK    1  A    between atoms: O_2  and  C_3
REMARK    2  A    between atoms: C_5  and  S_6
REMARK    3  A    between atoms: C_10  and  C_11
REMARK    4  A    between atoms: N_13  and  C_14
REMARK    5  A    between atoms: C_16  and  C_23
REMARK    6  A    between atoms: N_25  and  C_26
REMARK    7  A    between atoms: C_26  and  C_27
REMARK    8  A    between atoms: C_26  and  C_37
REMARK    9  A    between atoms: C_27  and  C_28
REMARK                            x       y       z     vdW  Elec       q    Type
REMARK                         _______ _______ _______ _____ _____    ______ ____
ROOT
ATOM     14  C   UNL     1      -0.352   1.845  24.213  0.00  0.00    +0.131 C 
ATOM     15  C   UNL     1      -0.871   1.220  24.356  0.00  0.00    +0.064 C 
ATOM     16  C   UNL     1      -0.606   0.440  24.296  0.00  0.00    +0.200 C 
ATOM     17  O   UNL     1      -1.393   0.308  24.504  0.00  0.00    -0.216 OA
ATOM     18  C   UNL     1       0.179   0.287  24.093  0.00  0.00    +0.075 C 
ATOM     19  C   UNL     1       0.698   0.911  23.950  0.00  0.00    +0.187 C 
ATOM     20  O   UNL     1       1.483   0.758  23.747  0.00  0.00    -0.220 OA
ATOM     21  C   UNL     1       0.432   1.691  24.010  0.00  0.00    +0.202 C 
ATOM     22  O   UNL     1       0.952   2.315  23.867  0.00  0.00    -0.219 OA
ENDROOT
BRANCH  14  13
ATOM     11  C   UNL     1      -0.859   2.922  25.003  0.00  0.00    +0.268 C 
ATOM     12  O   UNL     1      -0.835   2.442  25.673  0.00  0.00    -0.268 OA
ATOM     13  N   UNL     1      -0.617   2.624  24.273  0.00  0.00    -0.201 NA
BRANCH  11  10
ATOM      3  C   UNL     1      -1.902   3.855  25.291  0.00  0.00    +0.144 A 
ATOM      4  C   UNL     1      -2.168   4.634  25.351  0.00  0.00    +0.043 A 
ATOM      5  C   UNL     1      -1.656   5.258  25.183  0.00  0.00    +0.028 A 
ATOM      8  C   UNL     1      -0.878   5.104  24.955  0.00  0.00    +0.006 A 
ATOM      9  C   UNL     1      -0.613   4.325  24.895  0.00  0.00    +0.008 A 
ATOM     10  C   UNL     1      -1.124   3.700  25.063  0.00  0.00    +0.089 A 
BRANCH   3   2
ATOM      1  C   UNL     1      -3.206   3.380  25.635  0.00  0.00    +0.252 C 
ATOM      2  O   UNL     1      -2.414   3.230  25.459  0.00  0.00    -0.471 OA
ENDBRANCH   3   2
BRANCH   5   6
ATOM      6  S   UNL     1      -1.922   6.037  25.243  0.00  0.00    -0.113 S 
ATOM      7  C   UNL     1      -1.962   6.512  24.569  0.00  0.00    +0.074 C 
ENDBRANCH   5   6
ENDBRANCH  11  10
ENDBRANCH  14  13
BRANCH  16  23
ATOM     23  C   UNL     1      -0.614  -0.384  24.309  0.00  0.00    +0.269 C 
ATOM     24  O   UNL     1      -0.226  -0.809  23.718  0.00  0.00    -0.271 OA
ATOM     25  N   UNL     1      -1.011  -0.784  24.911  0.00  0.00    -0.195 NA
BRANCH  25  26
ATOM     26  C   UNL     1      -1.019  -1.608  24.924  0.00  0.00    +0.179 C 
BRANCH  26  37
ATOM     37  C   UNL     1      -0.446  -2.020  25.352  0.00  0.00    +0.281 C 
ATOM     38  N   UNL     1      -0.078  -2.680  25.018  0.00  0.00    -0.086 NA
ATOM     39  O   UNL     1      -0.241  -1.773  26.110  0.00  0.00    -0.270 OA
ENDBRANCH  26  37
BRANCH  26  27
ATOM     27  C   UNL     1      -1.600  -2.022  24.508  0.00  0.00    +0.059 C 
BRANCH  27  28
ATOM     28  C   UNL     1      -2.354  -2.109  24.830  0.00  0.00    +0.001 A 
ATOM     29  C   UNL     1      -2.547  -2.074  25.632  0.00  0.00    +0.095 A 
ATOM     30  N   UNL     1      -3.360  -2.190  25.704  0.00  0.00    -0.244 NA
ATOM     31  C   UNL     1      -3.670  -2.298  24.948  0.00  0.00    +0.081 A 
ATOM     32  C   UNL     1      -3.049  -2.248  24.408  0.00  0.00    +0.015 A 
ATOM     33  C   UNL     1      -3.197  -2.334  23.601  0.00  0.00    +0.001 A 
ATOM     34  C   UNL     1      -3.965  -2.471  23.334  0.00  0.00    +0.000 A 
ATOM     35  C   UNL     1      -4.586  -2.521  23.874  0.00  0.00    +0.002 A 
ATOM     36  C   UNL     1      -4.440  -2.435  24.681  0.00  0.00    +0.019 A 
ENDBRANCH  27  28
ENDBRANCH  26  27
ENDBRANCH  25  26
ENDBRANCH  16  23
TORSDOF 9
ENDMDL
MODEL 8
REMARK VINA RESULT:      -6.4      2.758      4.344
REMARK  Name = 
REMARK  9 active torsions:
REMARK  status: ('A' for Active; 'I' for Inactive)
REMARK    1  A    between atoms: O_2  and  C_3
REMARK    2  A    between atoms: C_5  and  S_6
REMARK    3  A    between atoms: C_10  and  C_11
REMARK    4  A    between atoms: N_13  and  C_14
REMARK    5  A    between atoms: C_16  and  C_23
REMARK    6  A    between atoms: N_25  and  C_26
REMARK    7  A    between atoms: C_26  and  C_27
REMARK    8  A    between atoms: C_26  and  C_37
REMARK    9  A    between atoms: C_27  and  C_28
REMARK                            x       y       z     vdW  Elec       q    Type
REMARK                         _______ _______ _______ _____ _____    ______ ____
ROOT
ATOM     14  C   UNL     1      -3.724   2.134  24.801  0.00  0.00    +0.131 C 
ATOM     15  C   UNL     1      -3.327   1.413  24.751  0.00  0.00    +0.064 C 
ATOM     16  C   UNL     1      -3.747   0.705  24.811  0.00  0.00    +0.200 C 
ATOM     17  O   UNL     1      -2.983   0.410  24.710  0.00  0.00    -0.216 OA
ATOM     18  C   UNL     1      -4.565   0.719  24.919  0.00  0.00    +0.075 C 
ATOM     19  C   UNL     1      -4.962   1.440  24.969  0.00  0.00    +0.187 C 
ATOM     20  O   UNL     1      -5.780   1.454  25.078  0.00  0.00    -0.220 OA
ATOM     21  C   UNL     1      -4.541   2.147  24.910  0.00  0.00    +0.202 C 
ATOM     22  O   UNL     1      -4.939   2.869  24.959  0.00  0.00    -0.219 OA
ENDROOT
BRANCH  14  13
ATOM     11  C   UNL     1      -2.616   2.950  25.184  0.00  0.00    +0.268 C 
ATOM     12  O   UNL     1      -2.348   2.353  25.685  0.00  0.00    -0.268 OA
ATOM     13  N   UNL     1      -3.304   2.841  24.742  0.00  0.00    -0.201 NA
BRANCH  11  10
ATOM      3  C   UNL     1      -1.436   3.661  24.800  0.00  0.00    +0.144 A 
ATOM      4  C   UNL     1      -1.016   4.368  24.741  0.00  0.00    +0.043 A 
ATOM      5  C   UNL     1      -1.354   5.072  25.006  0.00  0.00    +0.028 A 
ATOM      8  C   UNL     1      -2.113   5.069  25.330  0.00  0.00    +0.006 A 
ATOM      9  C   UNL     1      -2.533   4.362  25.389  0.00  0.00    +0.008 A 
ATOM     10  C   UNL     1      -2.196   3.657  25.125  0.00  0.00    +0.089 A 
BRANCH   3   2
ATOM      1  C   UNL     1      -0.315   2.944  24.279  0.00  0.00    +0.252 C 
ATOM      2  O   UNL     1      -1.099   2.956  24.536  0.00  0.00    -0.471 OA
ENDBRANCH   3   2
BRANCH   5   6
ATOM      6  S   UNL     1      -0.934   5.780  24.946  0.00  0.00    -0.113 S 
ATOM      7  C   UNL     1      -1.308   6.460  24.667  0.00  0.00    +0.074 C 
ENDBRANCH   5   6
ENDBRANCH  11  10
ENDBRANCH  14  13
BRANCH  16  23
ATOM     23  C   UNL     1      -3.901  -0.105  24.835  0.00  0.00    +0.269 C 
ATOM     24  O   UNL     1      -4.461  -0.402  25.363  0.00  0.00    -0.271 OA
ATOM     25  N   UNL     1      -3.497  -0.618  24.331  0.00  0.00    -0.195 NA
BRANCH  25  26
ATOM     26  C   UNL     1      -3.651  -1.428  24.356  0.00  0.00    +0.179 C 
BRANCH  26  37
ATOM     37  C   UNL     1      -4.238  -1.750  23.872  0.00  0.00    +0.281 C 
ATOM     38  N   UNL     1      -4.764  -2.308  24.179  0.00  0.00    -0.086 NA
ATOM     39  O   UNL     1      -4.299  -1.515  23.085  0.00  0.00    -0.270 OA
ENDBRANCH  26  37
BRANCH  26  27
ATOM     27  C   UNL     1      -3.220  -1.915  24.862  0.00  0.00    +0.059 C 
BRANCH  27  28
ATOM     28  C   UNL     1      -2.504  -2.239  24.614  0.00  0.00    +0.001 A 
ATOM     29  C   UNL     1      -2.394  -2.729  23.959  0.00  0.00    +0.095 A 
ATOM     30  N   UNL     1      -1.594  -2.922  23.916  0.00  0.00    -0.244 NA
ATOM     31  C   UNL     1      -1.209  -2.553  24.544  0.00  0.00    +0.081 A 
ATOM     32  C   UNL     1      -1.771  -2.130  24.976  0.00  0.00    +0.015 A 
ATOM     33  C   UNL     1      -1.542  -1.701  25.642  0.00  0.00    +0.001 A 
ATOM     34  C   UNL     1      -0.752  -1.694  25.878  0.00  0.00    +0.000 A 
ATOM     35  C   UNL     1      -0.190  -2.116  25.447  0.00  0.00    +0.002 A 
ATOM     36  C   UNL     1      -0.417  -2.546  24.780  0.00  0.00    +0.019 A 
ENDBRANCH  27  28
ENDBRANCH  26  27
ENDBRANCH  25  26
ENDBRANCH  16  23
TORSDOF 9
ENDMDL
