MODEL 1
REMARK VINA RESULT:     -14.0      0.000      0.000
REMARK  Name = 
REMARK  5 active torsions:
REMARK  status: ('A' for Active; 'I' for Inactive)
REMARK    1  A    between atoms: S_2  and  C_3
REMARK    2  A    between atoms: C_6  and  C_9
REMARK    3  A    between atoms: N_17  and  C_18
REMARK    4  A    between atoms: C_18  and  C_19
REMARK    5  A    between atoms: C_22  and  C_23
REMARK                            x       y       z     vdW  Elec       q    Type
REMARK                         _______ _______ _______ _____ _____    ______ ____
ROOT
ATOM      9  C   UNL     1      -4.398   0.724  24.971  0.00  0.00    +0.056 A 
ATOM     10  C   UNL     1      -5.198   0.870  25.114  0.00  0.00    +0.006 A 
ATOM     11  C   UNL     1      -5.462   1.643  25.229  0.00  0.00    +0.013 A 
ATOM     12  C   UNL     1      -4.927   2.270  25.201  0.00  0.00    +0.041 A 
ATOM     13  C   UNL     1      -4.895   3.185  25.281  0.00  0.00    +0.054 C 
ATOM     14  C   UNL     1      -5.306   3.742  25.400  0.00  0.00    +0.011 C 
ATOM     15  C   UNL     1      -4.517   3.594  25.258  0.00  0.00    +0.039 C 
ATOM     16  C   UNL     1      -3.542   3.620  25.102  0.00  0.00    +0.074 C 
ATOM     17  N   UNL     1      -3.394   2.804  25.002  0.00  0.00    -0.266 NA
ATOM     26  C   UNL     1      -3.953   3.226  25.132  0.00  0.00    +0.078 C 
ATOM     27  C   UNL     1      -4.541   2.638  25.173  0.00  0.00    +0.110 C 
ATOM     28  N   UNL     1      -4.128   2.124  25.058  0.00  0.00    -0.299 N 
ATOM     29  C   UNL     1      -3.863   1.351  24.942  0.00  0.00    +0.261 A 
ATOM     30  O   UNL     1      -3.064   1.206  24.799  0.00  0.00    -0.267 OA
ENDROOT
BRANCH   9   6
ATOM      3  C   UNL     1      -3.607  -1.595  24.627  0.00  0.00    +0.025 A 
ATOM      4  C   UNL     1      -3.882  -1.155  23.986  0.00  0.00    +0.006 A 
ATOM      5  C   UNL     1      -4.146  -0.381  24.101  0.00  0.00    +0.001 A 
ATOM      6  C   UNL     1      -4.135  -0.049  24.856  0.00  0.00    +0.005 A 
ATOM      7  C   UNL     1      -3.860  -0.490  25.496  0.00  0.00    +0.001 A 
ATOM      8  C   UNL     1      -3.596  -1.263  25.382  0.00  0.00    +0.006 A 
BRANCH   3   2
ATOM      1  C   UNL     1      -2.535  -2.530  24.495  0.00  0.00    +0.074 C 
ATOM      2  S   UNL     1      -3.343  -2.369  24.513  0.00  0.00    -0.113 S 
ENDBRANCH   3   2
ENDBRANCH   9   6
BRANCH  17  18
ATOM     18  C   UNL     1      -2.969   2.109  24.868  0.00  0.00    +0.138 C 
BRANCH  18  19
ATOM     19  C   UNL     1      -2.150   2.138  24.778  0.00  0.00    +0.139 A 
ATOM     20  C   UNL     1      -1.742   2.184  24.063  0.00  0.00    +0.037 A 
ATOM     21  C   UNL     1      -0.934   2.201  24.232  0.00  0.00    +0.038 A 
ATOM     22  C   UNL     1      -0.843   2.165  25.050  0.00  0.00    +0.156 A 
ATOM     25  O   UNL     1      -1.594   2.126  25.389  0.00  0.00    -0.458 OA
BRANCH  22  23
ATOM     23  C   UNL     1      -0.126   2.168  25.459  0.00  0.00    +0.246 C 
ATOM     24  O   UNL     1       0.577   2.004  25.061  0.00  0.00    -0.212 OA
ENDBRANCH  22  23
ENDBRANCH  18  19
ENDBRANCH  17  18
TORSDOF 5
ENDMDL
MODEL 2
REMARK VINA RESULT:     -12.9      1.414      3.405
REMARK  Name = 
REMARK  5 active torsions:
REMARK  status: ('A' for Active; 'I' for Inactive)
REMARK    1  A    between atoms: S_2  and  C_3
REMARK    2  A    between atoms: C_6  and  C_9
REMARK    3  A    between atoms: N_17  and  C_18
REMARK    4  A    between atoms: C_18  and  C_19
REMARK    5  A    between atoms: C_22  and  C_23
REMARK                            x       y       z     vdW  Elec       q    Type
REMARK                         _______ _______ _______ _____ _____    ______ ____
ROOT
ATOM      9  C   UNL     1      -2.814   2.697  25.019  0.00  0.00    +0.056 A 
ATOM     10  C   UNL     1      -3.052   3.467  25.197  0.00  0.00    +0.006 A 
ATOM     11  C   UNL     1      -3.848   3.629  25.342  0.00  0.00    +0.013 A 
ATOM     12  C   UNL     1      -4.405   3.022  25.310  0.00  0.00    +0.041 A 
ATOM     13  C   UNL     1      -5.306   2.874  25.413  0.00  0.00    +0.054 C 
ATOM     14  C   UNL     1      -5.905   3.208  25.562  0.00  0.00    +0.011 C 
ATOM     15  C   UNL     1      -5.666   2.449  25.387  0.00  0.00    +0.039 C 
ATOM     16  C   UNL     1      -5.577   1.484  25.194  0.00  0.00    +0.074 C 
ATOM     17  N   UNL     1      -4.752   1.443  25.067  0.00  0.00    -0.266 NA
ATOM     26  C   UNL     1      -5.236   1.940  25.230  0.00  0.00    +0.078 C 
ATOM     27  C   UNL     1      -4.724   2.594  25.277  0.00  0.00    +0.110 C 
ATOM     28  N   UNL     1      -4.167   2.252  25.133  0.00  0.00    -0.299 N 
ATOM     29  C   UNL     1      -3.371   2.090  24.987  0.00  0.00    +0.261 A 
ATOM     30  O   UNL     1      -3.133   1.320  24.810  0.00  0.00    -0.267 OA
ENDROOT
BRANCH   9   6
ATOM      3  C   UNL     1      -0.427   2.213  24.581  0.00  0.00    +0.025 A 
ATOM      4  C   UNL     1      -0.720   2.177  25.352  0.00  0.00    +0.006 A 
ATOM      5  C   UNL     1      -1.516   2.339  25.498  0.00  0.00    +0.001 A 
ATOM      6  C   UNL     1      -2.018   2.536  24.874  0.00  0.00    +0.005 A 
ATOM      7  C   UNL     1      -1.725   2.572  24.104  0.00  0.00    +0.001 A 
ATOM      8  C   UNL     1      -0.929   2.410  23.957  0.00  0.00    +0.006 A 
BRANCH   3   2
ATOM      1  C   UNL     1       0.583   1.361  24.040  0.00  0.00    +0.074 C 
ATOM      2  S   UNL     1       0.370   2.052  24.435  0.00  0.00    -0.113 S 
ENDBRANCH   3   2
ENDBRANCH   9   6
BRANCH  17  18
ATOM     18  C   UNL     1      -4.015   1.112  24.899  0.00  0.00    +0.138 C 
BRANCH  18  19
ATOM     19  C   UNL     1      -3.944   0.298  24.787  0.00  0.00    +0.139 A 
ATOM     20  C   UNL     1      -4.043  -0.104  24.073  0.00  0.00    +0.037 A 
ATOM     21  C   UNL     1      -3.922  -0.908  24.214  0.00  0.00    +0.038 A 
ATOM     22  C   UNL     1      -3.749  -1.003  25.015  0.00  0.00    +0.156 A 
ATOM     25  O   UNL     1      -3.762  -0.259  25.369  0.00  0.00    -0.458 OA
BRANCH  22  23
ATOM     23  C   UNL     1      -3.590  -1.718  25.395  0.00  0.00    +0.246 C 
ATOM     24  O   UNL     1      -3.575  -2.421  24.963  0.00  0.00    -0.212 OA
ENDBRANCH  22  23
ENDBRANCH  18  19
ENDBRANCH  17  18
TORSDOF 5
ENDMDL
MODEL 3
REMARK VINA RESULT:     -12.9      1.686      3.732
REMARK  Name = 
REMARK  5 active torsions:
REMARK  status: ('A' for Active; 'I' for Inactive)
REMARK    1  A    between atoms: S_2  and  C_3
REMARK    2  A    between atoms: C_6  and  C_9
REMARK    3  A    between atoms: N_17  and  C_18
REMARK    4  A    between atoms: C_18  and  C_19
REMARK    5  A    between atoms: C_22  and  C_23
REMARK                            x       y       z     vdW  Elec       q    Type
REMARK                         _______ _______ _______ _____ _____    ______ ____
ROOT
ATOM      9  C   UNL     1      -3.848  -0.184  24.685  0.00  0.00    +0.056 A 
ATOM     10  C   UNL     1      -4.268  -0.870  24.502  0.00  0.00    +0.006 A 
ATOM     11  C   UNL     1      -3.869  -1.587  24.412  0.00  0.00    +0.013 A 
ATOM     12  C   UNL     1      -3.050  -1.617  24.503  0.00  0.00    +0.041 A 
ATOM     13  C   UNL     1      -2.350  -2.211  24.472  0.00  0.00    +0.054 C 
ATOM     14  C   UNL     1      -2.207  -2.889  24.358  0.00  0.00    +0.011 C 
ATOM     15  C   UNL     1      -1.796  -2.209  24.538  0.00  0.00    +0.039 C 
ATOM     16  C   UNL     1      -1.132  -1.509  24.752  0.00  0.00    +0.074 C 
ATOM     17  N   UNL     1      -1.640  -0.850  24.819  0.00  0.00    -0.266 NA
ATOM     26  C   UNL     1      -1.696  -1.546  24.678  0.00  0.00    +0.078 C 
ATOM     27  C   UNL     1      -2.521  -1.581  24.573  0.00  0.00    +0.110 C 
ATOM     28  N   UNL     1      -2.630  -0.930  24.686  0.00  0.00    -0.299 N 
ATOM     29  C   UNL     1      -3.029  -0.214  24.776  0.00  0.00    +0.261 A 
ATOM     30  O   UNL     1      -2.608   0.472  24.959  0.00  0.00    -0.267 OA
ENDROOT
BRANCH   9   6
ATOM      3  C   UNL     1      -5.047   1.963  24.958  0.00  0.00    +0.025 A 
ATOM      4  C   UNL     1      -4.626   1.812  24.265  0.00  0.00    +0.006 A 
ATOM      5  C   UNL     1      -4.226   1.095  24.174  0.00  0.00    +0.001 A 
ATOM      6  C   UNL     1      -4.247   0.532  24.775  0.00  0.00    +0.005 A 
ATOM      7  C   UNL     1      -4.669   0.683  25.468  0.00  0.00    +0.001 A 
ATOM      8  C   UNL     1      -5.069   1.399  25.560  0.00  0.00    +0.006 A 
BRANCH   3   2
ATOM      1  C   UNL     1      -5.100   3.294  25.474  0.00  0.00    +0.074 C 
ATOM      2  S   UNL     1      -5.448   2.679  25.049  0.00  0.00    -0.113 S 
ENDBRANCH   3   2
ENDBRANCH   9   6
BRANCH  17  18
ATOM     18  C   UNL     1      -1.875  -0.068  24.942  0.00  0.00    +0.138 C 
BRANCH  18  19
ATOM     19  C   UNL     1      -1.307   0.522  25.043  0.00  0.00    +0.139 A 
ATOM     20  C   UNL     1      -1.015   0.795  25.764  0.00  0.00    +0.037 A 
ATOM     21  C   UNL     1      -0.459   1.384  25.606  0.00  0.00    +0.038 A 
ATOM     22  C   UNL     1      -0.408   1.475  24.788  0.00  0.00    +0.156 A 
ATOM     25  O   UNL     1      -0.932   0.942  24.439  0.00  0.00    -0.458 OA
BRANCH  22  23
ATOM     23  C   UNL     1       0.082   2.005  24.388  0.00  0.00    +0.246 C 
ATOM     24  O   UNL     1       0.902   1.944  24.459  0.00  0.00    -0.212 OA
ENDBRANCH  22  23
ENDBRANCH  18  19
ENDBRANCH  17  18
TORSDOF 5
ENDMDL
MODEL 4
REMARK VINA RESULT:     -12.9      1.650      3.417
REMARK  Name = 
REMARK  5 active torsions:
REMARK  status: ('A' for Active; 'I' for Inactive)
REMARK    1  A    between atoms: S_2  and  C_3
REMARK    2  A    between atoms: C_6  and  C_9
REMARK    3  A    between atoms: N_17  and  C_18
REMARK    4  A    between atoms: C_18  and  C_19
REMARK    5  A    between atoms: C_22  and  C_23
REMARK                            x       y       z     vdW  Elec       q    Type
REMARK                         _______ _______ _______ _____ _____    ______ ____
ROOT
ATOM      9  C   UNL     1      -0.984   1.858  25.119  0.00  0.00    +0.056 A 
ATOM     10  C   UNL     1      -0.272   2.258  25.231  0.00  0.00    +0.006 A 
ATOM     11  C   UNL     1      -0.262   3.082  25.265  0.00  0.00    +0.013 A 
ATOM     12  C   UNL     1      -0.965   3.506  25.187  0.00  0.00    +0.041 A 
ATOM     13  C   UNL     1      -1.281   4.369  25.179  0.00  0.00    +0.054 C 
ATOM     14  C   UNL     1      -1.066   5.035  25.234  0.00  0.00    +0.011 C 
ATOM     15  C   UNL     1      -1.768   4.636  25.125  0.00  0.00    +0.039 C 
ATOM     16  C   UNL     1      -2.701   4.342  24.988  0.00  0.00    +0.074 C 
ATOM     17  N   UNL     1      -2.586   3.515  24.971  0.00  0.00    -0.266 NA
ATOM     26  C   UNL     1      -2.188   4.101  25.047  0.00  0.00    +0.078 C 
ATOM     27  C   UNL     1      -1.447   3.731  25.132  0.00  0.00    +0.110 C 
ATOM     28  N   UNL     1      -1.678   3.106  25.076  0.00  0.00    -0.299 N 
ATOM     29  C   UNL     1      -1.688   2.281  25.042  0.00  0.00    +0.261 A 
ATOM     30  O   UNL     1      -2.401   1.881  24.931  0.00  0.00    -0.267 OA
ENDROOT
BRANCH   9   6
ATOM      3  C   UNL     1      -1.010  -0.615  25.016  0.00  0.00    +0.025 A 
ATOM      4  C   UNL     1      -1.150  -0.231  25.733  0.00  0.00    +0.006 A 
ATOM      5  C   UNL     1      -1.141   0.594  25.768  0.00  0.00    +0.001 A 
ATOM      6  C   UNL     1      -0.993   1.034  25.086  0.00  0.00    +0.005 A 
ATOM      7  C   UNL     1      -0.853   0.649  24.369  0.00  0.00    +0.001 A 
ATOM      8  C   UNL     1      -0.862  -0.175  24.334  0.00  0.00    +0.006 A 
BRANCH   3   2
ATOM      1  C   UNL     1      -1.676  -1.832  24.677  0.00  0.00    +0.074 C 
ATOM      2  S   UNL     1      -1.018  -1.440  24.982  0.00  0.00    -0.113 S 
ENDBRANCH   3   2
ENDBRANCH   9   6
BRANCH  17  18
ATOM     18  C   UNL     1      -2.773   2.713  24.914  0.00  0.00    +0.138 C 
BRANCH  18  19
ATOM     19  C   UNL     1      -3.557   2.478  24.812  0.00  0.00    +0.139 A 
ATOM     20  C   UNL     1      -3.931   2.339  24.091  0.00  0.00    +0.037 A 
ATOM     21  C   UNL     1      -4.710   2.116  24.247  0.00  0.00    +0.038 A 
ATOM     22  C   UNL     1      -4.817   2.117  25.065  0.00  0.00    +0.156 A 
ATOM     25  O   UNL     1      -4.105   2.341  25.415  0.00  0.00    -0.458 OA
BRANCH  22  23
ATOM     23  C   UNL     1      -5.514   1.928  25.464  0.00  0.00    +0.246 C 
ATOM     24  O   UNL     1      -6.232   1.916  25.057  0.00  0.00    -0.212 OA
ENDBRANCH  22  23
ENDBRANCH  18  19
ENDBRANCH  17  18
TORSDOF 5
ENDMDL
MODEL 5
REMARK VINA RESULT:     -12.8      1.978      3.865
REMARK  Name = 
REMARK  5 active torsions:
REMARK  status: ('A' for Active; 'I' for Inactive)
REMARK    1  A    between atoms: S_2  and  C_3
REMARK    2  A    between atoms: C_6  and  C_9
REMARK    3  A    between atoms: N_17  and  C_18
REMARK    4  A    between atoms: C_18  and  C_19
REMARK    5  A    between atoms: C_22  and  C_23
REMARK                            x       y       z     vdW  Elec       q    Type
REMARK                         _______ _______ _______ _____ _____    ______ ____
ROOT
ATOM      9  C   UNL     1      -3.982   0.244  24.442  0.00  0.00    +0.056 A 
ATOM     10  C   UNL     1      -4.671  -0.206  24.376  0.00  0.00    +0.006 A 
ATOM     11  C   UNL     1      -4.626  -1.029  24.364  0.00  0.00    +0.013 A 
ATOM     12  C   UNL     1      -3.893  -1.403  24.416  0.00  0.00    +0.041 A 
ATOM     13  C   UNL     1      -3.519  -2.243  24.430  0.00  0.00    +0.054 C 
ATOM     14  C   UNL     1      -3.691  -2.922  24.403  0.00  0.00    +0.011 C 
ATOM     15  C   UNL     1      -3.013  -2.475  24.467  0.00  0.00    +0.039 C 
ATOM     16  C   UNL     1      -2.097  -2.116  24.549  0.00  0.00    +0.074 C 
ATOM     17  N   UNL     1      -2.266  -1.298  24.551  0.00  0.00    -0.266 NA
ATOM     26  C   UNL     1      -2.627  -1.911  24.510  0.00  0.00    +0.078 C 
ATOM     27  C   UNL     1      -3.395  -1.594  24.453  0.00  0.00    +0.110 C 
ATOM     28  N   UNL     1      -3.204  -0.953  24.482  0.00  0.00    -0.299 N 
ATOM     29  C   UNL     1      -3.249  -0.130  24.494  0.00  0.00    +0.261 A 
ATOM     30  O   UNL     1      -2.560   0.320  24.559  0.00  0.00    -0.267 OA
ENDROOT
BRANCH   9   6
ATOM      3  C   UNL     1      -4.120   2.714  24.481  0.00  0.00    +0.025 A 
ATOM      4  C   UNL     1      -3.916   2.325  23.783  0.00  0.00    +0.006 A 
ATOM      5  C   UNL     1      -3.870   1.500  23.770  0.00  0.00    +0.001 A 
ATOM      6  C   UNL     1      -4.028   1.067  24.454  0.00  0.00    +0.005 A 
ATOM      7  C   UNL     1      -4.231   1.458  25.152  0.00  0.00    +0.001 A 
ATOM      8  C   UNL     1      -4.277   2.282  25.165  0.00  0.00    +0.006 A 
BRANCH   3   2
ATOM      1  C   UNL     1      -3.477   3.988  24.547  0.00  0.00    +0.074 C 
ATOM      2  S   UNL     1      -4.165   3.539  24.494  0.00  0.00    -0.113 S 
ENDBRANCH   3   2
ENDBRANCH   9   6
BRANCH  17  18
ATOM     18  C   UNL     1      -2.132  -0.484  24.578  0.00  0.00    +0.138 C 
BRANCH  18  19
ATOM     19  C   UNL     1      -1.361  -0.192  24.555  0.00  0.00    +0.139 A 
ATOM     20  C   UNL     1      -0.915   0.051  25.204  0.00  0.00    +0.037 A 
ATOM     21  C   UNL     1      -0.178   0.301  24.927  0.00  0.00    +0.038 A 
ATOM     22  C   UNL     1      -0.170   0.212  24.108  0.00  0.00    +0.156 A 
ATOM     25  O   UNL     1      -0.900  -0.093  23.877  0.00  0.00    -0.458 OA
BRANCH  22  23
ATOM     23  C   UNL     1       0.459   0.396  23.606  0.00  0.00    +0.246 C 
ATOM     24  O   UNL     1       0.757  -0.176  23.091  0.00  0.00    -0.212 OA
ENDBRANCH  22  23
ENDBRANCH  18  19
ENDBRANCH  17  18
TORSDOF 5
ENDMDL
MODEL 6
REMARK VINA RESULT:     -12.7      1.937      4.378
REMARK  Name = 
REMARK  5 active torsions:
REMARK  status: ('A' for Active; 'I' for Inactive)
REMARK    1  A    between atoms: S_2  and  C_3
REMARK    2  A    between atoms: C_6  and  C_9
REMARK    3  A    between atoms: N_17  and  C_18
REMARK    4  A    between atoms: C_18  and  C_19
REMARK    5  A    between atoms: C_22  and  C_23
REMARK                            x       y       z     vdW  Elec       q    Type
REMARK                         _______ _______ _______ _____ _____    ______ ____
ROOT
ATOM      9  C   UNL     1      -1.744  -0.337  24.787  0.00  0.00    +0.056 A 
ATOM     10  C   UNL     1      -1.398  -1.084  24.732  0.00  0.00    +0.006 A 
ATOM     11  C   UNL     1      -1.867  -1.745  24.578  0.00  0.00    +0.013 A 
ATOM     12  C   UNL     1      -2.681  -1.659  24.480  0.00  0.00    +0.041 A 
ATOM     13  C   UNL     1      -3.436  -2.156  24.310  0.00  0.00    +0.054 C 
ATOM     14  C   UNL     1      -3.646  -2.815  24.191  0.00  0.00    +0.011 C 
ATOM     15  C   UNL     1      -3.984  -2.076  24.247  0.00  0.00    +0.039 C 
ATOM     16  C   UNL     1      -4.570  -1.281  24.276  0.00  0.00    +0.074 C 
ATOM     17  N   UNL     1      -3.999  -0.692  24.433  0.00  0.00    -0.266 NA
ATOM     26  C   UNL     1      -4.015  -1.397  24.335  0.00  0.00    +0.078 C 
ATOM     27  C   UNL     1      -3.201  -1.549  24.424  0.00  0.00    +0.110 C 
ATOM     28  N   UNL     1      -3.027  -0.912  24.535  0.00  0.00    -0.299 N 
ATOM     29  C   UNL     1      -2.559  -0.251  24.688  0.00  0.00    +0.261 A 
ATOM     30  O   UNL     1      -2.904   0.496  24.743  0.00  0.00    -0.267 OA
ENDROOT
BRANCH   9   6
ATOM      3  C   UNL     1      -0.336   1.646  25.246  0.00  0.00    +0.025 A 
ATOM      4  C   UNL     1      -0.694   1.242  25.870  0.00  0.00    +0.006 A 
ATOM      5  C   UNL     1      -1.164   0.580  25.716  0.00  0.00    +0.001 A 
ATOM      6  C   UNL     1      -1.275   0.324  24.940  0.00  0.00    +0.005 A 
ATOM      7  C   UNL     1      -0.917   0.729  24.317  0.00  0.00    +0.001 A 
ATOM      8  C   UNL     1      -0.447   1.390  24.470  0.00  0.00    +0.006 A 
BRANCH   3   2
ATOM      1  C   UNL     1       0.098   2.676  26.135  0.00  0.00    +0.074 C 
ATOM      2  S   UNL     1       0.133   2.308  25.399  0.00  0.00    -0.113 S 
ENDBRANCH   3   2
ENDBRANCH   9   6
BRANCH  17  18
ATOM     18  C   UNL     1      -3.686   0.058  24.578  0.00  0.00    +0.138 C 
BRANCH  18  19
ATOM     19  C   UNL     1      -4.190   0.706  24.657  0.00  0.00    +0.139 A 
ATOM     20  C   UNL     1      -4.300   1.306  24.101  0.00  0.00    +0.037 A 
ATOM     21  C   UNL     1      -4.851   1.839  24.407  0.00  0.00    +0.038 A 
ATOM     22  C   UNL     1      -5.081   1.569  25.151  0.00  0.00    +0.156 A 
ATOM     25  O   UNL     1      -4.673   0.870  25.306  0.00  0.00    -0.458 OA
BRANCH  22  23
ATOM     23  C   UNL     1      -5.624   1.935  25.653  0.00  0.00    +0.246 C 
ATOM     24  O   UNL     1      -5.482   2.700  25.929  0.00  0.00    -0.212 OA
ENDBRANCH  22  23
ENDBRANCH  18  19
ENDBRANCH  17  18
TORSDOF 5
ENDMDL
MODEL 7
REMARK VINA RESULT:     -12.7      1.614      2.184
REMARK  Name = 
REMARK  5 active torsions:
REMARK  status: ('A' for Active; 'I' for Inactive)
REMARK    1  A    between atoms: S_2  and  C_3
REMARK    2  A    between atoms: C_6  and  C_9
REMARK    3  A    between atoms: N_17  and  C_18
REMARK    4  A    between atoms: C_18  and  C_19
REMARK    5  A    between atoms: C_22  and  C_23
REMARK                            x       y       z     vdW  Elec       q    Type
REMARK                         _______ _______ _______ _____ _____    ______ ____
ROOT
ATOM      9  C   UNL     1      -3.263   0.828  24.724  0.00  0.00    +0.056 A 
ATOM     10  C   UNL     1      -3.903   0.323  24.598  0.00  0.00    +0.006 A 
ATOM     11  C   UNL     1      -4.674   0.607  24.674  0.00  0.00    +0.013 A 
ATOM     12  C   UNL     1      -4.804   1.396  24.877  0.00  0.00    +0.041 A 
ATOM     13  C   UNL     1      -5.489   1.989  25.032  0.00  0.00    +0.054 C 
ATOM     14  C   UNL     1      -6.190   2.029  25.046  0.00  0.00    +0.011 C 
ATOM     15  C   UNL     1      -5.555   2.525  25.170  0.00  0.00    +0.039 C 
ATOM     16  C   UNL     1      -4.931   3.268  25.357  0.00  0.00    +0.074 C 
ATOM     17  N   UNL     1      -4.204   2.870  25.251  0.00  0.00    -0.266 NA
ATOM     26  C   UNL     1      -4.899   2.717  25.216  0.00  0.00    +0.078 C 
ATOM     27  C   UNL     1      -4.833   1.913  25.009  0.00  0.00    +0.110 C 
ATOM     28  N   UNL     1      -4.164   1.901  25.003  0.00  0.00    -0.299 N 
ATOM     29  C   UNL     1      -3.393   1.617  24.926  0.00  0.00    +0.261 A 
ATOM     30  O   UNL     1      -2.753   2.122  25.052  0.00  0.00    -0.267 OA
ENDROOT
BRANCH   9   6
ATOM      3  C   UNL     1      -0.952  -0.025  24.492  0.00  0.00    +0.025 A 
ATOM      4  C   UNL     1      -1.361  -0.132  25.200  0.00  0.00    +0.006 A 
ATOM      5  C   UNL     1      -2.132   0.152  25.277  0.00  0.00    +0.001 A 
ATOM      6  C   UNL     1      -2.493   0.543  24.647  0.00  0.00    +0.005 A 
ATOM      7  C   UNL     1      -2.083   0.650  23.939  0.00  0.00    +0.001 A 
ATOM      8  C   UNL     1      -1.312   0.366  23.861  0.00  0.00    +0.006 A 
BRANCH   3   2
ATOM      1  C   UNL     1       0.184  -0.315  23.675  0.00  0.00    +0.074 C 
ATOM      2  S   UNL     1      -0.181  -0.310  24.414  0.00  0.00    -0.113 S 
ENDBRANCH   3   2
ENDBRANCH   9   6
BRANCH  17  18
ATOM     18  C   UNL     1      -3.387   2.754  25.218  0.00  0.00    +0.138 C 
BRANCH  18  19
ATOM     19  C   UNL     1      -2.876   3.380  25.382  0.00  0.00    +0.139 A 
ATOM     20  C   UNL     1      -2.633   3.624  26.132  0.00  0.00    +0.037 A 
ATOM     21  C   UNL     1      -2.124   4.267  26.037  0.00  0.00    +0.038 A 
ATOM     22  C   UNL     1      -2.051   4.419  25.230  0.00  0.00    +0.156 A 
ATOM     25  O   UNL     1      -2.515   3.872  24.824  0.00  0.00    -0.458 OA
BRANCH  22  23
ATOM     23  C   UNL     1      -1.594   5.015  24.888  0.00  0.00    +0.246 C 
ATOM     24  O   UNL     1      -0.771   4.963  24.902  0.00  0.00    -0.212 OA
ENDBRANCH  22  23
ENDBRANCH  18  19
ENDBRANCH  17  18
TORSDOF 5
ENDMDL
