MODEL 1
REMARK VINA RESULT:     -10.4      0.000      0.000
REMARK  Name = 
REMARK  5 active torsions:
REMARK  status: ('A' for Active; 'I' for Inactive)
REMARK    1  A    between atoms: O_2  and  C_3
REMARK    2  A    between atoms: C_6  and  S_9
REMARK    3  A    between atoms: S_9  and  N_12
REMARK    4  A    between atoms: C_17  and  O_19
REMARK    5  A    between atoms: O_19  and  C_20
REMARK                            x       y       z     vdW  Elec       q    Type
REMARK                         _______ _______ _______ _____ _____    ______ ____
ROOT
ATOM     12  N   UNL     1      -4.409   1.147  24.739  0.00  0.00    -0.149 NA
ATOM     13  C   UNL     1      -5.178   1.336  24.971  0.00  0.00    +0.128 C 
ATOM     14  C   UNL     1      -5.533   2.080  25.020  0.00  0.00    +0.161 C 
ATOM     15  O   UNL     1      -5.207   2.818  24.849  0.00  0.00    -0.348 OA
ATOM     16  C   UNL     1      -4.445   2.995  24.587  0.00  0.00    +0.187 C 
ATOM     17  C   UNL     1      -3.820   2.478  24.432  0.00  0.00    +0.215 C 
ATOM     18  C   UNL     1      -3.805   1.655  24.499  0.00  0.00    +0.142 C 
ENDROOT
BRANCH  12   9
ATOM      9  S   UNL     1      -4.219   0.344  24.749  0.00  0.00    +0.063 S 
ATOM     10  O   UNL     1      -4.325   0.329  25.567  0.00  0.00    -0.153 OA
ATOM     11  O   UNL     1      -4.112   0.360  23.931  0.00  0.00    -0.153 OA
BRANCH   9   6
ATOM      3  C   UNL     1      -3.649  -2.064  24.778  0.00  0.00    +0.139 A 
ATOM      4  C   UNL     1      -3.456  -1.586  25.423  0.00  0.00    +0.038 A 
ATOM      5  C   UNL     1      -3.646  -0.784  25.414  0.00  0.00    +0.023 A 
ATOM      6  C   UNL     1      -4.029  -0.459  24.759  0.00  0.00    +0.122 A 
ATOM      7  C   UNL     1      -4.221  -0.935  24.114  0.00  0.00    +0.023 A 
ATOM      8  C   UNL     1      -4.031  -1.738  24.124  0.00  0.00    +0.038 A 
BRANCH   3   2
ATOM      1  C   UNL     1      -2.745  -3.125  24.466  0.00  0.00    +0.252 C 
ATOM      2  O   UNL     1      -3.459  -2.867  24.788  0.00  0.00    -0.471 OA
ENDBRANCH   3   2
ENDBRANCH   9   6
ENDBRANCH  12   9
BRANCH  17  19
ATOM     19  O   UNL     1      -3.120   2.828  24.174  0.00  0.00    -0.459 OA
BRANCH  19  20
ATOM     20  C   UNL     1      -2.623   3.203  24.716  0.00  0.00    +0.245 A 
ATOM     21  C   UNL     1      -2.732   4.002  24.891  0.00  0.00    +0.156 A 
ATOM     22  N   UNL     1      -2.235   4.376  25.432  0.00  0.00    -0.236 NA
ATOM     23  C   UNL     1      -1.629   3.953  25.798  0.00  0.00    +0.120 A 
ATOM     24  C   UNL     1      -1.520   3.154  25.623  0.00  0.00    +0.123 A 
ATOM     25  N   UNL     1      -2.017   2.779  25.081  0.00  0.00    -0.207 NA
ENDBRANCH  19  20
ENDBRANCH  17  19
TORSDOF 5
ENDMDL
MODEL 2
REMARK VINA RESULT:      -9.6      2.157      5.284
REMARK  Name = 
REMARK  5 active torsions:
REMARK  status: ('A' for Active; 'I' for Inactive)
REMARK    1  A    between atoms: O_2  and  C_3
REMARK    2  A    between atoms: C_6  and  S_9
REMARK    3  A    between atoms: S_9  and  N_12
REMARK    4  A    between atoms: C_17  and  O_19
REMARK    5  A    between atoms: O_19  and  C_20
REMARK                            x       y       z     vdW  Elec       q    Type
REMARK                         _______ _______ _______ _____ _____    ______ ____
ROOT
ATOM     12  N   UNL     1      -1.185   0.444  24.878  0.00  0.00    -0.149 NA
ATOM     13  C   UNL     1      -0.490   0.236  24.485  0.00  0.00    +0.128 C 
ATOM     14  C   UNL     1      -0.229  -0.516  24.265  0.00  0.00    +0.161 C 
ATOM     15  O   UNL     1      -0.598  -1.244  24.384  0.00  0.00    -0.348 OA
ATOM     16  C   UNL     1      -1.319  -1.401  24.752  0.00  0.00    +0.187 C 
ATOM     17  C   UNL     1      -1.850  -0.869  25.092  0.00  0.00    +0.215 C 
ATOM     18  C   UNL     1      -1.790  -0.047  25.148  0.00  0.00    +0.142 C 
ENDROOT
BRANCH  12   9
ATOM      9  S   UNL     1      -1.289   1.250  25.020  0.00  0.00    +0.063 S 
ATOM     10  O   UNL     1      -1.543   1.354  24.242  0.00  0.00    -0.153 OA
ATOM     11  O   UNL     1      -1.034   1.146  25.798  0.00  0.00    -0.153 OA
BRANCH   9   6
ATOM      3  C   UNL     1      -1.599   3.669  25.444  0.00  0.00    +0.139 A 
ATOM      4  C   UNL     1      -0.932   3.280  25.738  0.00  0.00    +0.038 A 
ATOM      5  C   UNL     1      -0.829   2.474  25.597  0.00  0.00    +0.023 A 
ATOM      6  C   UNL     1      -1.392   2.057  25.161  0.00  0.00    +0.122 A 
ATOM      7  C   UNL     1      -2.057   2.444  24.867  0.00  0.00    +0.023 A 
ATOM      8  C   UNL     1      -2.161   3.251  25.009  0.00  0.00    +0.038 A 
BRANCH   3   2
ATOM      1  C   UNL     1      -1.340   5.029  25.094  0.00  0.00    +0.252 C 
ATOM      2  O   UNL     1      -1.702   4.475  25.586  0.00  0.00    -0.471 OA
ENDBRANCH   3   2
ENDBRANCH   9   6
ENDBRANCH  12   9
BRANCH  17  19
ATOM     19  O   UNL     1      -2.531  -1.201  25.420  0.00  0.00    -0.459 OA
BRANCH  19  20
ATOM     20  C   UNL     1      -3.095  -1.551  24.930  0.00  0.00    +0.245 A 
ATOM     21  C   UNL     1      -3.098  -2.369  24.825  0.00  0.00    +0.156 A 
ATOM     22  N   UNL     1      -3.663  -2.719  24.336  0.00  0.00    -0.236 NA
ATOM     23  C   UNL     1      -4.224  -2.252  23.953  0.00  0.00    +0.120 A 
ATOM     24  C   UNL     1      -4.221  -1.434  24.058  0.00  0.00    +0.123 A 
ATOM     25  N   UNL     1      -3.656  -1.083  24.547  0.00  0.00    -0.207 NA
ENDBRANCH  19  20
ENDBRANCH  17  19
TORSDOF 5
ENDMDL
MODEL 3
REMARK VINA RESULT:      -9.6      1.956      4.093
REMARK  Name = 
REMARK  5 active torsions:
REMARK  status: ('A' for Active; 'I' for Inactive)
REMARK    1  A    between atoms: O_2  and  C_3
REMARK    2  A    between atoms: C_6  and  S_9
REMARK    3  A    between atoms: S_9  and  N_12
REMARK    4  A    between atoms: C_17  and  O_19
REMARK    5  A    between atoms: O_19  and  C_20
REMARK                            x       y       z     vdW  Elec       q    Type
REMARK                         _______ _______ _______ _____ _____    ______ ____
ROOT
ATOM     12  N   UNL     1      -3.580  -0.455  24.646  0.00  0.00    -0.149 NA
ATOM     13  C   UNL     1      -3.986  -1.086  24.302  0.00  0.00    +0.128 C 
ATOM     14  C   UNL     1      -3.709  -1.845  24.133  0.00  0.00    +0.161 C 
ATOM     15  O   UNL     1      -2.958  -2.161  24.266  0.00  0.00    -0.348 OA
ATOM     16  C   UNL     1      -2.299  -1.795  24.601  0.00  0.00    +0.187 C 
ATOM     17  C   UNL     1      -2.227  -1.024  24.886  0.00  0.00    +0.215 C 
ATOM     18  C   UNL     1      -2.798  -0.428  24.906  0.00  0.00    +0.142 C 
ENDROOT
BRANCH  12   9
ATOM      9  S   UNL     1      -4.014   0.239  24.743  0.00  0.00    +0.063 S 
ATOM     10  O   UNL     1      -3.909   0.417  23.944  0.00  0.00    -0.153 OA
ATOM     11  O   UNL     1      -4.119   0.062  25.542  0.00  0.00    -0.153 OA
BRANCH   9   6
ATOM      3  C   UNL     1      -5.317   2.324  25.034  0.00  0.00    +0.139 A 
ATOM      4  C   UNL     1      -5.542   1.636  25.432  0.00  0.00    +0.038 A 
ATOM      5  C   UNL     1      -5.108   0.942  25.335  0.00  0.00    +0.023 A 
ATOM      6  C   UNL     1      -4.448   0.934  24.840  0.00  0.00    +0.122 A 
ATOM      7  C   UNL     1      -4.223   1.620  24.442  0.00  0.00    +0.023 A 
ATOM      8  C   UNL     1      -4.657   2.315  24.539  0.00  0.00    +0.038 A 
BRANCH   3   2
ATOM      1  C   UNL     1      -5.456   3.626  25.602  0.00  0.00    +0.252 C 
ATOM      2  O   UNL     1      -5.751   3.018  25.131  0.00  0.00    -0.471 OA
ENDBRANCH   3   2
ENDBRANCH   9   6
ENDBRANCH  12   9
BRANCH  17  19
ATOM     19  O   UNL     1      -1.488  -0.822  25.191  0.00  0.00    -0.459 OA
BRANCH  19  20
ATOM     20  C   UNL     1      -0.899  -0.535  24.689  0.00  0.00    +0.245 A 
ATOM     21  C   UNL     1      -0.407  -1.062  24.288  0.00  0.00    +0.156 A 
ATOM     22  N   UNL     1       0.182  -0.776  23.787  0.00  0.00    -0.236 NA
ATOM     23  C   UNL     1       0.279   0.037  23.687  0.00  0.00    +0.120 A 
ATOM     24  C   UNL     1      -0.212   0.564  24.088  0.00  0.00    +0.123 A 
ATOM     25  N   UNL     1      -0.801   0.277  24.590  0.00  0.00    -0.207 NA
ENDBRANCH  19  20
ENDBRANCH  17  19
TORSDOF 5
ENDMDL
MODEL 4
REMARK VINA RESULT:      -9.4      2.085      2.916
REMARK  Name = 
REMARK  5 active torsions:
REMARK  status: ('A' for Active; 'I' for Inactive)
REMARK    1  A    between atoms: O_2  and  C_3
REMARK    2  A    between atoms: C_6  and  S_9
REMARK    3  A    between atoms: S_9  and  N_12
REMARK    4  A    between atoms: C_17  and  O_19
REMARK    5  A    between atoms: O_19  and  C_20
REMARK                            x       y       z     vdW  Elec       q    Type
REMARK                         _______ _______ _______ _____ _____    ______ ____
ROOT
ATOM     12  N   UNL     1      -0.872   0.617  24.731  0.00  0.00    -0.149 NA
ATOM     13  C   UNL     1      -0.292   0.533  24.149  0.00  0.00    +0.128 C 
ATOM     14  C   UNL     1       0.314   1.057  23.948  0.00  0.00    +0.161 C 
ATOM     15  O   UNL     1       0.489   1.792  24.277  0.00  0.00    -0.348 OA
ATOM     16  C   UNL     1       0.102   2.187  24.890  0.00  0.00    +0.187 C 
ATOM     17  C   UNL     1      -0.556   1.943  25.324  0.00  0.00    +0.215 C 
ATOM     18  C   UNL     1      -0.989   1.244  25.253  0.00  0.00    +0.142 C 
ENDROOT
BRANCH  12   9
ATOM      9  S   UNL     1      -1.405  -0.009  24.798  0.00  0.00    +0.063 S 
ATOM     10  O   UNL     1      -1.004  -0.279  25.466  0.00  0.00    -0.153 OA
ATOM     11  O   UNL     1      -1.806   0.261  24.130  0.00  0.00    -0.153 OA
BRANCH   9   6
ATOM      3  C   UNL     1      -3.003  -1.888  24.999  0.00  0.00    +0.139 A 
ATOM      4  C   UNL     1      -3.260  -1.113  25.119  0.00  0.00    +0.038 A 
ATOM      5  C   UNL     1      -2.728  -0.486  25.052  0.00  0.00    +0.023 A 
ATOM      6  C   UNL     1      -1.938  -0.635  24.865  0.00  0.00    +0.122 A 
ATOM      7  C   UNL     1      -1.681  -1.410  24.745  0.00  0.00    +0.023 A 
ATOM      8  C   UNL     1      -2.214  -2.036  24.812  0.00  0.00    +0.038 A 
BRANCH   3   2
ATOM      1  C   UNL     1      -3.834  -2.876  24.388  0.00  0.00    +0.252 C 
ATOM      2  O   UNL     1      -3.536  -2.514  25.066  0.00  0.00    -0.471 OA
ENDBRANCH   3   2
ENDBRANCH   9   6
ENDBRANCH  12   9
BRANCH  17  19
ATOM     19  O   UNL     1      -0.814   2.467  25.907  0.00  0.00    -0.459 OA
BRANCH  19  20
ATOM     20  C   UNL     1      -1.234   3.145  25.695  0.00  0.00    +0.245 A 
ATOM     21  C   UNL     1      -0.828   3.820  25.449  0.00  0.00    +0.156 A 
ATOM     22  N   UNL     1      -1.248   4.498  25.238  0.00  0.00    -0.236 NA
ATOM     23  C   UNL     1      -2.071   4.502  25.271  0.00  0.00    +0.120 A 
ATOM     24  C   UNL     1      -2.477   3.827  25.517  0.00  0.00    +0.123 A 
ATOM     25  N   UNL     1      -2.058   3.148  25.729  0.00  0.00    -0.207 NA
ENDBRANCH  19  20
ENDBRANCH  17  19
TORSDOF 5
ENDMDL
