MODEL 1
REMARK VINA RESULT:     -10.2      0.000      0.000
REMARK  Name = 
REMARK  7 active torsions:
REMARK  status: ('A' for Active; 'I' for Inactive)
REMARK    1  A    between atoms: N_4  and  C_5
REMARK    2  A    between atoms: C_8  and  S_11
REMARK    3  A    between atoms: S_11  and  N_14
REMARK    4  A    between atoms: N_14  and  C_15
REMARK    5  A    between atoms: C_19  and  O_23
REMARK    6  A    between atoms: O_23  and  C_24
REMARK    7  A    between atoms: C_24  and  C_25
REMARK                            x       y       z     vdW  Elec       q    Type
REMARK                         _______ _______ _______ _____ _____    ______ ____
ROOT
ATOM     15  C   UNL     1      -4.373   1.722  24.643  0.00  0.00    +0.157 C 
ATOM     16  C   UNL     1      -3.881   1.822  23.989  0.00  0.00    +0.164 C 
ATOM     17  O   UNL     1      -3.494   2.546  24.070  0.00  0.00    -0.350 OA
ATOM     18  C   UNL     1      -3.747   2.893  24.773  0.00  0.00    +0.173 C 
ATOM     19  C   UNL     1      -3.665   3.555  25.259  0.00  0.00    +0.175 C 
ATOM     20  C   UNL     1      -4.158   3.456  25.913  0.00  0.00    +0.174 C 
ATOM     21  O   UNL     1      -4.544   2.732  25.832  0.00  0.00    -0.349 OA
ATOM     22  C   UNL     1      -4.291   2.384  25.127  0.00  0.00    +0.165 C 
ENDROOT
BRANCH  15  14
ATOM     14  N   UNL     1      -4.863   1.074  24.787  0.00  0.00    -0.074 NA
BRANCH  14  11
ATOM     11  S   UNL     1      -4.554   0.309  24.758  0.00  0.00    +0.077 S 
ATOM     12  O   UNL     1      -4.535   0.346  23.935  0.00  0.00    -0.152 OA
ATOM     13  O   UNL     1      -4.574   0.271  25.582  0.00  0.00    -0.152 OA
BRANCH  11   8
ATOM      5  C   UNL     1      -3.629  -1.985  24.676  0.00  0.00    +0.073 A 
ATOM      6  C   UNL     1      -3.500  -1.512  25.339  0.00  0.00    +0.018 A 
ATOM      7  C   UNL     1      -3.808  -0.747  25.367  0.00  0.00    +0.021 A 
ATOM      8  C   UNL     1      -4.246  -0.456  24.731  0.00  0.00    +0.124 A 
ATOM      9  C   UNL     1      -4.375  -0.929  24.067  0.00  0.00    +0.021 A 
ATOM     10  C   UNL     1      -4.066  -1.693  24.040  0.00  0.00    +0.018 A 
BRANCH   5   4
ATOM      1  C   UNL     1      -2.229  -3.636  24.391  0.00  0.00    +0.097 C 
ATOM      2  C   UNL     1      -2.538  -2.871  24.419  0.00  0.00    +0.246 C 
ATOM      3  O   UNL     1      -2.062  -2.228  24.218  0.00  0.00    -0.273 OA
ATOM      4  N   UNL     1      -3.320  -2.750  24.648  0.00  0.00    -0.179 NA
ENDBRANCH   5   4
ENDBRANCH  11   8
ENDBRANCH  14  11
ENDBRANCH  15  14
BRANCH  19  23
ATOM     23  O   UNL     1      -3.175   4.204  25.115  0.00  0.00    -0.346 OA
BRANCH  23  24
ATOM     24  C   UNL     1      -2.532   4.353  25.609  0.00  0.00    +0.169 C 
BRANCH  24  25
ATOM     25  C   UNL     1      -1.852   4.710  25.306  0.00  0.00    +0.007 A 
ATOM     26  C   UNL     1      -1.164   4.267  25.206  0.00  0.00    -0.002 A 
ATOM     27  C   UNL     1      -0.484   4.623  24.902  0.00  0.00    -0.000 A 
ATOM     28  C   UNL     1      -0.494   5.424  24.699  0.00  0.00    -0.000 A 
ATOM     29  C   UNL     1      -1.183   5.865  24.799  0.00  0.00    -0.000 A 
ATOM     30  C   UNL     1      -1.863   5.509  25.103  0.00  0.00    -0.002 A 
ENDBRANCH  24  25
ENDBRANCH  23  24
ENDBRANCH  19  23
TORSDOF 7
ENDMDL
MODEL 2
REMARK VINA RESULT:      -9.9      4.118      5.702
REMARK  Name = 
REMARK  7 active torsions:
REMARK  status: ('A' for Active; 'I' for Inactive)
REMARK    1  A    between atoms: N_4  and  C_5
REMARK    2  A    between atoms: C_8  and  S_11
REMARK    3  A    between atoms: S_11  and  N_14
REMARK    4  A    between atoms: N_14  and  C_15
REMARK    5  A    between atoms: C_19  and  O_23
REMARK    6  A    between atoms: O_23  and  C_24
REMARK    7  A    between atoms: C_24  and  C_25
REMARK                            x       y       z     vdW  Elec       q    Type
REMARK                         _______ _______ _______ _____ _____    ______ ____
ROOT
ATOM     15  C   UNL     1      -0.567   0.860  23.934  0.00  0.00    +0.157 C 
ATOM     16  C   UNL     1      -0.219   1.526  24.275  0.00  0.00    +0.164 C 
ATOM     17  O   UNL     1       0.584   1.519  24.083  0.00  0.00    -0.350 OA
ATOM     18  C   UNL     1       0.732   0.851  23.625  0.00  0.00    +0.173 C 
ATOM     19  C   UNL     1       1.318   0.432  23.223  0.00  0.00    +0.175 C 
ATOM     20  C   UNL     1       0.970  -0.233  22.882  0.00  0.00    +0.174 C 
ATOM     21  O   UNL     1       0.168  -0.227  23.074  0.00  0.00    -0.349 OA
ATOM     22  C   UNL     1       0.020   0.443  23.533  0.00  0.00    +0.165 C 
ENDROOT
BRANCH  15  14
ATOM     14  N   UNL     1      -1.363   0.649  23.986  0.00  0.00    -0.074 NA
BRANCH  14  11
ATOM     11  S   UNL     1      -1.930   1.219  24.170  0.00  0.00    +0.077 S 
ATOM     12  O   UNL     1      -1.860   1.033  24.970  0.00  0.00    -0.152 OA
ATOM     13  O   UNL     1      -2.001   1.407  23.369  0.00  0.00    -0.152 OA
BRANCH  11   8
ATOM      5  C   UNL     1      -3.633   2.931  24.716  0.00  0.00    +0.073 A 
ATOM      6  C   UNL     1      -3.051   2.737  25.267  0.00  0.00    +0.018 A 
ATOM      7  C   UNL     1      -2.484   2.166  25.086  0.00  0.00    +0.021 A 
ATOM      8  C   UNL     1      -2.497   1.790  24.352  0.00  0.00    +0.124 A 
ATOM      9  C   UNL     1      -3.079   1.984  23.800  0.00  0.00    +0.021 A 
ATOM     10  C   UNL     1      -3.647   2.554  23.982  0.00  0.00    +0.018 A 
BRANCH   5   4
ATOM      1  C   UNL     1      -5.446   3.861  25.498  0.00  0.00    +0.097 C 
ATOM      2  C   UNL     1      -4.878   3.290  25.316  0.00  0.00    +0.246 C 
ATOM      3  O   UNL     1      -4.989   2.508  25.555  0.00  0.00    -0.273 OA
ATOM      4  N   UNL     1      -4.200   3.501  24.897  0.00  0.00    -0.179 NA
ENDBRANCH   5   4
ENDBRANCH  11   8
ENDBRANCH  14  11
ENDBRANCH  15  14
BRANCH  19  23
ATOM     23  O   UNL     1       2.114   0.644  23.170  0.00  0.00    -0.346 OA
BRANCH  23  24
ATOM     24  C   UNL     1       2.651   0.140  22.798  0.00  0.00    +0.169 C 
BRANCH  24  25
ATOM     25  C   UNL     1       3.460   0.219  22.943  0.00  0.00    +0.007 A 
ATOM     26  C   UNL     1       3.879  -0.403  23.286  0.00  0.00    -0.002 A 
ATOM     27  C   UNL     1       4.688  -0.325  23.431  0.00  0.00    -0.000 A 
ATOM     28  C   UNL     1       5.076   0.376  23.232  0.00  0.00    -0.000 A 
ATOM     29  C   UNL     1       4.656   0.997  22.889  0.00  0.00    -0.000 A 
ATOM     30  C   UNL     1       3.848   0.919  22.744  0.00  0.00    -0.002 A 
ENDBRANCH  24  25
ENDBRANCH  23  24
ENDBRANCH  19  23
TORSDOF 7
ENDMDL
MODEL 3
REMARK VINA RESULT:      -9.6      2.238      2.780
REMARK  Name = 
REMARK  7 active torsions:
REMARK  status: ('A' for Active; 'I' for Inactive)
REMARK    1  A    between atoms: N_4  and  C_5
REMARK    2  A    between atoms: C_8  and  S_11
REMARK    3  A    between atoms: S_11  and  N_14
REMARK    4  A    between atoms: N_14  and  C_15
REMARK    5  A    between atoms: C_19  and  O_23
REMARK    6  A    between atoms: O_23  and  C_24
REMARK    7  A    between atoms: C_24  and  C_25
REMARK                            x       y       z     vdW  Elec       q    Type
REMARK                         _______ _______ _______ _____ _____    ______ ____
ROOT
ATOM     15  C   UNL     1      -0.641   0.411  24.991  0.00  0.00    +0.157 C 
ATOM     16  C   UNL     1      -0.810   0.652  24.220  0.00  0.00    +0.164 C 
ATOM     17  O   UNL     1      -0.789   1.476  24.202  0.00  0.00    -0.350 OA
ATOM     18  C   UNL     1      -0.607   1.745  24.960  0.00  0.00    +0.173 C 
ATOM     19  C   UNL     1      -0.481   2.419  25.418  0.00  0.00    +0.175 C 
ATOM     20  C   UNL     1      -0.312   2.178  26.188  0.00  0.00    +0.174 C 
ATOM     21  O   UNL     1      -0.333   1.353  26.207  0.00  0.00    -0.349 OA
ATOM     22  C   UNL     1      -0.515   1.085  25.447  0.00  0.00    +0.165 C 
ENDROOT
BRANCH  15  14
ATOM     14  N   UNL     1      -0.604  -0.370  25.257  0.00  0.00    -0.074 NA
BRANCH  14  11
ATOM     11  S   UNL     1      -1.219  -0.893  25.088  0.00  0.00    +0.077 S 
ATOM     12  O   UNL     1      -1.532  -0.771  25.841  0.00  0.00    -0.152 OA
ATOM     13  O   UNL     1      -0.906  -1.016  24.334  0.00  0.00    -0.152 OA
BRANCH  11   8
ATOM      5  C   UNL     1      -3.061  -2.465  24.576  0.00  0.00    +0.073 A 
ATOM      6  C   UNL     1      -3.196  -1.818  25.068  0.00  0.00    +0.018 A 
ATOM      7  C   UNL     1      -2.582  -1.293  25.239  0.00  0.00    +0.021 A 
ATOM      8  C   UNL     1      -1.833  -1.417  24.917  0.00  0.00    +0.124 A 
ATOM      9  C   UNL     1      -1.698  -2.065  24.425  0.00  0.00    +0.021 A 
ATOM     10  C   UNL     1      -2.312  -2.589  24.254  0.00  0.00    +0.018 A 
BRANCH   5   4
ATOM      1  C   UNL     1      -4.870  -3.304  23.689  0.00  0.00    +0.097 C 
ATOM      2  C   UNL     1      -4.257  -2.780  23.860  0.00  0.00    +0.246 C 
ATOM      3  O   UNL     1      -4.225  -2.046  23.485  0.00  0.00    -0.273 OA
ATOM      4  N   UNL     1      -3.675  -2.989  24.405  0.00  0.00    -0.179 NA
ENDBRANCH   5   4
ENDBRANCH  11   8
ENDBRANCH  14  11
ENDBRANCH  15  14
BRANCH  19  23
ATOM     23  O   UNL     1      -0.518   3.199  25.151  0.00  0.00    -0.346 OA
BRANCH  23  24
ATOM     24  C   UNL     1      -0.831   3.787  25.638  0.00  0.00    +0.169 C 
BRANCH  24  25
ATOM     25  C   UNL     1      -1.084   4.502  25.312  0.00  0.00    +0.007 A 
ATOM     26  C   UNL     1      -1.854   4.766  25.445  0.00  0.00    -0.002 A 
ATOM     27  C   UNL     1      -2.107   5.481  25.119  0.00  0.00    -0.000 A 
ATOM     28  C   UNL     1      -1.589   5.930  24.659  0.00  0.00    -0.000 A 
ATOM     29  C   UNL     1      -0.820   5.665  24.526  0.00  0.00    -0.000 A 
ATOM     30  C   UNL     1      -0.566   4.951  24.852  0.00  0.00    -0.002 A 
ENDBRANCH  24  25
ENDBRANCH  23  24
ENDBRANCH  19  23
TORSDOF 7
ENDMDL
MODEL 4
REMARK VINA RESULT:      -9.5      2.544      6.400
REMARK  Name = 
REMARK  7 active torsions:
REMARK  status: ('A' for Active; 'I' for Inactive)
REMARK    1  A    between atoms: N_4  and  C_5
REMARK    2  A    between atoms: C_8  and  S_11
REMARK    3  A    between atoms: S_11  and  N_14
REMARK    4  A    between atoms: N_14  and  C_15
REMARK    5  A    between atoms: C_19  and  O_23
REMARK    6  A    between atoms: O_23  and  C_24
REMARK    7  A    between atoms: C_24  and  C_25
REMARK                            x       y       z     vdW  Elec       q    Type
REMARK                         _______ _______ _______ _____ _____    ______ ____
ROOT
ATOM     15  C   UNL     1      -0.325   0.621  24.667  0.00  0.00    +0.157 C 
ATOM     16  C   UNL     1      -0.571   0.570  23.882  0.00  0.00    +0.164 C 
ATOM     17  O   UNL     1      -1.066  -0.086  23.812  0.00  0.00    -0.350 OA
ATOM     18  C   UNL     1      -1.126  -0.440  24.554  0.00  0.00    +0.173 C 
ATOM     19  C   UNL     1      -1.468  -1.064  24.971  0.00  0.00    +0.175 C 
ATOM     20  C   UNL     1      -1.222  -1.013  25.756  0.00  0.00    +0.174 C 
ATOM     21  O   UNL     1      -0.727  -0.357  25.826  0.00  0.00    -0.349 OA
ATOM     22  C   UNL     1      -0.668  -0.003  25.083  0.00  0.00    +0.165 C 
ENDROOT
BRANCH  15  14
ATOM     14  N   UNL     1       0.177   1.196  24.981  0.00  0.00    -0.074 NA
BRANCH  14  11
ATOM     11  S   UNL     1      -0.058   1.988  24.992  0.00  0.00    +0.077 S 
ATOM     12  O   UNL     1       0.177   2.069  24.206  0.00  0.00    -0.152 OA
ATOM     13  O   UNL     1      -0.293   1.907  25.779  0.00  0.00    -0.152 OA
BRANCH  11   8
ATOM      5  C   UNL     1      -0.761   4.360  25.026  0.00  0.00    +0.073 A 
ATOM      6  C   UNL     1      -0.797   3.910  25.715  0.00  0.00    +0.018 A 
ATOM      7  C   UNL     1      -0.563   3.119  25.705  0.00  0.00    +0.021 A 
ATOM      8  C   UNL     1      -0.292   2.778  25.004  0.00  0.00    +0.124 A 
ATOM      9  C   UNL     1      -0.256   3.229  24.313  0.00  0.00    +0.021 A 
ATOM     10  C   UNL     1      -0.491   4.020  24.325  0.00  0.00    +0.018 A 
BRANCH   5   4
ATOM      1  C   UNL     1      -2.032   6.135  25.063  0.00  0.00    +0.097 C 
ATOM      2  C   UNL     1      -1.797   5.344  25.052  0.00  0.00    +0.246 C 
ATOM      3  O   UNL     1      -2.365   4.746  25.058  0.00  0.00    -0.273 OA
ATOM      4  N   UNL     1      -0.996   5.151  25.037  0.00  0.00    -0.179 NA
ENDBRANCH   5   4
ENDBRANCH  11   8
ENDBRANCH  14  11
ENDBRANCH  15  14
BRANCH  19  23
ATOM     23  O   UNL     1      -1.970  -1.640  24.657  0.00  0.00    -0.346 OA
BRANCH  23  24
ATOM     24  C   UNL     1      -2.695  -1.797  25.017  0.00  0.00    +0.169 C 
BRANCH  24  25
ATOM     25  C   UNL     1      -3.315  -2.114  24.576  0.00  0.00    +0.007 A 
ATOM     26  C   UNL     1      -3.896  -1.618  24.264  0.00  0.00    -0.002 A 
ATOM     27  C   UNL     1      -4.517  -1.934  23.822  0.00  0.00    -0.000 A 
ATOM     28  C   UNL     1      -4.556  -2.749  23.692  0.00  0.00    -0.000 A 
ATOM     29  C   UNL     1      -3.976  -3.244  24.004  0.00  0.00    -0.000 A 
ATOM     30  C   UNL     1      -3.355  -2.928  24.446  0.00  0.00    -0.002 A 
ENDBRANCH  24  25
ENDBRANCH  23  24
ENDBRANCH  19  23
TORSDOF 7
ENDMDL
MODEL 5
REMARK VINA RESULT:      -8.5      3.881      5.106
REMARK  Name = 
REMARK  7 active torsions:
REMARK  status: ('A' for Active; 'I' for Inactive)
REMARK    1  A    between atoms: N_4  and  C_5
REMARK    2  A    between atoms: C_8  and  S_11
REMARK    3  A    between atoms: S_11  and  N_14
REMARK    4  A    between atoms: N_14  and  C_15
REMARK    5  A    between atoms: C_19  and  O_23
REMARK    6  A    between atoms: O_23  and  C_24
REMARK    7  A    between atoms: C_24  and  C_25
REMARK                            x       y       z     vdW  Elec       q    Type
REMARK                         _______ _______ _______ _____ _____    ______ ____
ROOT
ATOM     15  C   UNL     1      -1.071   0.236  24.194  0.00  0.00    +0.157 C 
ATOM     16  C   UNL     1      -0.826   0.932  24.562  0.00  0.00    +0.164 C 
ATOM     17  O   UNL     1      -1.498   1.331  24.825  0.00  0.00    -0.350 OA
ATOM     18  C   UNL     1      -2.158   0.882  24.620  0.00  0.00    +0.173 C 
ATOM     19  C   UNL     1      -2.982   0.850  24.655  0.00  0.00    +0.175 C 
ATOM     20  C   UNL     1      -3.227   0.154  24.287  0.00  0.00    +0.174 C 
ATOM     21  O   UNL     1      -2.555  -0.245  24.024  0.00  0.00    -0.349 OA
ATOM     22  C   UNL     1      -1.894   0.205  24.230  0.00  0.00    +0.165 C 
ENDROOT
BRANCH  15  14
ATOM     14  N   UNL     1      -0.579  -0.330  23.850  0.00  0.00    -0.074 NA
BRANCH  14  11
ATOM     11  S   UNL     1       0.173  -0.117  23.584  0.00  0.00    +0.077 S 
ATOM     12  O   UNL     1      -0.156   0.178  22.888  0.00  0.00    -0.152 OA
ATOM     13  O   UNL     1       0.503  -0.411  24.281  0.00  0.00    -0.152 OA
BRANCH  11   8
ATOM      5  C   UNL     1       2.428   0.521  22.789  0.00  0.00    +0.073 A 
ATOM      6  C   UNL     1       2.085   0.924  23.422  0.00  0.00    +0.018 A 
ATOM      7  C   UNL     1       1.333   0.712  23.687  0.00  0.00    +0.021 A 
ATOM      8  C   UNL     1       0.925   0.096  23.320  0.00  0.00    +0.124 A 
ATOM      9  C   UNL     1       1.268  -0.307  22.687  0.00  0.00    +0.021 A 
ATOM     10  C   UNL     1       2.020  -0.094  22.422  0.00  0.00    +0.018 A 
BRANCH   5   4
ATOM      1  C   UNL     1       4.598   0.560  22.552  0.00  0.00    +0.097 C 
ATOM      2  C   UNL     1       3.846   0.347  22.818  0.00  0.00    +0.246 C 
ATOM      3  O   UNL     1       3.761  -0.252  23.379  0.00  0.00    -0.273 OA
ATOM      4  N   UNL     1       3.180   0.734  22.524  0.00  0.00    -0.179 NA
ENDBRANCH   5   4
ENDBRANCH  11   8
ENDBRANCH  14  11
ENDBRANCH  15  14
BRANCH  19  23
ATOM     23  O   UNL     1      -3.475   1.416  24.999  0.00  0.00    -0.346 OA
BRANCH  23  24
ATOM     24  C   UNL     1      -4.213   1.576  24.668  0.00  0.00    +0.169 C 
BRANCH  24  25
ATOM     25  C   UNL     1      -4.710   2.134  25.018  0.00  0.00    +0.007 A 
ATOM     26  C   UNL     1      -5.367   1.886  25.451  0.00  0.00    -0.002 A 
ATOM     27  C   UNL     1      -5.865   2.443  25.801  0.00  0.00    -0.000 A 
ATOM     28  C   UNL     1      -5.704   3.249  25.718  0.00  0.00    -0.000 A 
ATOM     29  C   UNL     1      -5.047   3.496  25.286  0.00  0.00    -0.000 A 
ATOM     30  C   UNL     1      -4.550   2.939  24.935  0.00  0.00    -0.002 A 
ENDBRANCH  24  25
ENDBRANCH  23  24
ENDBRANCH  19  23
TORSDOF 7
ENDMDL
MODEL 6
REMARK VINA RESULT:      -8.4      1.436      5.806
REMARK  Name = 
REMARK  7 active torsions:
REMARK  status: ('A' for Active; 'I' for Inactive)
REMARK    1  A    between atoms: N_4  and  C_5
REMARK    2  A    between atoms: C_8  and  S_11
REMARK    3  A    between atoms: S_11  and  N_14
REMARK    4  A    between atoms: N_14  and  C_15
REMARK    5  A    between atoms: C_19  and  O_23
REMARK    6  A    between atoms: O_23  and  C_24
REMARK    7  A    between atoms: C_24  and  C_25
REMARK                            x       y       z     vdW  Elec       q    Type
REMARK                         _______ _______ _______ _____ _____    ______ ____
ROOT
ATOM     15  C   UNL     1      -4.336   1.805  24.528  0.00  0.00    +0.157 C 
ATOM     16  C   UNL     1      -3.964   1.620  23.816  0.00  0.00    +0.164 C 
ATOM     17  O   UNL     1      -3.886   0.800  23.775  0.00  0.00    -0.350 OA
ATOM     18  C   UNL     1      -4.210   0.478  24.461  0.00  0.00    +0.173 C 
ATOM     19  C   UNL     1      -4.363  -0.227  24.861  0.00  0.00    +0.175 C 
ATOM     20  C   UNL     1      -4.736  -0.041  25.573  0.00  0.00    +0.174 C 
ATOM     21  O   UNL     1      -4.813   0.779  25.614  0.00  0.00    -0.349 OA
ATOM     22  C   UNL     1      -4.488   1.100  24.926  0.00  0.00    +0.165 C 
ENDROOT
BRANCH  15  14
ATOM     14  N   UNL     1      -4.524   2.564  24.794  0.00  0.00    -0.074 NA
BRANCH  14  11
ATOM     11  S   UNL     1      -3.931   3.132  24.872  0.00  0.00    +0.077 S 
ATOM     12  O   UNL     1      -3.868   3.181  24.051  0.00  0.00    -0.152 OA
ATOM     13  O   UNL     1      -3.993   3.084  25.694  0.00  0.00    -0.152 OA
BRANCH  11   8
ATOM      5  C   UNL     1      -2.152   4.836  25.111  0.00  0.00    +0.073 A 
ATOM      6  C   UNL     1      -2.669   4.868  24.470  0.00  0.00    +0.018 A 
ATOM      7  C   UNL     1      -3.262   4.300  24.390  0.00  0.00    +0.021 A 
ATOM      8  C   UNL     1      -3.338   3.700  24.952  0.00  0.00    +0.124 A 
ATOM      9  C   UNL     1      -2.820   3.669  25.594  0.00  0.00    +0.021 A 
ATOM     10  C   UNL     1      -2.227   4.237  25.673  0.00  0.00    +0.018 A 
BRANCH   5   4
ATOM      1  C   UNL     1      -0.219   5.839  24.946  0.00  0.00    +0.097 C 
ATOM      2  C   UNL     1      -0.813   5.271  24.866  0.00  0.00    +0.246 C 
ATOM      3  O   UNL     1      -0.660   4.570  24.460  0.00  0.00    -0.273 OA
ATOM      4  N   UNL     1      -1.558   5.404  25.192  0.00  0.00    -0.179 NA
ENDBRANCH   5   4
ENDBRANCH  11   8
ENDBRANCH  14  11
ENDBRANCH  15  14
BRANCH  19  23
ATOM     23  O   UNL     1      -4.176  -0.985  24.595  0.00  0.00    -0.346 OA
BRANCH  23  24
ATOM     24  C   UNL     1      -3.787  -1.513  25.095  0.00  0.00    +0.169 C 
BRANCH  24  25
ATOM     25  C   UNL     1      -3.334  -2.126  24.776  0.00  0.00    +0.007 A 
ATOM     26  C   UNL     1      -3.705  -2.758  24.397  0.00  0.00    -0.002 A 
ATOM     27  C   UNL     1      -3.253  -3.371  24.079  0.00  0.00    -0.000 A 
ATOM     28  C   UNL     1      -2.430  -3.350  24.140  0.00  0.00    -0.000 A 
ATOM     29  C   UNL     1      -2.061  -2.719  24.519  0.00  0.00    -0.000 A 
ATOM     30  C   UNL     1      -2.512  -2.106  24.838  0.00  0.00    -0.002 A 
ENDBRANCH  24  25
ENDBRANCH  23  24
ENDBRANCH  19  23
TORSDOF 7
ENDMDL
