MODEL 1
REMARK VINA RESULT:     -11.6      0.000      0.000
REMARK  Name = 
REMARK  2 active torsions:
REMARK  status: ('A' for Active; 'I' for Inactive)
REMARK    1  A    between atoms: C_5  and  N_8
REMARK    2  A    between atoms: C_11  and  C_13
REMARK                            x       y       z     vdW  Elec       q    Type
REMARK                         _______ _______ _______ _____ _____    ______ ____
ROOT
ATOM      8  N   UNL     1      -3.495   2.311  24.935  0.00  0.00    -0.273 NA
ATOM      9  C   UNL     1      -4.319   2.298  24.893  0.00  0.00    +0.073 C 
ATOM     10  C   UNL     1      -4.557   1.513  24.800  0.00  0.00    +0.028 C 
ATOM     11  C   UNL     1      -3.880   1.041  24.785  0.00  0.00    +0.094 C 
ATOM     12  C   UNL     1      -3.224   1.534  24.869  0.00  0.00    +0.081 C 
ENDROOT
BRANCH  11  13
ATOM     13  C   UNL     1      -3.863   0.221  24.701  0.00  0.00    +0.207 A 
ATOM     14  N   UNL     1      -3.528  -0.314  25.231  0.00  0.00    -0.212 NA
ATOM     15  C   UNL     1      -3.636  -1.074  24.929  0.00  0.00    +0.119 A 
ATOM     16  C   UNL     1      -4.038  -1.009  24.212  0.00  0.00    +0.164 A 
ATOM     17  O   UNL     1      -4.178  -0.209  24.070  0.00  0.00    -0.438 OA
ATOM     18  C   UNL     1      -4.224  -1.687  23.781  0.00  0.00    +0.040 A 
ATOM     19  C   UNL     1      -4.008  -2.430  24.066  0.00  0.00    +0.015 A 
ATOM     20  C   UNL     1      -3.606  -2.495  24.783  0.00  0.00    +0.059 A 
ATOM     21 CL   UNL     1      -3.390  -3.238  25.070  0.00  0.00    -0.082 Cl
ATOM     22  C   UNL     1      -3.420  -1.818  25.215  0.00  0.00    +0.034 A 
ENDBRANCH  11  13
BRANCH   8   5
ATOM      1  C   UNL     1      -1.613   4.996  25.309  0.00  0.00    +0.090 C 
ATOM      2  N   UNL     1      -2.084   4.325  25.215  0.00  0.00    -0.271 NA
ATOM      3  C   UNL     1      -2.740   4.210  25.701  0.00  0.00    +0.074 C 
ATOM      4  C   UNL     1      -3.210   3.539  25.608  0.00  0.00    +0.033 C 
ATOM      5  C   UNL     1      -3.025   2.982  25.029  0.00  0.00    +0.060 C 
ATOM      6  C   UNL     1      -2.368   3.097  24.542  0.00  0.00    +0.033 C 
ATOM      7  C   UNL     1      -1.898   3.769  24.635  0.00  0.00    +0.074 C 
ENDBRANCH   8   5
TORSDOF 2
ENDMDL
MODEL 2
REMARK VINA RESULT:     -11.5      2.083      5.126
REMARK  Name = 
REMARK  2 active torsions:
REMARK  status: ('A' for Active; 'I' for Inactive)
REMARK    1  A    between atoms: C_5  and  N_8
REMARK    2  A    between atoms: C_11  and  C_13
REMARK                            x       y       z     vdW  Elec       q    Type
REMARK                         _______ _______ _______ _____ _____    ______ ____
ROOT
ATOM      8  N   UNL     1      -3.891   0.304  24.730  0.00  0.00    -0.273 NA
ATOM      9  C   UNL     1      -4.583   0.747  24.648  0.00  0.00    +0.073 C 
ATOM     10  C   UNL     1      -4.386   1.544  24.732  0.00  0.00    +0.028 C 
ATOM     11  C   UNL     1      -3.573   1.594  24.865  0.00  0.00    +0.094 C 
ATOM     12  C   UNL     1      -3.267   0.828  24.864  0.00  0.00    +0.081 C 
ENDROOT
BRANCH  11  13
ATOM     13  C   UNL     1      -3.142   2.288  24.979  0.00  0.00    +0.207 A 
ATOM     14  N   UNL     1      -2.431   2.484  24.610  0.00  0.00    -0.212 NA
ATOM     15  C   UNL     1      -2.197   3.225  24.885  0.00  0.00    +0.119 A 
ATOM     16  C   UNL     1      -2.763   3.488  25.424  0.00  0.00    +0.164 A 
ATOM     17  O   UNL     1      -3.348   2.909  25.482  0.00  0.00    -0.438 OA
ATOM     18  C   UNL     1      -2.673   4.221  25.792  0.00  0.00    +0.040 A 
ATOM     19  C   UNL     1      -2.017   4.690  25.621  0.00  0.00    +0.015 A 
ATOM     20  C   UNL     1      -1.450   4.427  25.082  0.00  0.00    +0.059 A 
ATOM     21 CL   UNL     1      -0.794   4.896  24.911  0.00  0.00    -0.082 Cl
ATOM     22  C   UNL     1      -1.540   3.695  24.713  0.00  0.00    +0.034 A 
ENDBRANCH  11  13
BRANCH   8   5
ATOM      1  C   UNL     1      -3.659  -2.983  24.552  0.00  0.00    +0.090 C 
ATOM      2  N   UNL     1      -3.717  -2.161  24.597  0.00  0.00    -0.271 NA
ATOM      3  C   UNL     1      -4.001  -1.732  23.952  0.00  0.00    +0.074 C 
ATOM      4  C   UNL     1      -4.059  -0.911  23.997  0.00  0.00    +0.033 C 
ATOM      5  C   UNL     1      -3.833  -0.517  24.686  0.00  0.00    +0.060 C 
ATOM      6  C   UNL     1      -3.549  -0.947  25.331  0.00  0.00    +0.033 C 
ATOM      7  C   UNL     1      -3.491  -1.769  25.286  0.00  0.00    +0.074 C 
ENDBRANCH   8   5
TORSDOF 2
ENDMDL
MODEL 3
REMARK VINA RESULT:     -10.0      1.414      1.929
REMARK  Name = 
REMARK  2 active torsions:
REMARK  status: ('A' for Active; 'I' for Inactive)
REMARK    1  A    between atoms: C_5  and  N_8
REMARK    2  A    between atoms: C_11  and  C_13
REMARK                            x       y       z     vdW  Elec       q    Type
REMARK                         _______ _______ _______ _____ _____    ______ ____
ROOT
ATOM      8  N   UNL     1      -4.061   1.944  24.504  0.00  0.00    -0.273 NA
ATOM      9  C   UNL     1      -3.533   1.984  23.872  0.00  0.00    +0.073 C 
ATOM     10  C   UNL     1      -3.246   1.223  23.731  0.00  0.00    +0.028 C 
ATOM     11  C   UNL     1      -3.597   0.713  24.277  0.00  0.00    +0.094 C 
ATOM     12  C   UNL     1      -4.101   1.158  24.754  0.00  0.00    +0.081 C 
ENDROOT
BRANCH  11  13
ATOM     13  C   UNL     1      -3.467  -0.100  24.334  0.00  0.00    +0.207 A 
ATOM     14  N   UNL     1      -4.012  -0.692  24.153  0.00  0.00    -0.212 NA
ATOM     15  C   UNL     1      -3.651  -1.421  24.289  0.00  0.00    +0.119 A 
ATOM     16  C   UNL     1      -2.883  -1.279  24.555  0.00  0.00    +0.164 A 
ATOM     17  O   UNL     1      -2.769  -0.463  24.583  0.00  0.00    -0.438 OA
ATOM     18  C   UNL     1      -2.386  -1.913  24.737  0.00  0.00    +0.040 A 
ATOM     19  C   UNL     1      -2.658  -2.687  24.654  0.00  0.00    +0.015 A 
ATOM     20  C   UNL     1      -3.426  -2.829  24.388  0.00  0.00    +0.059 A 
ATOM     21 CL   UNL     1      -3.698  -3.603  24.305  0.00  0.00    -0.082 Cl
ATOM     22  C   UNL     1      -3.923  -2.196  24.206  0.00  0.00    +0.034 A 
ENDBRANCH  11  13
BRANCH   8   5
ATOM      1  C   UNL     1      -5.724   4.480  25.806  0.00  0.00    +0.090 C 
ATOM      2  N   UNL     1      -5.308   3.845  25.481  0.00  0.00    -0.271 NA
ATOM      3  C   UNL     1      -4.553   3.963  25.171  0.00  0.00    +0.074 C 
ATOM      4  C   UNL     1      -4.137   3.329  24.846  0.00  0.00    +0.033 C 
ATOM      5  C   UNL     1      -4.477   2.577  24.830  0.00  0.00    +0.060 C 
ATOM      6  C   UNL     1      -5.233   2.460  25.140  0.00  0.00    +0.033 C 
ATOM      7  C   UNL     1      -5.649   3.094  25.465  0.00  0.00    +0.074 C 
ENDBRANCH   8   5
TORSDOF 2
ENDMDL
MODEL 4
REMARK VINA RESULT:      -9.6      2.401      4.610
REMARK  Name = 
REMARK  2 active torsions:
REMARK  status: ('A' for Active; 'I' for Inactive)
REMARK    1  A    between atoms: C_5  and  N_8
REMARK    2  A    between atoms: C_11  and  C_13
REMARK                            x       y       z     vdW  Elec       q    Type
REMARK                         _______ _______ _______ _____ _____    ______ ____
ROOT
ATOM      8  N   UNL     1      -2.931  -0.691  24.733  0.00  0.00    -0.273 NA
ATOM      9  C   UNL     1      -3.562  -0.959  24.274  0.00  0.00    +0.073 C 
ATOM     10  C   UNL     1      -4.160  -0.391  24.307  0.00  0.00    +0.028 C 
ATOM     11  C   UNL     1      -3.898   0.227  24.786  0.00  0.00    +0.094 C 
ATOM     12  C   UNL     1      -3.139   0.042  25.050  0.00  0.00    +0.081 C 
ENDROOT
BRANCH  11  13
ATOM     13  C   UNL     1      -4.321   0.911  24.970  0.00  0.00    +0.207 A 
ATOM     14  N   UNL     1      -4.077   1.686  24.827  0.00  0.00    -0.212 NA
ATOM     15  C   UNL     1      -4.668   2.193  25.097  0.00  0.00    +0.119 A 
ATOM     16  C   UNL     1      -5.278   1.732  25.407  0.00  0.00    +0.164 A 
ATOM     17  O   UNL     1      -5.064   0.940  25.328  0.00  0.00    -0.438 OA
ATOM     18  C   UNL     1      -5.950   2.094  25.720  0.00  0.00    +0.040 A 
ATOM     19  C   UNL     1      -6.012   2.917  25.724  0.00  0.00    +0.015 A 
ATOM     20  C   UNL     1      -5.402   3.378  25.415  0.00  0.00    +0.059 A 
ATOM     21 CL   UNL     1      -5.463   4.200  25.419  0.00  0.00    -0.082 Cl
ATOM     22  C   UNL     1      -4.730   3.017  25.101  0.00  0.00    +0.034 A 
ENDBRANCH  11  13
BRANCH   8   5
ATOM      1  C   UNL     1      -0.076  -2.275  25.219  0.00  0.00    +0.090 C 
ATOM      2  N   UNL     1      -0.790  -1.878  25.098  0.00  0.00    -0.271 NA
ATOM      3  C   UNL     1      -1.432  -2.278  24.769  0.00  0.00    +0.074 C 
ATOM      4  C   UNL     1      -2.145  -1.882  24.648  0.00  0.00    +0.033 C 
ATOM      5  C   UNL     1      -2.217  -1.087  24.855  0.00  0.00    +0.060 C 
ATOM      6  C   UNL     1      -1.574  -0.687  25.184  0.00  0.00    +0.033 C 
ATOM      7  C   UNL     1      -0.860  -1.083  25.305  0.00  0.00    +0.074 C 
ENDBRANCH   8   5
TORSDOF 2
ENDMDL
MODEL 5
REMARK VINA RESULT:      -9.3      2.976      4.082
REMARK  Name = 
REMARK  2 active torsions:
REMARK  status: ('A' for Active; 'I' for Inactive)
REMARK    1  A    between atoms: C_5  and  N_8
REMARK    2  A    between atoms: C_11  and  C_13
REMARK                            x       y       z     vdW  Elec       q    Type
REMARK                         _______ _______ _______ _____ _____    ______ ____
ROOT
ATOM      8  N   UNL     1      -1.053   0.360  24.490  0.00  0.00    -0.273 NA
ATOM      9  C   UNL     1      -1.213  -0.014  25.208  0.00  0.00    +0.073 C 
ATOM     10  C   UNL     1      -1.968   0.214  25.451  0.00  0.00    +0.028 C 
ATOM     11  C   UNL     1      -2.274   0.729  24.884  0.00  0.00    +0.094 C 
ATOM     12  C   UNL     1      -1.709   0.820  24.290  0.00  0.00    +0.081 C 
ENDROOT
BRANCH  11  13
ATOM     13  C   UNL     1      -3.015   1.091  24.907  0.00  0.00    +0.207 A 
ATOM     14  N   UNL     1      -3.744   0.704  24.903  0.00  0.00    -0.212 NA
ATOM     15  C   UNL     1      -4.336   1.276  24.931  0.00  0.00    +0.119 A 
ATOM     16  C   UNL     1      -3.974   2.017  24.953  0.00  0.00    +0.164 A 
ATOM     17  O   UNL     1      -3.158   1.903  24.938  0.00  0.00    -0.438 OA
ATOM     18  C   UNL     1      -4.436   2.701  24.984  0.00  0.00    +0.040 A 
ATOM     19  C   UNL     1      -5.258   2.643  24.993  0.00  0.00    +0.015 A 
ATOM     20  C   UNL     1      -5.620   1.902  24.971  0.00  0.00    +0.059 A 
ATOM     21 CL   UNL     1      -6.443   1.844  24.980  0.00  0.00    -0.082 Cl
ATOM     22  C   UNL     1      -5.160   1.218  24.941  0.00  0.00    +0.034 A 
ENDBRANCH  11  13
BRANCH   8   5
ATOM      1  C   UNL     1       1.723   0.073  22.728  0.00  0.00    +0.090 C 
ATOM      2  N   UNL     1       1.029   0.145  23.168  0.00  0.00    -0.271 NA
ATOM      3  C   UNL     1       0.804   0.880  23.467  0.00  0.00    +0.074 C 
ATOM      4  C   UNL     1       0.110   0.952  23.907  0.00  0.00    +0.033 C 
ATOM      5  C   UNL     1      -0.359   0.288  24.050  0.00  0.00    +0.060 C 
ATOM      6  C   UNL     1      -0.134  -0.448  23.751  0.00  0.00    +0.033 C 
ATOM      7  C   UNL     1       0.560  -0.519  23.310  0.00  0.00    +0.074 C 
ENDBRANCH   8   5
TORSDOF 2
ENDMDL
MODEL 6
REMARK VINA RESULT:      -9.2      1.831      2.352
REMARK  Name = 
REMARK  2 active torsions:
REMARK  status: ('A' for Active; 'I' for Inactive)
REMARK    1  A    between atoms: C_5  and  N_8
REMARK    2  A    between atoms: C_11  and  C_13
REMARK                            x       y       z     vdW  Elec       q    Type
REMARK                         _______ _______ _______ _____ _____    ______ ____
ROOT
ATOM      8  N   UNL     1      -4.523   1.283  24.913  0.00  0.00    -0.273 NA
ATOM      9  C   UNL     1      -5.014   0.686  24.626  0.00  0.00    +0.073 C 
ATOM     10  C   UNL     1      -4.564  -0.002  24.556  0.00  0.00    +0.028 C 
ATOM     11  C   UNL     1      -3.794   0.170  24.799  0.00  0.00    +0.094 C 
ATOM     12  C   UNL     1      -3.769   0.964  25.020  0.00  0.00    +0.081 C 
ENDROOT
BRANCH  11  13
ATOM     13  C   UNL     1      -3.162  -0.359  24.819  0.00  0.00    +0.207 A 
ATOM     14  N   UNL     1      -2.385  -0.179  25.031  0.00  0.00    -0.212 NA
ATOM     15  C   UNL     1      -1.939  -0.870  24.972  0.00  0.00    +0.119 A 
ATOM     16  C   UNL     1      -2.439  -1.477  24.724  0.00  0.00    +0.164 A 
ATOM     17  O   UNL     1      -3.195  -1.162  24.629  0.00  0.00    -0.438 OA
ATOM     18  C   UNL     1      -2.141  -2.239  24.617  0.00  0.00    +0.040 A 
ATOM     19  C   UNL     1      -1.344  -2.394  24.757  0.00  0.00    +0.015 A 
ATOM     20  C   UNL     1      -0.843  -1.787  25.005  0.00  0.00    +0.059 A 
ATOM     21 CL   UNL     1      -0.045  -1.941  25.146  0.00  0.00    -0.082 Cl
ATOM     22  C   UNL     1      -1.140  -1.025  25.113  0.00  0.00    +0.034 A 
ENDBRANCH  11  13
BRANCH   8   5
ATOM      1  C   UNL     1      -5.413   4.402  25.526  0.00  0.00    +0.090 C 
ATOM      2  N   UNL     1      -5.191   3.622  25.373  0.00  0.00    -0.271 NA
ATOM      3  C   UNL     1      -4.539   3.466  24.892  0.00  0.00    +0.074 C 
ATOM      4  C   UNL     1      -4.316   2.687  24.739  0.00  0.00    +0.033 C 
ATOM      5  C   UNL     1      -4.746   2.063  25.066  0.00  0.00    +0.060 C 
ATOM      6  C   UNL     1      -5.398   2.219  25.547  0.00  0.00    +0.033 C 
ATOM      7  C   UNL     1      -5.620   2.999  25.701  0.00  0.00    +0.074 C 
ENDBRANCH   8   5
TORSDOF 2
ENDMDL
MODEL 7
REMARK VINA RESULT:      -7.9     17.145     19.329
REMARK  Name = 
REMARK  2 active torsions:
REMARK  status: ('A' for Active; 'I' for Inactive)
REMARK    1  A    between atoms: C_5  and  N_8
REMARK    2  A    between atoms: C_11  and  C_13
REMARK                            x       y       z     vdW  Elec       q    Type
REMARK                         _______ _______ _______ _____ _____    ______ ____
ROOT
ATOM      8  N   UNL     1      13.110   7.739  21.488  0.00  0.00    -0.273 NA
ATOM      9  C   UNL     1      13.543   8.424  21.640  0.00  0.00    +0.073 C 
ATOM     10  C   UNL     1      14.312   8.306  21.364  0.00  0.00    +0.028 C 
ATOM     11  C   UNL     1      14.353   7.547  21.041  0.00  0.00    +0.094 C 
ATOM     12  C   UNL     1      13.610   7.197  21.118  0.00  0.00    +0.081 C 
ENDROOT
BRANCH  11  13
ATOM     13  C   UNL     1      15.020   7.200  20.701  0.00  0.00    +0.207 A 
ATOM     14  N   UNL     1      15.083   6.929  19.925  0.00  0.00    -0.212 NA
ATOM     15  C   UNL     1      15.843   6.625  19.822  0.00  0.00    +0.119 A 
ATOM     16  C   UNL     1      16.250   6.708  20.535  0.00  0.00    +0.164 A 
ATOM     17  O   UNL     1      15.741   7.064  21.079  0.00  0.00    -0.438 OA
ATOM     18  C   UNL     1      17.031   6.449  20.597  0.00  0.00    +0.040 A 
ATOM     19  C   UNL     1      17.405   6.108  19.946  0.00  0.00    +0.015 A 
ATOM     20  C   UNL     1      16.998   6.024  19.233  0.00  0.00    +0.059 A 
ATOM     21 CL   UNL     1      17.372   5.683  18.582  0.00  0.00    -0.082 Cl
ATOM     22  C   UNL     1      16.217   6.283  19.171  0.00  0.00    +0.034 A 
ENDBRANCH  11  13
BRANCH   8   5
ATOM      1  C   UNL     1       9.932   7.247  22.230  0.00  0.00    +0.090 C 
ATOM      2  N   UNL     1      10.727   7.370  22.045  0.00  0.00    -0.271 NA
ATOM      3  C   UNL     1      11.166   6.768  21.692  0.00  0.00    +0.074 C 
ATOM      4  C   UNL     1      11.960   6.891  21.507  0.00  0.00    +0.033 C 
ATOM      5  C   UNL     1      12.316   7.616  21.674  0.00  0.00    +0.060 C 
ATOM      6  C   UNL     1      11.876   8.219  22.027  0.00  0.00    +0.033 C 
ATOM      7  C   UNL     1      11.081   8.096  22.212  0.00  0.00    +0.074 C 
ENDBRANCH   8   5
TORSDOF 2
ENDMDL
