MODEL 1
REMARK VINA RESULT:      -9.9      0.000      0.000
REMARK  Name = 
REMARK  3 active torsions:
REMARK  status: ('A' for Active; 'I' for Inactive)
REMARK    1  A    between atoms: O_2  and  C_3
REMARK    2  A    between atoms: C_3  and  C_4
REMARK    3  A    between atoms: N_12  and  C_13
REMARK                            x       y       z     vdW  Elec       q    Type
REMARK                         _______ _______ _______ _____ _____    ______ ____
ROOT
ATOM      4  C   UNL     1      -1.612   2.984  24.841  0.00  0.00    +0.256 C 
ATOM      5  O   UNL     1      -0.828   2.790  24.674  0.00  0.00    -0.272 OA
ATOM      6  N   UNL     1      -2.191   2.395  24.850  0.00  0.00    -0.274 N 
ATOM      7  C   UNL     1      -2.975   2.590  25.017  0.00  0.00    +0.115 C 
ATOM      8  C   UNL     1      -3.552   2.002  25.025  0.00  0.00    +0.116 C 
ATOM      9  N   UNL     1      -3.347   1.218  24.867  0.00  0.00    -0.261 N 
ATOM     10  C   UNL     1      -2.563   1.024  24.699  0.00  0.00    +0.116 C 
ATOM     11  C   UNL     1      -2.525   0.211  24.565  0.00  0.00    +0.116 C 
ATOM     12  N   UNL     1      -3.285  -0.097  24.649  0.00  0.00    -0.264 N 
ATOM     19  C   UNL     1      -3.793   0.526  24.835  0.00  0.00    +0.307 C 
ATOM     20  O   UNL     1      -4.605   0.466  24.968  0.00  0.00    -0.252 OA
ATOM     21  C   UNL     1      -1.984   1.613  24.691  0.00  0.00    +0.115 C 
ENDROOT
BRANCH  12  13
ATOM     13  C   UNL     1      -3.500  -0.889  24.562  0.00  0.00    +0.077 C 
ATOM     14  C   UNL     1      -3.281  -1.441  25.135  0.00  0.00    +0.020 C 
ATOM     15  C   UNL     1      -3.496  -2.233  25.048  0.00  0.00    +0.002 C 
ATOM     16  C   UNL     1      -3.930  -2.472  24.389  0.00  0.00    +0.000 C 
ATOM     17  C   UNL     1      -4.149  -1.921  23.816  0.00  0.00    +0.002 C 
ATOM     18  C   UNL     1      -3.934  -1.129  23.903  0.00  0.00    +0.020 C 
ENDBRANCH  12  13
BRANCH   4   3
ATOM      3  C   UNL     1      -1.818   3.767  25.000  0.00  0.00    +0.227 C 
BRANCH   3   2
ATOM      1  C   UNL     1      -1.442   5.140  25.118  0.00  0.00    +0.175 C 
ATOM      2  O   UNL     1      -1.231   4.345  25.053  0.00  0.00    -0.342 OA
ENDBRANCH   3   2
ENDBRANCH   4   3
TORSDOF 3
ENDMDL
MODEL 2
REMARK VINA RESULT:      -9.8      0.959      1.386
REMARK  Name = 
REMARK  3 active torsions:
REMARK  status: ('A' for Active; 'I' for Inactive)
REMARK    1  A    between atoms: O_2  and  C_3
REMARK    2  A    between atoms: C_3  and  C_4
REMARK    3  A    between atoms: N_12  and  C_13
REMARK                            x       y       z     vdW  Elec       q    Type
REMARK                         _______ _______ _______ _____ _____    ______ ____
ROOT
ATOM      4  C   UNL     1      -2.533   3.310  25.117  0.00  0.00    +0.256 C 
ATOM      5  O   UNL     1      -3.278   3.587  25.337  0.00  0.00    -0.272 OA
ATOM      6  N   UNL     1      -2.423   2.509  24.951  0.00  0.00    -0.274 N 
ATOM      7  C   UNL     1      -1.677   2.232  24.731  0.00  0.00    +0.115 C 
ATOM      8  C   UNL     1      -1.568   1.431  24.565  0.00  0.00    +0.116 C 
ATOM      9  N   UNL     1      -2.203   0.907  24.619  0.00  0.00    -0.261 N 
ATOM     10  C   UNL     1      -2.948   1.184  24.840  0.00  0.00    +0.116 C 
ATOM     11  C   UNL     1      -3.466   0.543  24.847  0.00  0.00    +0.116 C 
ATOM     12  N   UNL     1      -3.042  -0.130  24.631  0.00  0.00    -0.264 N 
ATOM     19  C   UNL     1      -2.261   0.095  24.491  0.00  0.00    +0.307 C 
ATOM     20  O   UNL     1      -1.646  -0.405  24.261  0.00  0.00    -0.252 OA
ATOM     21  C   UNL     1      -3.058   1.986  25.006  0.00  0.00    +0.115 C 
ENDROOT
BRANCH  12  13
ATOM     13  C   UNL     1      -3.345  -0.895  24.567  0.00  0.00    +0.077 C 
ATOM     14  C   UNL     1      -3.834  -1.093  23.932  0.00  0.00    +0.020 C 
ATOM     15  C   UNL     1      -4.138  -1.858  23.868  0.00  0.00    +0.002 C 
ATOM     16  C   UNL     1      -3.952  -2.424  24.439  0.00  0.00    +0.000 C 
ATOM     17  C   UNL     1      -3.464  -2.226  25.073  0.00  0.00    +0.002 C 
ATOM     18  C   UNL     1      -3.161  -1.461  25.137  0.00  0.00    +0.020 C 
ENDBRANCH  12  13
BRANCH   4   3
ATOM      3  C   UNL     1      -1.897   3.833  25.062  0.00  0.00    +0.227 C 
BRANCH   3   2
ATOM      1  C   UNL     1      -1.383   5.165  25.130  0.00  0.00    +0.175 C 
ATOM      2  O   UNL     1      -2.007   4.634  25.228  0.00  0.00    -0.342 OA
ENDBRANCH   3   2
ENDBRANCH   4   3
TORSDOF 3
ENDMDL
MODEL 3
REMARK VINA RESULT:      -9.4      2.073      2.516
REMARK  Name = 
REMARK  3 active torsions:
REMARK  status: ('A' for Active; 'I' for Inactive)
REMARK    1  A    between atoms: O_2  and  C_3
REMARK    2  A    between atoms: C_3  and  C_4
REMARK    3  A    between atoms: N_12  and  C_13
REMARK                            x       y       z     vdW  Elec       q    Type
REMARK                         _______ _______ _______ _____ _____    ______ ____
ROOT
ATOM      4  C   UNL     1      -5.399   2.678  25.598  0.00  0.00    +0.256 C 
ATOM      5  O   UNL     1      -5.977   2.474  26.151  0.00  0.00    -0.272 OA
ATOM      6  N   UNL     1      -4.950   2.088  25.235  0.00  0.00    -0.274 N 
ATOM      7  C   UNL     1      -4.372   2.291  24.682  0.00  0.00    +0.115 C 
ATOM      8  C   UNL     1      -3.924   1.702  24.319  0.00  0.00    +0.116 C 
ATOM      9  N   UNL     1      -4.052   0.909  24.508  0.00  0.00    -0.261 N 
ATOM     10  C   UNL     1      -4.630   0.706  25.061  0.00  0.00    +0.116 C 
ATOM     11  C   UNL     1      -4.633  -0.115  25.136  0.00  0.00    +0.116 C 
ATOM     12  N   UNL     1      -4.058  -0.420  24.631  0.00  0.00    -0.264 N 
ATOM     19  C   UNL     1      -3.699   0.214  24.243  0.00  0.00    +0.307 C 
ATOM     20  O   UNL     1      -3.092   0.160  23.686  0.00  0.00    -0.252 OA
ATOM     21  C   UNL     1      -5.079   1.296  25.424  0.00  0.00    +0.115 C 
ENDROOT
BRANCH  12  13
ATOM     13  C   UNL     1      -3.873  -1.217  24.530  0.00  0.00    +0.077 C 
ATOM     14  C   UNL     1      -3.304  -1.573  25.011  0.00  0.00    +0.020 C 
ATOM     15  C   UNL     1      -3.120  -2.371  24.911  0.00  0.00    +0.002 C 
ATOM     16  C   UNL     1      -3.504  -2.813  24.330  0.00  0.00    +0.000 C 
ATOM     17  C   UNL     1      -4.072  -2.458  23.849  0.00  0.00    +0.002 C 
ATOM     18  C   UNL     1      -4.257  -1.660  23.950  0.00  0.00    +0.020 C 
ENDBRANCH  12  13
BRANCH   4   3
ATOM      3  C   UNL     1      -5.270   3.470  25.408  0.00  0.00    +0.227 C 
BRANCH   3   2
ATOM      1  C   UNL     1      -5.705   4.830  25.464  0.00  0.00    +0.175 C 
ATOM      2  O   UNL     1      -5.736   4.058  25.753  0.00  0.00    -0.342 OA
ENDBRANCH   3   2
ENDBRANCH   4   3
TORSDOF 3
ENDMDL
MODEL 4
REMARK VINA RESULT:      -9.1      0.987      4.840
REMARK  Name = 
REMARK  3 active torsions:
REMARK  status: ('A' for Active; 'I' for Inactive)
REMARK    1  A    between atoms: O_2  and  C_3
REMARK    2  A    between atoms: C_3  and  C_4
REMARK    3  A    between atoms: N_12  and  C_13
REMARK                            x       y       z     vdW  Elec       q    Type
REMARK                         _______ _______ _______ _____ _____    ______ ____
ROOT
ATOM      4  C   UNL     1      -3.315  -0.506  24.367  0.00  0.00    +0.256 C 
ATOM      5  O   UNL     1      -3.966  -0.318  23.896  0.00  0.00    -0.272 OA
ATOM      6  N   UNL     1      -2.814   0.092  24.637  0.00  0.00    -0.274 N 
ATOM      7  C   UNL     1      -2.163  -0.097  25.108  0.00  0.00    +0.115 C 
ATOM      8  C   UNL     1      -1.663   0.500  25.377  0.00  0.00    +0.116 C 
ATOM      9  N   UNL     1      -1.812   1.287  25.176  0.00  0.00    -0.261 N 
ATOM     10  C   UNL     1      -2.462   1.475  24.705  0.00  0.00    +0.116 C 
ATOM     11  C   UNL     1      -2.470   2.292  24.596  0.00  0.00    +0.116 C 
ATOM     12  N   UNL     1      -1.825   2.609  25.000  0.00  0.00    -0.264 N 
ATOM     19  C   UNL     1      -1.418   1.987  25.358  0.00  0.00    +0.307 C 
ATOM     20  O   UNL     1      -0.737   2.055  25.818  0.00  0.00    -0.252 OA
ATOM     21  C   UNL     1      -2.964   0.877  24.435  0.00  0.00    +0.115 C 
ENDROOT
BRANCH  12  13
ATOM     13  C   UNL     1      -1.622   3.408  25.039  0.00  0.00    +0.077 C 
ATOM     14  C   UNL     1      -2.099   3.936  25.458  0.00  0.00    +0.020 C 
ATOM     15  C   UNL     1      -1.896   4.734  25.497  0.00  0.00    +0.002 C 
ATOM     16  C   UNL     1      -1.215   5.005  25.118  0.00  0.00    +0.000 C 
ATOM     17  C   UNL     1      -0.738   4.479  24.700  0.00  0.00    +0.002 C 
ATOM     18  C   UNL     1      -0.941   3.680  24.661  0.00  0.00    +0.020 C 
ENDBRANCH  12  13
BRANCH   4   3
ATOM      3  C   UNL     1      -3.166  -1.292  24.569  0.00  0.00    +0.227 C 
BRANCH   3   2
ATOM      1  C   UNL     1      -3.509  -2.676  24.485  0.00  0.00    +0.175 C 
ATOM      2  O   UNL     1      -3.679  -1.887  24.317  0.00  0.00    -0.342 OA
ENDBRANCH   3   2
ENDBRANCH   4   3
TORSDOF 3
ENDMDL
MODEL 5
REMARK VINA RESULT:      -9.1      2.404      3.530
REMARK  Name = 
REMARK  3 active torsions:
REMARK  status: ('A' for Active; 'I' for Inactive)
REMARK    1  A    between atoms: O_2  and  C_3
REMARK    2  A    between atoms: C_3  and  C_4
REMARK    3  A    between atoms: N_12  and  C_13
REMARK                            x       y       z     vdW  Elec       q    Type
REMARK                         _______ _______ _______ _____ _____    ______ ____
ROOT
ATOM      4  C   UNL     1      -0.621   0.372  24.079  0.00  0.00    +0.256 C 
ATOM      5  O   UNL     1      -0.555  -0.167  24.700  0.00  0.00    -0.272 OA
ATOM      6  N   UNL     1      -1.290   0.852  24.018  0.00  0.00    -0.274 N 
ATOM      7  C   UNL     1      -1.356   1.391  23.397  0.00  0.00    +0.115 C 
ATOM      8  C   UNL     1      -2.025   1.870  23.336  0.00  0.00    +0.116 C 
ATOM      9  N   UNL     1      -2.628   1.811  23.896  0.00  0.00    -0.261 N 
ATOM     10  C   UNL     1      -2.562   1.271  24.517  0.00  0.00    +0.116 C 
ATOM     11  C   UNL     1      -3.239   1.335  24.983  0.00  0.00    +0.116 C 
ATOM     12  N   UNL     1      -3.724   1.913  24.650  0.00  0.00    -0.264 N 
ATOM     19  C   UNL     1      -3.346   2.207  23.979  0.00  0.00    +0.307 C 
ATOM     20  O   UNL     1      -3.636   2.794  23.477  0.00  0.00    -0.252 OA
ATOM     21  C   UNL     1      -1.893   0.792  24.578  0.00  0.00    +0.115 C 
ENDROOT
BRANCH  12  13
ATOM     13  C   UNL     1      -4.459   2.155  24.939  0.00  0.00    +0.077 C 
ATOM     14  C   UNL     1      -5.131   1.699  24.790  0.00  0.00    +0.020 C 
ATOM     15  C   UNL     1      -5.865   1.941  25.079  0.00  0.00    +0.002 C 
ATOM     16  C   UNL     1      -5.927   2.639  25.515  0.00  0.00    +0.000 C 
ATOM     17  C   UNL     1      -5.256   3.094  25.663  0.00  0.00    +0.002 C 
ATOM     18  C   UNL     1      -4.522   2.852  25.375  0.00  0.00    +0.020 C 
ENDBRANCH  12  13
BRANCH   4   3
ATOM      3  C   UNL     1      -0.019   0.433  23.519  0.00  0.00    +0.227 C 
BRANCH   3   2
ATOM      1  C   UNL     1       1.174  -0.083  22.924  0.00  0.00    +0.175 C 
ATOM      2  O   UNL     1       0.570  -0.144  23.483  0.00  0.00    -0.342 OA
ENDBRANCH   3   2
ENDBRANCH   4   3
TORSDOF 3
ENDMDL
MODEL 6
REMARK VINA RESULT:      -7.6     17.707     19.536
REMARK  Name = 
REMARK  3 active torsions:
REMARK  status: ('A' for Active; 'I' for Inactive)
REMARK    1  A    between atoms: O_2  and  C_3
REMARK    2  A    between atoms: C_3  and  C_4
REMARK    3  A    between atoms: N_12  and  C_13
REMARK                            x       y       z     vdW  Elec       q    Type
REMARK                         _______ _______ _______ _____ _____    ______ ____
ROOT
ATOM      4  C   UNL     1      12.499   8.294  17.223  0.00  0.00    +0.256 C 
ATOM      5  O   UNL     1      12.867   8.651  16.577  0.00  0.00    -0.272 OA
ATOM      6  N   UNL     1      12.954   7.925  17.805  0.00  0.00    -0.274 N 
ATOM      7  C   UNL     1      12.586   7.567  18.452  0.00  0.00    +0.115 C 
ATOM      8  C   UNL     1      13.040   7.199  19.032  0.00  0.00    +0.116 C 
ATOM      9  N   UNL     1      13.863   7.187  18.968  0.00  0.00    -0.261 N 
ATOM     10  C   UNL     1      14.231   7.545  18.322  0.00  0.00    +0.116 C 
ATOM     11  C   UNL     1      15.045   7.447  18.406  0.00  0.00    +0.116 C 
ATOM     12  N   UNL     1      15.181   7.029  19.104  0.00  0.00    -0.264 N 
ATOM     19  C   UNL     1      14.450   6.869  19.451  0.00  0.00    +0.307 C 
ATOM     20  O   UNL     1      14.328   6.461  20.158  0.00  0.00    -0.252 OA
ATOM     21  C   UNL     1      13.776   7.914  17.740  0.00  0.00    +0.115 C 
ENDROOT
BRANCH  12  13
ATOM     13  C   UNL     1      15.918   6.810  19.402  0.00  0.00    +0.077 C 
ATOM     14  C   UNL     1      16.288   6.125  19.127  0.00  0.00    +0.020 C 
ATOM     15  C   UNL     1      17.026   5.906  19.425  0.00  0.00    +0.002 C 
ATOM     16  C   UNL     1      17.393   6.371  19.999  0.00  0.00    +0.000 C 
ATOM     17  C   UNL     1      17.024   7.055  20.274  0.00  0.00    +0.002 C 
ATOM     18  C   UNL     1      16.287   7.275  19.975  0.00  0.00    +0.020 C 
ENDBRANCH  12  13
BRANCH   4   3
ATOM      3  C   UNL     1      11.677   8.304  17.289  0.00  0.00    +0.227 C 
BRANCH   3   2
ATOM      1  C   UNL     1      10.394   8.570  16.718  0.00  0.00    +0.175 C 
ATOM      2  O   UNL     1      11.215   8.542  16.646  0.00  0.00    -0.342 OA
ENDBRANCH   3   2
ENDBRANCH   4   3
TORSDOF 3
ENDMDL
MODEL 7
REMARK VINA RESULT:      -7.3     16.753     18.958
REMARK  Name = 
REMARK  3 active torsions:
REMARK  status: ('A' for Active; 'I' for Inactive)
REMARK    1  A    between atoms: O_2  and  C_3
REMARK    2  A    between atoms: C_3  and  C_4
REMARK    3  A    between atoms: N_12  and  C_13
REMARK                            x       y       z     vdW  Elec       q    Type
REMARK                         _______ _______ _______ _____ _____    ______ ____
ROOT
ATOM      4  C   UNL     1      12.036   7.373  21.515  0.00  0.00    +0.256 C 
ATOM      5  O   UNL     1      11.780   6.603  21.665  0.00  0.00    -0.272 OA
ATOM      6  N   UNL     1      12.785   7.504  21.194  0.00  0.00    -0.274 N 
ATOM      7  C   UNL     1      13.041   8.274  21.044  0.00  0.00    +0.115 C 
ATOM      8  C   UNL     1      13.789   8.405  20.723  0.00  0.00    +0.116 C 
ATOM      9  N   UNL     1      14.282   7.766  20.551  0.00  0.00    -0.261 N 
ATOM     10  C   UNL     1      14.026   6.996  20.700  0.00  0.00    +0.116 C 
ATOM     11  C   UNL     1      14.628   6.479  20.475  0.00  0.00    +0.116 C 
ATOM     12  N   UNL     1      15.256   6.929  20.187  0.00  0.00    -0.264 N 
ATOM     19  C   UNL     1      15.042   7.724  20.234  0.00  0.00    +0.307 C 
ATOM     20  O   UNL     1      15.507   8.366  20.004  0.00  0.00    -0.252 OA
ATOM     21  C   UNL     1      13.277   6.865  21.022  0.00  0.00    +0.115 C 
ENDROOT
BRANCH  12  13
ATOM     13  C   UNL     1      15.972   6.636  19.902  0.00  0.00    +0.077 C 
ATOM     14  C   UNL     1      16.633   6.609  20.396  0.00  0.00    +0.020 C 
ATOM     15  C   UNL     1      17.350   6.315  20.111  0.00  0.00    +0.002 C 
ATOM     16  C   UNL     1      17.405   6.049  19.331  0.00  0.00    +0.000 C 
ATOM     17  C   UNL     1      16.746   6.077  18.838  0.00  0.00    +0.002 C 
ATOM     18  C   UNL     1      16.029   6.370  19.123  0.00  0.00    +0.020 C 
ENDBRANCH  12  13
BRANCH   4   3
ATOM      3  C   UNL     1      11.544   8.012  21.688  0.00  0.00    +0.227 C 
BRANCH   3   2
ATOM      1  C   UNL     1      10.413   8.543  22.381  0.00  0.00    +0.175 C 
ATOM      2  O   UNL     1      10.853   7.895  22.123  0.00  0.00    -0.342 OA
ENDBRANCH   3   2
ENDBRANCH   4   3
TORSDOF 3
ENDMDL
MODEL 8
REMARK VINA RESULT:      -7.1     15.726     17.891
REMARK  Name = 
REMARK  3 active torsions:
REMARK  status: ('A' for Active; 'I' for Inactive)
REMARK    1  A    between atoms: O_2  and  C_3
REMARK    2  A    between atoms: C_3  and  C_4
REMARK    3  A    between atoms: N_12  and  C_13
REMARK                            x       y       z     vdW  Elec       q    Type
REMARK                         _______ _______ _______ _____ _____    ______ ____
ROOT
ATOM      4  C   UNL     1      13.754   8.623  17.529  0.00  0.00    +0.256 C 
ATOM      5  O   UNL     1      14.499   8.560  17.877  0.00  0.00    -0.272 OA
ATOM      6  N   UNL     1      13.074   8.580  17.997  0.00  0.00    -0.274 N 
ATOM      7  C   UNL     1      12.329   8.643  17.649  0.00  0.00    +0.115 C 
ATOM      8  C   UNL     1      11.651   8.601  18.117  0.00  0.00    +0.116 C 
ATOM      9  N   UNL     1      11.718   8.495  18.932  0.00  0.00    -0.261 N 
ATOM     10  C   UNL     1      12.463   8.433  19.280  0.00  0.00    +0.116 C 
ATOM     11  C   UNL     1      12.358   8.332  20.092  0.00  0.00    +0.116 C 
ATOM     12  N   UNL     1      11.548   8.333  20.246  0.00  0.00    -0.264 N 
ATOM     19  C   UNL     1      11.153   8.434  19.529  0.00  0.00    +0.307 C 
ATOM     20  O   UNL     1      10.335   8.467  19.427  0.00  0.00    -0.252 OA
ATOM     21  C   UNL     1      13.142   8.475  18.812  0.00  0.00    +0.115 C 
ENDROOT
BRANCH  12  13
ATOM     13  C   UNL     1      11.195   8.248  20.987  0.00  0.00    +0.077 C 
ATOM     14  C   UNL     1      10.989   7.497  21.262  0.00  0.00    +0.020 C 
ATOM     15  C   UNL     1      10.636   7.412  22.003  0.00  0.00    +0.002 C 
ATOM     16  C   UNL     1      10.489   8.077  22.469  0.00  0.00    +0.000 C 
ATOM     17  C   UNL     1      10.695   8.827  22.194  0.00  0.00    +0.002 C 
ATOM     18  C   UNL     1      11.048   8.912  21.453  0.00  0.00    +0.020 C 
ENDBRANCH  12  13
BRANCH   4   3
ATOM      3  C   UNL     1      13.686   8.728  16.714  0.00  0.00    +0.227 C 
BRANCH   3   2
ATOM      1  C   UNL     1      14.320   8.952  15.453  0.00  0.00    +0.175 C 
ATOM      2  O   UNL     1      14.360   8.700  16.237  0.00  0.00    -0.342 OA
ENDBRANCH   3   2
ENDBRANCH   4   3
TORSDOF 3
ENDMDL
MODEL 9
REMARK VINA RESULT:      -6.9     16.175     18.426
REMARK  Name = 
REMARK  3 active torsions:
REMARK  status: ('A' for Active; 'I' for Inactive)
REMARK    1  A    between atoms: O_2  and  C_3
REMARK    2  A    between atoms: C_3  and  C_4
REMARK    3  A    between atoms: N_12  and  C_13
REMARK                            x       y       z     vdW  Elec       q    Type
REMARK                         _______ _______ _______ _____ _____    ______ ____
ROOT
ATOM      4  C   UNL     1      15.401   6.539  19.214  0.00  0.00    +0.256 C 
ATOM      5  O   UNL     1      15.106   6.444  18.449  0.00  0.00    -0.272 OA
ATOM      6  N   UNL     1      14.902   6.789  19.822  0.00  0.00    -0.274 N 
ATOM      7  C   UNL     1      15.197   6.884  20.586  0.00  0.00    +0.115 C 
ATOM      8  C   UNL     1      14.698   7.134  21.193  0.00  0.00    +0.116 C 
ATOM      9  N   UNL     1      13.902   7.289  21.036  0.00  0.00    -0.261 N 
ATOM     10  C   UNL     1      13.607   7.194  20.271  0.00  0.00    +0.116 C 
ATOM     11  C   UNL     1      12.806   7.387  20.282  0.00  0.00    +0.116 C 
ATOM     12  N   UNL     1      12.605   7.601  21.053  0.00  0.00    -0.264 N 
ATOM     19  C   UNL     1      13.283   7.540  21.518  0.00  0.00    +0.307 C 
ATOM     20  O   UNL     1      13.333   7.703  22.326  0.00  0.00    -0.252 OA
ATOM     21  C   UNL     1      14.107   6.944  19.664  0.00  0.00    +0.115 C 
ENDROOT
BRANCH  12  13
ATOM     13  C   UNL     1      11.858   7.835  21.313  0.00  0.00    +0.077 C 
ATOM     14  C   UNL     1      11.638   8.630  21.276  0.00  0.00    +0.020 C 
ATOM     15  C   UNL     1      10.891   8.864  21.536  0.00  0.00    +0.002 C 
ATOM     16  C   UNL     1      10.363   8.302  21.832  0.00  0.00    +0.000 C 
ATOM     17  C   UNL     1      10.582   7.509  21.869  0.00  0.00    +0.002 C 
ATOM     18  C   UNL     1      11.330   7.275  21.609  0.00  0.00    +0.020 C 
ENDBRANCH  12  13
BRANCH   4   3
ATOM      3  C   UNL     1      16.196   6.384  19.372  0.00  0.00    +0.227 C 
BRANCH   3   2
ATOM      1  C   UNL     1      17.405   5.722  18.995  0.00  0.00    +0.175 C 
ATOM      2  O   UNL     1      16.672   6.041  18.791  0.00  0.00    -0.342 OA
ENDBRANCH   3   2
ENDBRANCH   4   3
TORSDOF 3
ENDMDL
MODEL 10
REMARK VINA RESULT:      -6.4     18.024     19.444
REMARK  Name = 
REMARK  3 active torsions:
REMARK  status: ('A' for Active; 'I' for Inactive)
REMARK    1  A    between atoms: O_2  and  C_3
REMARK    2  A    between atoms: C_3  and  C_4
REMARK    3  A    between atoms: N_12  and  C_13
REMARK                            x       y       z     vdW  Elec       q    Type
REMARK                         _______ _______ _______ _____ _____    ______ ____
ROOT
ATOM      4  C   UNL     1      15.816   6.826  19.424  0.00  0.00    +0.256 C 
ATOM      5  O   UNL     1      16.135   6.343  18.836  0.00  0.00    -0.272 OA
ATOM      6  N   UNL     1      15.136   7.268  19.271  0.00  0.00    -0.274 N 
ATOM      7  C   UNL     1      14.817   7.751  19.860  0.00  0.00    +0.115 C 
ATOM      8  C   UNL     1      14.138   8.192  19.707  0.00  0.00    +0.116 C 
ATOM      9  N   UNL     1      13.776   8.152  18.966  0.00  0.00    -0.261 N 
ATOM     10  C   UNL     1      14.095   7.669  18.378  0.00  0.00    +0.116 C 
ATOM     11  C   UNL     1      13.623   7.740  17.706  0.00  0.00    +0.116 C 
ATOM     12  N   UNL     1      13.012   8.266  17.879  0.00  0.00    -0.264 N 
ATOM     19  C   UNL     1      13.107   8.520  18.657  0.00  0.00    +0.307 C 
ATOM     20  O   UNL     1      12.618   9.051  19.058  0.00  0.00    -0.252 OA
ATOM     21  C   UNL     1      14.776   7.227  18.531  0.00  0.00    +0.115 C 
ENDROOT
BRANCH  12  13
ATOM     13  C   UNL     1      12.411   8.497  17.363  0.00  0.00    +0.077 C 
ATOM     14  C   UNL     1      11.621   8.364  17.563  0.00  0.00    +0.020 C 
ATOM     15  C   UNL     1      11.020   8.595  17.047  0.00  0.00    +0.002 C 
ATOM     16  C   UNL     1      11.209   8.960  16.332  0.00  0.00    +0.000 C 
ATOM     17  C   UNL     1      11.997   9.094  16.132  0.00  0.00    +0.002 C 
ATOM     18  C   UNL     1      12.598   8.862  16.647  0.00  0.00    +0.020 C 
ENDBRANCH  12  13
BRANCH   4   3
ATOM      3  C   UNL     1      16.177   6.867  20.165  0.00  0.00    +0.227 C 
BRANCH   3   2
ATOM      1  C   UNL     1      17.203   6.441  21.063  0.00  0.00    +0.175 C 
ATOM      2  O   UNL     1      16.796   6.354  20.351  0.00  0.00    -0.342 OA
ENDBRANCH   3   2
ENDBRANCH   4   3
TORSDOF 3
ENDMDL
