MODEL 1
REMARK VINA RESULT:      -9.7      0.000      0.000
REMARK  Name = 
REMARK  2 active torsions:
REMARK  status: ('A' for Active; 'I' for Inactive)
REMARK    1  A    between atoms: C_2  and  N_3
REMARK    2  A    between atoms: N_12  and  C_13
REMARK                            x       y       z     vdW  Elec       q    Type
REMARK                         _______ _______ _______ _____ _____    ______ ____
ROOT
ATOM      3  N   UNL     1      -1.809   3.780  25.037  0.00  0.00    -0.188 NA
ATOM      4  C   UNL     1      -1.603   2.990  24.917  0.00  0.00    +0.323 C 
ATOM      5  O   UNL     1      -0.812   2.782  24.809  0.00  0.00    -0.251 OA
ATOM      6  N   UNL     1      -2.189   2.409  24.905  0.00  0.00    -0.259 N 
ATOM      7  C   UNL     1      -2.980   2.618  25.013  0.00  0.00    +0.117 C 
ATOM      8  C   UNL     1      -3.565   2.037  25.001  0.00  0.00    +0.117 C 
ATOM      9  N   UNL     1      -3.360   1.247  24.881  0.00  0.00    -0.261 N 
ATOM     10  C   UNL     1      -2.569   1.038  24.773  0.00  0.00    +0.117 C 
ATOM     11  C   UNL     1      -2.534   0.221  24.667  0.00  0.00    +0.116 C 
ATOM     12  N   UNL     1      -3.302  -0.076  24.709  0.00  0.00    -0.264 N 
ATOM     19  C   UNL     1      -3.812   0.559  24.842  0.00  0.00    +0.307 C 
ATOM     20  O   UNL     1      -4.632   0.513  24.921  0.00  0.00    -0.252 OA
ATOM     21  C   UNL     1      -1.983   1.619  24.785  0.00  0.00    +0.117 C 
ENDROOT
BRANCH  12  13
ATOM     13  C   UNL     1      -3.521  -0.867  24.633  0.00  0.00    +0.082 C 
ATOM     14  C   UNL     1      -3.917  -1.122  23.954  0.00  0.00    +0.052 C 
ATOM     15  C   UNL     1      -4.136  -1.914  23.878  0.00  0.00    +0.144 C 
ATOM     16  O   UNL     1      -3.960  -2.450  24.480  0.00  0.00    -0.354 OA
ATOM     17  C   UNL     1      -3.565  -2.196  25.157  0.00  0.00    +0.144 C 
ATOM     18  C   UNL     1      -3.346  -1.404  25.234  0.00  0.00    +0.052 C 
ENDBRANCH  12  13
BRANCH   3   2
ATOM      1  C   UNL     1      -1.433   5.156  25.117  0.00  0.00    +0.025 C 
ATOM      2  C   UNL     1      -1.223   4.362  25.049  0.00  0.00    +0.117 C 
ENDBRANCH   3   2
TORSDOF 2
ENDMDL
MODEL 2
REMARK VINA RESULT:      -9.2      1.116      4.707
REMARK  Name = 
REMARK  2 active torsions:
REMARK  status: ('A' for Active; 'I' for Inactive)
REMARK    1  A    between atoms: C_2  and  N_3
REMARK    2  A    between atoms: N_12  and  C_13
REMARK                            x       y       z     vdW  Elec       q    Type
REMARK                         _______ _______ _______ _____ _____    ______ ____
ROOT
ATOM      3  N   UNL     1      -3.605  -1.239  24.290  0.00  0.00    -0.188 NA
ATOM      4  C   UNL     1      -3.073  -0.768  24.709  0.00  0.00    +0.323 C 
ATOM      5  O   UNL     1      -2.578  -1.107  25.276  0.00  0.00    -0.251 OA
ATOM      6  N   UNL     1      -3.036   0.044  24.562  0.00  0.00    -0.259 N 
ATOM      7  C   UNL     1      -3.531   0.383  23.995  0.00  0.00    +0.117 C 
ATOM      8  C   UNL     1      -3.493   1.193  23.848  0.00  0.00    +0.117 C 
ATOM      9  N   UNL     1      -2.962   1.665  24.267  0.00  0.00    -0.261 N 
ATOM     10  C   UNL     1      -2.468   1.326  24.834  0.00  0.00    +0.117 C 
ATOM     11  C   UNL     1      -2.003   1.925  25.158  0.00  0.00    +0.116 C 
ATOM     12  N   UNL     1      -2.210   2.635  24.792  0.00  0.00    -0.264 N 
ATOM     19  C   UNL     1      -2.802   2.474  24.242  0.00  0.00    +0.307 C 
ATOM     20  O   UNL     1      -3.171   3.025  23.752  0.00  0.00    -0.252 OA
ATOM     21  C   UNL     1      -2.504   0.515  24.981  0.00  0.00    +0.117 C 
ENDROOT
BRANCH  12  13
ATOM     13  C   UNL     1      -1.881   3.375  24.949  0.00  0.00    +0.082 C 
ATOM     14  C   UNL     1      -1.126   3.559  24.671  0.00  0.00    +0.052 C 
ATOM     15  C   UNL     1      -0.798   4.300  24.828  0.00  0.00    +0.144 C 
ATOM     16  O   UNL     1      -1.225   4.856  25.263  0.00  0.00    -0.354 OA
ATOM     17  C   UNL     1      -1.979   4.672  25.541  0.00  0.00    +0.144 C 
ATOM     18  C   UNL     1      -2.307   3.932  25.384  0.00  0.00    +0.052 C 
ENDBRANCH  12  13
BRANCH   3   2
ATOM      1  C   UNL     1      -4.129  -2.531  23.977  0.00  0.00    +0.025 C 
ATOM      2  C   UNL     1      -3.642  -2.051  24.438  0.00  0.00    +0.117 C 
ENDBRANCH   3   2
TORSDOF 2
ENDMDL
MODEL 3
REMARK VINA RESULT:      -8.9      2.424      3.523
REMARK  Name = 
REMARK  2 active torsions:
REMARK  status: ('A' for Active; 'I' for Inactive)
REMARK    1  A    between atoms: C_2  and  N_3
REMARK    2  A    between atoms: N_12  and  C_13
REMARK                            x       y       z     vdW  Elec       q    Type
REMARK                         _______ _______ _______ _____ _____    ______ ____
ROOT
ATOM      3  N   UNL     1      -0.130   0.436  23.457  0.00  0.00    -0.188 NA
ATOM      4  C   UNL     1      -0.715   0.404  24.037  0.00  0.00    +0.323 C 
ATOM      5  O   UNL     1      -0.632  -0.108  24.679  0.00  0.00    -0.251 OA
ATOM      6  N   UNL     1      -1.383   0.885  23.976  0.00  0.00    -0.259 N 
ATOM      7  C   UNL     1      -1.466   1.397  23.334  0.00  0.00    +0.117 C 
ATOM      8  C   UNL     1      -2.133   1.877  23.274  0.00  0.00    +0.117 C 
ATOM      9  N   UNL     1      -2.719   1.846  23.854  0.00  0.00    -0.261 N 
ATOM     10  C   UNL     1      -2.636   1.334  24.495  0.00  0.00    +0.117 C 
ATOM     11  C   UNL     1      -3.299   1.422  24.979  0.00  0.00    +0.116 C 
ATOM     12  N   UNL     1      -3.791   1.989  24.636  0.00  0.00    -0.264 N 
ATOM     19  C   UNL     1      -3.432   2.250  23.941  0.00  0.00    +0.307 C 
ATOM     20  O   UNL     1      -3.734   2.818  23.424  0.00  0.00    -0.252 OA
ATOM     21  C   UNL     1      -1.968   0.853  24.557  0.00  0.00    +0.117 C 
ENDROOT
BRANCH  12  13
ATOM     13  C   UNL     1      -4.514   2.248  24.936  0.00  0.00    +0.082 C 
ATOM     14  C   UNL     1      -5.195   1.796  24.819  0.00  0.00    +0.052 C 
ATOM     15  C   UNL     1      -5.919   2.055  25.119  0.00  0.00    +0.144 C 
ATOM     16  O   UNL     1      -5.961   2.766  25.536  0.00  0.00    -0.354 OA
ATOM     17  C   UNL     1      -5.281   3.217  25.653  0.00  0.00    +0.144 C 
ATOM     18  C   UNL     1      -4.558   2.958  25.353  0.00  0.00    +0.052 C 
ENDBRANCH  12  13
BRANCH   3   2
ATOM      1  C   UNL     1       1.107  -0.038  22.920  0.00  0.00    +0.025 C 
ATOM      2  C   UNL     1       0.538  -0.045  23.518  0.00  0.00    +0.117 C 
ENDBRANCH   3   2
TORSDOF 2
ENDMDL
MODEL 4
REMARK VINA RESULT:      -8.3      1.910      2.514
REMARK  Name = 
REMARK  2 active torsions:
REMARK  status: ('A' for Active; 'I' for Inactive)
REMARK    1  A    between atoms: C_2  and  N_3
REMARK    2  A    between atoms: N_12  and  C_13
REMARK                            x       y       z     vdW  Elec       q    Type
REMARK                         _______ _______ _______ _____ _____    ______ ____
ROOT
ATOM      3  N   UNL     1      -5.068   3.153  25.313  0.00  0.00    -0.188 NA
ATOM      4  C   UNL     1      -5.223   2.347  25.391  0.00  0.00    +0.323 C 
ATOM      5  O   UNL     1      -5.933   2.093  25.726  0.00  0.00    -0.251 OA
ATOM      6  N   UNL     1      -4.668   1.793  25.132  0.00  0.00    -0.259 N 
ATOM      7  C   UNL     1      -3.958   2.047  24.796  0.00  0.00    +0.117 C 
ATOM      8  C   UNL     1      -3.403   1.494  24.538  0.00  0.00    +0.117 C 
ATOM      9  N   UNL     1      -3.558   0.687  24.615  0.00  0.00    -0.261 N 
ATOM     10  C   UNL     1      -4.267   0.434  24.950  0.00  0.00    +0.117 C 
ATOM     11  C   UNL     1      -4.267  -0.391  24.954  0.00  0.00    +0.116 C 
ATOM     12  N   UNL     1      -3.557  -0.647  24.621  0.00  0.00    -0.264 N 
ATOM     19  C   UNL     1      -3.120   0.019  24.412  0.00  0.00    +0.307 C 
ATOM     20  O   UNL     1      -2.373   0.018  24.060  0.00  0.00    -0.252 OA
ATOM     21  C   UNL     1      -4.823   0.987  25.209  0.00  0.00    +0.117 C 
ENDROOT
BRANCH  12  13
ATOM     13  C   UNL     1      -3.326  -1.432  24.516  0.00  0.00    +0.082 C 
ATOM     14  C   UNL     1      -2.574  -1.677  24.753  0.00  0.00    +0.052 C 
ATOM     15  C   UNL     1      -2.343  -2.462  24.648  0.00  0.00    +0.144 C 
ATOM     16  O   UNL     1      -2.864  -3.002  24.306  0.00  0.00    -0.354 OA
ATOM     17  C   UNL     1      -3.615  -2.759  24.070  0.00  0.00    +0.144 C 
ATOM     18  C   UNL     1      -3.846  -1.974  24.174  0.00  0.00    +0.052 C 
ENDBRANCH  12  13
BRANCH   3   2
ATOM      1  C   UNL     1      -5.441   4.511  25.557  0.00  0.00    +0.025 C 
ATOM      2  C   UNL     1      -5.623   3.706  25.572  0.00  0.00    +0.117 C 
ENDBRANCH   3   2
TORSDOF 2
ENDMDL
MODEL 5
REMARK VINA RESULT:      -6.9      2.069      3.810
REMARK  Name = 
REMARK  2 active torsions:
REMARK  status: ('A' for Active; 'I' for Inactive)
REMARK    1  A    between atoms: C_2  and  N_3
REMARK    2  A    between atoms: N_12  and  C_13
REMARK                            x       y       z     vdW  Elec       q    Type
REMARK                         _______ _______ _______ _____ _____    ______ ____
ROOT
ATOM      3  N   UNL     1      -5.296   1.835  24.798  0.00  0.00    -0.188 NA
ATOM      4  C   UNL     1      -4.648   1.349  24.951  0.00  0.00    +0.323 C 
ATOM      5  O   UNL     1      -4.729   0.695  25.447  0.00  0.00    -0.251 OA
ATOM      6  N   UNL     1      -3.917   1.517  24.605  0.00  0.00    -0.259 N 
ATOM      7  C   UNL     1      -3.835   2.170  24.109  0.00  0.00    +0.117 C 
ATOM      8  C   UNL     1      -3.105   2.338  23.764  0.00  0.00    +0.117 C 
ATOM      9  N   UNL     1      -2.456   1.852  23.916  0.00  0.00    -0.261 N 
ATOM     10  C   UNL     1      -2.537   1.198  24.413  0.00  0.00    +0.117 C 
ATOM     11  C   UNL     1      -1.805   0.822  24.460  0.00  0.00    +0.116 C 
ATOM     12  N   UNL     1      -1.271   1.242  23.993  0.00  0.00    -0.264 N 
ATOM     19  C   UNL     1      -1.674   1.879  23.657  0.00  0.00    +0.307 C 
ATOM     20  O   UNL     1      -1.350   2.444  23.150  0.00  0.00    -0.252 OA
ATOM     21  C   UNL     1      -3.268   1.031  24.758  0.00  0.00    +0.117 C 
ENDROOT
BRANCH  12  13
ATOM     13  C   UNL     1      -0.475   1.058  23.882  0.00  0.00    +0.082 C 
ATOM     14  C   UNL     1      -0.262   0.392  23.443  0.00  0.00    +0.052 C 
ATOM     15  C   UNL     1       0.535   0.209  23.331  0.00  0.00    +0.144 C 
ATOM     16  O   UNL     1       1.118   0.691  23.659  0.00  0.00    -0.354 OA
ATOM     17  C   UNL     1       0.906   1.356  24.098  0.00  0.00    +0.144 C 
ATOM     18  C   UNL     1       0.110   1.540  24.209  0.00  0.00    +0.052 C 
ENDBRANCH  12  13
BRANCH   3   2
ATOM      1  C   UNL     1      -6.512   2.283  25.400  0.00  0.00    +0.025 C 
ATOM      2  C   UNL     1      -6.027   1.667  25.143  0.00  0.00    +0.117 C 
ENDBRANCH   3   2
TORSDOF 2
ENDMDL
MODEL 6
REMARK VINA RESULT:      -6.1     15.446     17.668
REMARK  Name = 
REMARK  2 active torsions:
REMARK  status: ('A' for Active; 'I' for Inactive)
REMARK    1  A    between atoms: C_2  and  N_3
REMARK    2  A    between atoms: N_12  and  C_13
REMARK                            x       y       z     vdW  Elec       q    Type
REMARK                         _______ _______ _______ _____ _____    ______ ____
ROOT
ATOM      3  N   UNL     1      -2.348 -10.604  14.319  0.00  0.00    -0.188 NA
ATOM      4  C   UNL     1      -2.169 -10.474  13.524  0.00  0.00    +0.323 C 
ATOM      5  O   UNL     1      -1.384 -10.376  13.289  0.00  0.00    -0.251 OA
ATOM      6  N   UNL     1      -2.775 -10.443  12.964  0.00  0.00    -0.259 N 
ATOM      7  C   UNL     1      -3.560 -10.542  13.200  0.00  0.00    +0.117 C 
ATOM      8  C   UNL     1      -4.164 -10.511  12.640  0.00  0.00    +0.117 C 
ATOM      9  N   UNL     1      -3.986 -10.381  11.845  0.00  0.00    -0.261 N 
ATOM     10  C   UNL     1      -3.201 -10.282  11.610  0.00  0.00    +0.117 C 
ATOM     11  C   UNL     1      -3.193 -10.164  10.794  0.00  0.00    +0.116 C 
ATOM     12  N   UNL     1      -3.972 -10.189  10.525  0.00  0.00    -0.264 N 
ATOM     19  C   UNL     1      -4.461 -10.323  11.175  0.00  0.00    +0.307 C 
ATOM     20  O   UNL     1      -5.284 -10.388  11.157  0.00  0.00    -0.252 OA
ATOM     21  C   UNL     1      -2.595 -10.313  12.170  0.00  0.00    +0.117 C 
ENDROOT
BRANCH  12  13
ATOM     13  C   UNL     1      -4.218 -10.096   9.743  0.00  0.00    +0.082 C 
ATOM     14  C   UNL     1      -4.352  -9.340   9.439  0.00  0.00    +0.052 C 
ATOM     15  C   UNL     1      -4.599  -9.247   8.657  0.00  0.00    +0.144 C 
ATOM     16  O   UNL     1      -4.711  -9.910   8.179  0.00  0.00    -0.354 OA
ATOM     17  C   UNL     1      -4.577 -10.665   8.482  0.00  0.00    +0.144 C 
ATOM     18  C   UNL     1      -4.330 -10.758   9.264  0.00  0.00    +0.052 C 
ENDBRANCH  12  13
BRANCH   3   2
ATOM      1  C   UNL     1      -1.925 -10.654  15.683  0.00  0.00    +0.025 C 
ATOM      2  C   UNL     1      -1.742 -10.635  14.879  0.00  0.00    +0.117 C 
ENDBRANCH   3   2
TORSDOF 2
ENDMDL
MODEL 7
REMARK VINA RESULT:      -5.9     14.742     17.100
REMARK  Name = 
REMARK  2 active torsions:
REMARK  status: ('A' for Active; 'I' for Inactive)
REMARK    1  A    between atoms: C_2  and  N_3
REMARK    2  A    between atoms: N_12  and  C_13
REMARK                            x       y       z     vdW  Elec       q    Type
REMARK                         _______ _______ _______ _____ _____    ______ ____
ROOT
ATOM      3  N   UNL     1      -4.205 -10.771  15.507  0.00  0.00    -0.188 NA
ATOM      4  C   UNL     1      -4.620 -10.533  14.835  0.00  0.00    +0.323 C 
ATOM      5  O   UNL     1      -5.410 -10.305  14.896  0.00  0.00    -0.251 OA
ATOM      6  N   UNL     1      -4.243 -10.522  14.100  0.00  0.00    -0.259 N 
ATOM      7  C   UNL     1      -3.452 -10.750  14.039  0.00  0.00    +0.117 C 
ATOM      8  C   UNL     1      -3.076 -10.739  13.306  0.00  0.00    +0.117 C 
ATOM      9  N   UNL     1      -3.490 -10.501  12.632  0.00  0.00    -0.261 N 
ATOM     10  C   UNL     1      -4.280 -10.274  12.694  0.00  0.00    +0.117 C 
ATOM     11  C   UNL     1      -4.545 -10.067  11.941  0.00  0.00    +0.116 C 
ATOM     12  N   UNL     1      -3.919 -10.167  11.414  0.00  0.00    -0.264 N 
ATOM     19  C   UNL     1      -3.267 -10.435  11.842  0.00  0.00    +0.307 C 
ATOM     20  O   UNL     1      -2.521 -10.607  11.532  0.00  0.00    -0.252 OA
ATOM     21  C   UNL     1      -4.657 -10.284  13.428  0.00  0.00    +0.117 C 
ENDROOT
BRANCH  12  13
ATOM     13  C   UNL     1      -3.940 -10.023  10.602  0.00  0.00    +0.082 C 
ATOM     14  C   UNL     1      -3.652  -9.311  10.300  0.00  0.00    +0.052 C 
ATOM     15  C   UNL     1      -3.674  -9.167   9.488  0.00  0.00    +0.144 C 
ATOM     16  O   UNL     1      -3.984  -9.736   8.977  0.00  0.00    -0.354 OA
ATOM     17  C   UNL     1      -4.272 -10.448   9.278  0.00  0.00    +0.144 C 
ATOM     18  C   UNL     1      -4.250 -10.591  10.090  0.00  0.00    +0.052 C 
ENDBRANCH  12  13
BRANCH   3   2
ATOM      1  C   UNL     1      -4.134 -10.781  16.934  0.00  0.00    +0.025 C 
ATOM      2  C   UNL     1      -4.582 -10.781  16.242  0.00  0.00    +0.117 C 
ENDBRANCH   3   2
TORSDOF 2
ENDMDL
MODEL 8
REMARK VINA RESULT:      -5.8     13.759     14.300
REMARK  Name = 
REMARK  2 active torsions:
REMARK  status: ('A' for Active; 'I' for Inactive)
REMARK    1  A    between atoms: C_2  and  N_3
REMARK    2  A    between atoms: N_12  and  C_13
REMARK                            x       y       z     vdW  Elec       q    Type
REMARK                         _______ _______ _______ _____ _____    ______ ____
ROOT
ATOM      3  N   UNL     1      -2.998 -10.693  16.370  0.00  0.00    -0.188 NA
ATOM      4  C   UNL     1      -3.738 -10.532  16.043  0.00  0.00    +0.323 C 
ATOM      5  O   UNL     1      -3.822 -10.460  15.225  0.00  0.00    -0.251 OA
ATOM      6  N   UNL     1      -4.395 -10.444  16.535  0.00  0.00    -0.259 N 
ATOM      7  C   UNL     1      -4.312 -10.517  17.352  0.00  0.00    +0.117 C 
ATOM      8  C   UNL     1      -4.968 -10.428  17.843  0.00  0.00    +0.117 C 
ATOM      9  N   UNL     1      -5.709 -10.268  17.517  0.00  0.00    -0.261 N 
ATOM     10  C   UNL     1      -5.793 -10.195  16.700  0.00  0.00    +0.117 C 
ATOM     11  C   UNL     1      -6.585 -10.036  16.537  0.00  0.00    +0.116 C 
ATOM     12  N   UNL     1      -6.992 -10.010  17.254  0.00  0.00    -0.264 N 
ATOM     19  C   UNL     1      -6.450 -10.153  17.859  0.00  0.00    +0.307 C 
ATOM     20  O   UNL     1      -6.620 -10.178  18.667  0.00  0.00    -0.252 OA
ATOM     21  C   UNL     1      -5.135 -10.283  16.208  0.00  0.00    +0.117 C 
ENDROOT
BRANCH  12  13
ATOM     13  C   UNL     1      -7.799  -9.866  17.350  0.00  0.00    +0.082 C 
ATOM     14  C   UNL     1      -8.125  -9.154  17.090  0.00  0.00    +0.052 C 
ATOM     15  C   UNL     1      -8.932  -9.010  17.185  0.00  0.00    +0.144 C 
ATOM     16  O   UNL     1      -9.412  -9.579  17.540  0.00  0.00    -0.354 OA
ATOM     17  C   UNL     1      -9.087 -10.290  17.800  0.00  0.00    +0.144 C 
ATOM     18  C   UNL     1      -8.280 -10.434  17.705  0.00  0.00    +0.052 C 
ENDBRANCH  12  13
BRANCH   3   2
ATOM      1  C   UNL     1      -1.612 -10.469  16.105  0.00  0.00    +0.025 C 
ATOM      2  C   UNL     1      -2.341 -10.781  15.878  0.00  0.00    +0.117 C 
ENDBRANCH   3   2
TORSDOF 2
ENDMDL
