MODEL 1
REMARK VINA RESULT:      -9.5      0.000      0.000
REMARK  Name = 
REMARK  6 active torsions:
REMARK  status: ('A' for Active; 'I' for Inactive)
REMARK    1  A    between atoms: C_2  and  N_3
REMARK    2  A    between atoms: N_6  and  C_7
REMARK    3  A    between atoms: C_11  and  O_15
REMARK    4  A    between atoms: O_15  and  C_16
REMARK    5  A    between atoms: N_18  and  C_19
REMARK    6  A    between atoms: C_22  and  C_25
REMARK                            x       y       z     vdW  Elec       q    Type
REMARK                         _______ _______ _______ _____ _____    ______ ____
ROOT
ATOM      7  C   UNL     1       1.121   0.599  23.387  0.00  0.00    +0.156 C 
ATOM      8  C   UNL     1       0.902  -0.063  22.945  0.00  0.00    +0.166 C 
ATOM      9  O   UNL     1       0.124  -0.254  23.143  0.00  0.00    -0.348 OA
ATOM     10  C   UNL     1      -0.138   0.289  23.706  0.00  0.00    +0.186 C 
ATOM     11  C   UNL     1      -0.779   0.507  24.176  0.00  0.00    +0.229 C 
ATOM     12  C   UNL     1      -0.560   1.169  24.617  0.00  0.00    +0.188 C 
ATOM     13  O   UNL     1       0.218   1.360  24.419  0.00  0.00    -0.348 OA
ATOM     14  C   UNL     1       0.478   0.816  23.856  0.00  0.00    +0.168 C 
ENDROOT
BRANCH   7   6
ATOM      3  N   UNL     1       3.234   0.976  22.994  0.00  0.00    -0.187 NA
ATOM      4  C   UNL     1       2.502   0.598  23.019  0.00  0.00    +0.339 C 
ATOM      5  O   UNL     1       2.417  -0.158  22.700  0.00  0.00    -0.249 OA
ATOM      6  N   UNL     1       1.853   0.976  23.362  0.00  0.00    -0.184 NA
BRANCH   3   2
ATOM      1  C   UNL     1       4.641   0.728  22.947  0.00  0.00    +0.025 C 
ATOM      2  C   UNL     1       3.882   0.598  22.650  0.00  0.00    +0.117 C 
ENDBRANCH   3   2
ENDBRANCH   7   6
BRANCH  11  15
ATOM     15  O   UNL     1      -1.513   0.129  24.201  0.00  0.00    -0.432 OA
BRANCH  15  16
ATOM     16  C   UNL     1      -2.176   0.534  24.477  0.00  0.00    +0.425 C 
ATOM     17  O   UNL     1      -2.163   0.886  25.223  0.00  0.00    -0.224 OA
ATOM     18  N   UNL     1      -2.853   0.587  24.007  0.00  0.00    -0.142 NA
BRANCH  18  19
ATOM     19  C   UNL     1      -3.516   0.992  24.284  0.00  0.00    +0.077 A 
ATOM     20  C   UNL     1      -4.057   0.609  24.776  0.00  0.00    +0.016 A 
ATOM     21  C   UNL     1      -4.720   1.014  25.053  0.00  0.00    -0.003 A 
ATOM     22  C   UNL     1      -4.842   1.801  24.839  0.00  0.00    -0.022 A 
ATOM     23  C   UNL     1      -4.302   2.183  24.347  0.00  0.00    -0.003 A 
ATOM     24  C   UNL     1      -3.638   1.779  24.069  0.00  0.00    +0.016 A 
BRANCH  22  25
ATOM     25  C   UNL     1      -5.506   2.206  25.116  0.00  0.00    +0.022 C 
ATOM     26  C   UNL     1      -6.254   1.865  25.051  0.00  0.00    +0.005 C 
ATOM     27  C   UNL     1      -5.421   2.951  25.459  0.00  0.00    +0.005 C 
ENDBRANCH  22  25
ENDBRANCH  18  19
ENDBRANCH  15  16
ENDBRANCH  11  15
TORSDOF 6
ENDMDL
MODEL 2
REMARK VINA RESULT:      -9.3      2.981      4.328
REMARK  Name = 
REMARK  6 active torsions:
REMARK  status: ('A' for Active; 'I' for Inactive)
REMARK    1  A    between atoms: C_2  and  N_3
REMARK    2  A    between atoms: N_6  and  C_7
REMARK    3  A    between atoms: C_11  and  O_15
REMARK    4  A    between atoms: O_15  and  C_16
REMARK    5  A    between atoms: N_18  and  C_19
REMARK    6  A    between atoms: C_22  and  C_25
REMARK                            x       y       z     vdW  Elec       q    Type
REMARK                         _______ _______ _______ _____ _____    ______ ____
ROOT
ATOM      7  C   UNL     1      -0.383   2.833  25.362  0.00  0.00    +0.156 C 
ATOM      8  C   UNL     1      -0.522   2.555  26.126  0.00  0.00    +0.166 C 
ATOM      9  O   UNL     1      -0.504   1.730  26.103  0.00  0.00    -0.348 OA
ATOM     10  C   UNL     1      -0.354   1.499  25.326  0.00  0.00    +0.186 C 
ATOM     11  C   UNL     1      -0.250   0.848  24.831  0.00  0.00    +0.229 C 
ATOM     12  C   UNL     1      -0.111   1.126  24.068  0.00  0.00    +0.188 C 
ATOM     13  O   UNL     1      -0.129   1.951  24.090  0.00  0.00    -0.348 OA
ATOM     14  C   UNL     1      -0.279   2.181  24.868  0.00  0.00    +0.168 C 
ENDROOT
BRANCH   7   6
ATOM      3  N   UNL     1      -0.973   4.909  25.035  0.00  0.00    -0.187 NA
ATOM      4  C   UNL     1      -1.002   4.117  25.263  0.00  0.00    +0.339 C 
ATOM      5  O   UNL     1      -1.682   3.817  25.623  0.00  0.00    -0.249 OA
ATOM      6  N   UNL     1      -0.353   3.625  25.133  0.00  0.00    -0.184 NA
BRANCH   3   2
ATOM      1  C   UNL     1      -1.653   6.145  24.811  0.00  0.00    +0.025 C 
ATOM      2  C   UNL     1      -1.622   5.401  25.165  0.00  0.00    +0.117 C 
ENDBRANCH   3   2
ENDBRANCH   7   6
BRANCH  11  15
ATOM     15  O   UNL     1      -0.279   0.055  25.060  0.00  0.00    -0.432 OA
BRANCH  15  16
ATOM     16  C   UNL     1      -0.890  -0.429  24.791  0.00  0.00    +0.425 C 
ATOM     17  O   UNL     1      -1.017  -0.522  23.981  0.00  0.00    -0.224 OA
ATOM     18  N   UNL     1      -1.376  -0.820  25.332  0.00  0.00    -0.142 NA
BRANCH  18  19
ATOM     19  C   UNL     1      -1.987  -1.304  25.062  0.00  0.00    +0.077 A 
ATOM     20  C   UNL     1      -2.771  -1.056  25.134  0.00  0.00    +0.016 A 
ATOM     21  C   UNL     1      -3.382  -1.540  24.864  0.00  0.00    -0.003 A 
ATOM     22  C   UNL     1      -3.210  -2.271  24.523  0.00  0.00    -0.022 A 
ATOM     23  C   UNL     1      -2.427  -2.519  24.452  0.00  0.00    -0.003 A 
ATOM     24  C   UNL     1      -1.815  -2.035  24.721  0.00  0.00    +0.016 A 
BRANCH  22  25
ATOM     25  C   UNL     1      -3.822  -2.755  24.253  0.00  0.00    +0.022 C 
ATOM     26  C   UNL     1      -4.403  -2.447  23.756  0.00  0.00    +0.005 C 
ATOM     27  C   UNL     1      -3.853  -3.547  24.482  0.00  0.00    +0.005 C 
ENDBRANCH  22  25
ENDBRANCH  18  19
ENDBRANCH  15  16
ENDBRANCH  11  15
TORSDOF 6
ENDMDL
MODEL 3
REMARK VINA RESULT:      -9.2      3.967      4.981
REMARK  Name = 
REMARK  6 active torsions:
REMARK  status: ('A' for Active; 'I' for Inactive)
REMARK    1  A    between atoms: C_2  and  N_3
REMARK    2  A    between atoms: N_6  and  C_7
REMARK    3  A    between atoms: C_11  and  O_15
REMARK    4  A    between atoms: O_15  and  C_16
REMARK    5  A    between atoms: N_18  and  C_19
REMARK    6  A    between atoms: C_22  and  C_25
REMARK                            x       y       z     vdW  Elec       q    Type
REMARK                         _______ _______ _______ _____ _____    ______ ____
ROOT
ATOM      7  C   UNL     1      -3.335   3.844  25.118  0.00  0.00    +0.156 C 
ATOM      8  C   UNL     1      -3.520   3.555  25.869  0.00  0.00    +0.166 C 
ATOM      9  O   UNL     1      -3.941   2.852  25.775  0.00  0.00    -0.348 OA
ATOM     10  C   UNL     1      -4.017   2.706  24.967  0.00  0.00    +0.186 C 
ATOM     11  C   UNL     1      -4.323   2.182  24.409  0.00  0.00    +0.229 C 
ATOM     12  C   UNL     1      -4.138   2.470  23.659  0.00  0.00    +0.188 C 
ATOM     13  O   UNL     1      -3.717   3.173  23.752  0.00  0.00    -0.348 OA
ATOM     14  C   UNL     1      -3.642   3.318  24.561  0.00  0.00    +0.168 C 
ENDROOT
BRANCH   7   6
ATOM      3  N   UNL     1      -1.692   5.271  24.960  0.00  0.00    -0.187 NA
ATOM      4  C   UNL     1      -2.110   4.580  25.123  0.00  0.00    +0.339 C 
ATOM      5  O   UNL     1      -1.722   3.932  25.456  0.00  0.00    -0.249 OA
ATOM      6  N   UNL     1      -2.917   4.535  24.955  0.00  0.00    -0.184 NA
BRANCH   3   2
ATOM      1  C   UNL     1      -0.371   5.677  24.595  0.00  0.00    +0.025 C 
ATOM      2  C   UNL     1      -0.885   5.316  25.128  0.00  0.00    +0.117 C 
ENDBRANCH   3   2
ENDBRANCH   7   6
BRANCH  11  15
ATOM     15  O   UNL     1      -4.742   1.489  24.573  0.00  0.00    -0.432 OA
BRANCH  15  16
ATOM     16  C   UNL     1      -4.384   0.755  24.459  0.00  0.00    +0.425 C 
ATOM     17  O   UNL     1      -3.875   0.638  23.821  0.00  0.00    -0.224 OA
ATOM     18  N   UNL     1      -4.537   0.136  24.984  0.00  0.00    -0.142 NA
BRANCH  18  19
ATOM     19  C   UNL     1      -4.179  -0.598  24.871  0.00  0.00    +0.077 A 
ATOM     20  C   UNL     1      -3.598  -0.859  25.396  0.00  0.00    +0.016 A 
ATOM     21  C   UNL     1      -3.240  -1.594  25.282  0.00  0.00    -0.003 A 
ATOM     22  C   UNL     1      -3.463  -2.067  24.644  0.00  0.00    -0.022 A 
ATOM     23  C   UNL     1      -4.043  -1.806  24.120  0.00  0.00    -0.003 A 
ATOM     24  C   UNL     1      -4.402  -1.072  24.233  0.00  0.00    +0.016 A 
BRANCH  22  25
ATOM     25  C   UNL     1      -3.104  -2.802  24.531  0.00  0.00    +0.022 C 
ATOM     26  C   UNL     1      -3.566  -3.481  24.465  0.00  0.00    +0.005 C 
ATOM     27  C   UNL     1      -2.282  -2.856  24.485  0.00  0.00    +0.005 C 
ENDBRANCH  22  25
ENDBRANCH  18  19
ENDBRANCH  15  16
ENDBRANCH  11  15
TORSDOF 6
ENDMDL
MODEL 4
REMARK VINA RESULT:      -8.4      3.011      4.619
REMARK  Name = 
REMARK  6 active torsions:
REMARK  status: ('A' for Active; 'I' for Inactive)
REMARK    1  A    between atoms: C_2  and  N_3
REMARK    2  A    between atoms: N_6  and  C_7
REMARK    3  A    between atoms: C_11  and  O_15
REMARK    4  A    between atoms: O_15  and  C_16
REMARK    5  A    between atoms: N_18  and  C_19
REMARK    6  A    between atoms: C_22  and  C_25
REMARK                            x       y       z     vdW  Elec       q    Type
REMARK                         _______ _______ _______ _____ _____    ______ ____
ROOT
ATOM      7  C   UNL     1      -1.368  -1.334  24.920  0.00  0.00    +0.156 C 
ATOM      8  C   UNL     1      -1.375  -1.110  25.715  0.00  0.00    +0.166 C 
ATOM      9  O   UNL     1      -0.936  -0.415  25.786  0.00  0.00    -0.348 OA
ATOM     10  C   UNL     1      -0.659  -0.209  25.038  0.00  0.00    +0.186 C 
ATOM     11  C   UNL     1      -0.217   0.347  24.619  0.00  0.00    +0.229 C 
ATOM     12  C   UNL     1      -0.210   0.123  23.825  0.00  0.00    +0.188 C 
ATOM     13  O   UNL     1      -0.649  -0.572  23.752  0.00  0.00    -0.348 OA
ATOM     14  C   UNL     1      -0.926  -0.777  24.502  0.00  0.00    +0.168 C 
ENDROOT
BRANCH   7   6
ATOM      3  N   UNL     1      -2.925  -2.758  24.363  0.00  0.00    -0.187 NA
ATOM      4  C   UNL     1      -2.555  -2.094  24.682  0.00  0.00    +0.339 C 
ATOM      5  O   UNL     1      -2.999  -1.526  25.082  0.00  0.00    -0.249 OA
ATOM      6  N   UNL     1      -1.739  -1.998  24.601  0.00  0.00    -0.184 NA
BRANCH   3   2
ATOM      1  C   UNL     1      -4.178  -3.198  23.835  0.00  0.00    +0.025 C 
ATOM      2  C   UNL     1      -3.741  -2.855  24.444  0.00  0.00    +0.117 C 
ENDBRANCH   3   2
ENDBRANCH   7   6
BRANCH  11  15
ATOM     15  O   UNL     1       0.154   1.012  24.939  0.00  0.00    -0.432 OA
BRANCH  15  16
ATOM     16  C   UNL     1      -0.182   1.758  24.840  0.00  0.00    +0.425 C 
ATOM     17  O   UNL     1      -0.440   2.001  24.095  0.00  0.00    -0.224 OA
ATOM     18  N   UNL     1      -0.261   2.263  25.489  0.00  0.00    -0.142 NA
BRANCH  18  19
ATOM     19  C   UNL     1      -0.598   3.010  25.391  0.00  0.00    +0.077 A 
ATOM     20  C   UNL     1      -1.350   3.166  25.692  0.00  0.00    +0.016 A 
ATOM     21  C   UNL     1      -1.687   3.912  25.594  0.00  0.00    -0.003 A 
ATOM     22  C   UNL     1      -1.272   4.503  25.195  0.00  0.00    -0.022 A 
ATOM     23  C   UNL     1      -0.520   4.347  24.894  0.00  0.00    -0.003 A 
ATOM     24  C   UNL     1      -0.183   3.601  24.992  0.00  0.00    +0.016 A 
BRANCH  22  25
ATOM     25  C   UNL     1      -1.610   5.250  25.098  0.00  0.00    +0.022 C 
ATOM     26  C   UNL     1      -1.151   5.878  24.825  0.00  0.00    +0.005 C 
ATOM     27  C   UNL     1      -2.407   5.367  25.273  0.00  0.00    +0.005 C 
ENDBRANCH  22  25
ENDBRANCH  18  19
ENDBRANCH  15  16
ENDBRANCH  11  15
TORSDOF 6
ENDMDL
MODEL 5
REMARK VINA RESULT:      -7.6      2.699      3.899
REMARK  Name = 
REMARK  6 active torsions:
REMARK  status: ('A' for Active; 'I' for Inactive)
REMARK    1  A    between atoms: C_2  and  N_3
REMARK    2  A    between atoms: N_6  and  C_7
REMARK    3  A    between atoms: C_11  and  O_15
REMARK    4  A    between atoms: O_15  and  C_16
REMARK    5  A    between atoms: N_18  and  C_19
REMARK    6  A    between atoms: C_22  and  C_25
REMARK                            x       y       z     vdW  Elec       q    Type
REMARK                         _______ _______ _______ _____ _____    ______ ____
ROOT
ATOM      7  C   UNL     1       0.082   2.618  26.318  0.00  0.00    +0.156 C 
ATOM      8  C   UNL     1      -0.637   2.918  26.591  0.00  0.00    +0.166 C 
ATOM      9  O   UNL     1      -1.228   2.674  26.069  0.00  0.00    -0.348 OA
ATOM     10  C   UNL     1      -0.875   2.224  25.475  0.00  0.00    +0.186 C 
ATOM     11  C   UNL     1      -1.021   1.796  24.785  0.00  0.00    +0.229 C 
ATOM     12  C   UNL     1      -0.302   1.496  24.514  0.00  0.00    +0.188 C 
ATOM     13  O   UNL     1       0.289   1.739  25.035  0.00  0.00    -0.348 OA
ATOM     14  C   UNL     1      -0.065   2.189  25.629  0.00  0.00    +0.168 C 
ENDROOT
BRANCH   7   6
ATOM      3  N   UNL     1       1.638   2.743  27.844  0.00  0.00    -0.187 NA
ATOM      4  C   UNL     1       0.902   2.633  27.489  0.00  0.00    +0.339 C 
ATOM      5  O   UNL     1       0.248   2.429  27.949  0.00  0.00    -0.249 OA
ATOM      6  N   UNL     1       0.818   2.727  26.674  0.00  0.00    -0.184 NA
BRANCH   3   2
ATOM      1  C   UNL     1       2.457   2.761  29.015  0.00  0.00    +0.025 C 
ATOM      2  C   UNL     1       1.721   2.649  28.660  0.00  0.00    +0.117 C 
ENDBRANCH   3   2
ENDBRANCH   7   6
BRANCH  11  15
ATOM     15  O   UNL     1      -1.758   1.686  24.430  0.00  0.00    -0.432 OA
BRANCH  15  16
ATOM     16  C   UNL     1      -2.051   0.923  24.317  0.00  0.00    +0.425 C 
ATOM     17  O   UNL     1      -1.626   0.380  23.864  0.00  0.00    -0.224 OA
ATOM     18  N   UNL     1      -2.771   0.704  24.658  0.00  0.00    -0.142 NA
BRANCH  18  19
ATOM     19  C   UNL     1      -3.064  -0.059  24.545  0.00  0.00    +0.077 A 
ATOM     20  C   UNL     1      -3.555  -0.220  23.901  0.00  0.00    +0.016 A 
ATOM     21  C   UNL     1      -3.848  -0.983  23.789  0.00  0.00    -0.003 A 
ATOM     22  C   UNL     1      -3.651  -1.584  24.318  0.00  0.00    -0.022 A 
ATOM     23  C   UNL     1      -3.161  -1.422  24.961  0.00  0.00    -0.003 A 
ATOM     24  C   UNL     1      -2.867  -0.660  25.075  0.00  0.00    +0.016 A 
BRANCH  22  25
ATOM     25  C   UNL     1      -3.945  -2.346  24.204  0.00  0.00    +0.022 C 
ATOM     26  C   UNL     1      -4.610  -2.466  23.731  0.00  0.00    +0.005 C 
ATOM     27  C   UNL     1      -3.574  -2.989  24.564  0.00  0.00    +0.005 C 
ENDBRANCH  22  25
ENDBRANCH  18  19
ENDBRANCH  15  16
ENDBRANCH  11  15
TORSDOF 6
ENDMDL
MODEL 6
REMARK VINA RESULT:      -7.2      1.232      1.665
REMARK  Name = 
REMARK  6 active torsions:
REMARK  status: ('A' for Active; 'I' for Inactive)
REMARK    1  A    between atoms: C_2  and  N_3
REMARK    2  A    between atoms: N_6  and  C_7
REMARK    3  A    between atoms: C_11  and  O_15
REMARK    4  A    between atoms: O_15  and  C_16
REMARK    5  A    between atoms: N_18  and  C_19
REMARK    6  A    between atoms: C_22  and  C_25
REMARK                            x       y       z     vdW  Elec       q    Type
REMARK                         _______ _______ _______ _____ _____    ______ ____
ROOT
ATOM      7  C   UNL     1       0.449   1.194  23.838  0.00  0.00    +0.156 C 
ATOM      8  C   UNL     1       0.653   1.676  24.476  0.00  0.00    +0.166 C 
ATOM      9  O   UNL     1       0.006   2.159  24.647  0.00  0.00    -0.348 OA
ATOM     10  C   UNL     1      -0.597   1.976  24.115  0.00  0.00    +0.186 C 
ATOM     11  C   UNL     1      -1.369   2.161  23.891  0.00  0.00    +0.229 C 
ATOM     12  C   UNL     1      -1.573   1.679  23.254  0.00  0.00    +0.188 C 
ATOM     13  O   UNL     1      -0.926   1.196  23.082  0.00  0.00    -0.348 OA
ATOM     14  C   UNL     1      -0.324   1.380  23.615  0.00  0.00    +0.168 C 
ENDROOT
BRANCH   7   6
ATOM      3  N   UNL     1       2.202   0.241  22.954  0.00  0.00    -0.187 NA
ATOM      4  C   UNL     1       1.718   0.808  23.306  0.00  0.00    +0.339 C 
ATOM      5  O   UNL     1       2.019   1.556  23.481  0.00  0.00    -0.249 OA
ATOM      6  N   UNL     1       0.933   0.628  23.485  0.00  0.00    -0.184 NA
BRANCH   3   2
ATOM      1  C   UNL     1       3.481  -0.156  22.455  0.00  0.00    +0.025 C 
ATOM      2  C   UNL     1       2.987   0.421  22.775  0.00  0.00    +0.117 C 
ENDBRANCH   3   2
ENDBRANCH   7   6
BRANCH  11  15
ATOM     15  O   UNL     1      -1.854   2.728  24.244  0.00  0.00    -0.432 OA
BRANCH  15  16
ATOM     16  C   UNL     1      -2.661   2.585  24.330  0.00  0.00    +0.425 C 
ATOM     17  O   UNL     1      -3.141   2.513  23.663  0.00  0.00    -0.224 OA
ATOM     18  N   UNL     1      -2.990   2.513  25.084  0.00  0.00    -0.142 NA
BRANCH  18  19
ATOM     19  C   UNL     1      -3.797   2.370  25.170  0.00  0.00    +0.077 A 
ATOM     20  C   UNL     1      -4.081   1.594  25.162  0.00  0.00    +0.016 A 
ATOM     21  C   UNL     1      -4.889   1.451  25.248  0.00  0.00    -0.003 A 
ATOM     22  C   UNL     1      -5.413   2.081  25.341  0.00  0.00    -0.022 A 
ATOM     23  C   UNL     1      -5.129   2.855  25.349  0.00  0.00    -0.003 A 
ATOM     24  C   UNL     1      -4.321   3.000  25.263  0.00  0.00    +0.016 A 
BRANCH  22  25
ATOM     25  C   UNL     1      -6.221   1.936  25.427  0.00  0.00    +0.022 C 
ATOM     26  C   UNL     1      -6.690   1.809  24.761  0.00  0.00    +0.005 C 
ATOM     27  C   UNL     1      -6.559   1.919  26.179  0.00  0.00    +0.005 C 
ENDBRANCH  22  25
ENDBRANCH  18  19
ENDBRANCH  15  16
ENDBRANCH  11  15
TORSDOF 6
ENDMDL
MODEL 7
REMARK VINA RESULT:      -7.1      3.813      5.216
REMARK  Name = 
REMARK  6 active torsions:
REMARK  status: ('A' for Active; 'I' for Inactive)
REMARK    1  A    between atoms: C_2  and  N_3
REMARK    2  A    between atoms: N_6  and  C_7
REMARK    3  A    between atoms: C_11  and  O_15
REMARK    4  A    between atoms: O_15  and  C_16
REMARK    5  A    between atoms: N_18  and  C_19
REMARK    6  A    between atoms: C_22  and  C_25
REMARK                            x       y       z     vdW  Elec       q    Type
REMARK                         _______ _______ _______ _____ _____    ______ ____
ROOT
ATOM      7  C   UNL     1      -4.204  -0.660  24.671  0.00  0.00    +0.156 C 
ATOM      8  C   UNL     1      -4.347  -0.573  25.479  0.00  0.00    +0.166 C 
ATOM      9  O   UNL     1      -4.372   0.234  25.648  0.00  0.00    -0.348 OA
ATOM     10  C   UNL     1      -4.243   0.647  24.945  0.00  0.00    +0.186 C 
ATOM     11  C   UNL     1      -4.179   1.399  24.615  0.00  0.00    +0.229 C 
ATOM     12  C   UNL     1      -4.035   1.313  23.808  0.00  0.00    +0.188 C 
ATOM     13  O   UNL     1      -4.011   0.506  23.638  0.00  0.00    -0.348 OA
ATOM     14  C   UNL     1      -4.139   0.094  24.342  0.00  0.00    +0.168 C 
ENDROOT
BRANCH   7   6
ATOM      3  N   UNL     1      -3.589  -2.689  24.156  0.00  0.00    -0.187 NA
ATOM      4  C   UNL     1      -3.656  -1.975  24.562  0.00  0.00    +0.339 C 
ATOM      5  O   UNL     1      -3.243  -1.861  25.267  0.00  0.00    -0.249 OA
ATOM      6  N   UNL     1      -4.137  -1.374  24.265  0.00  0.00    -0.184 NA
BRANCH   3   2
ATOM      1  C   UNL     1      -2.569  -3.671  23.960  0.00  0.00    +0.025 C 
ATOM      2  C   UNL     1      -3.108  -3.290  24.454  0.00  0.00    +0.117 C 
ENDBRANCH   3   2
ENDBRANCH   7   6
BRANCH  11  15
ATOM     15  O   UNL     1      -4.246   2.115  25.023  0.00  0.00    -0.432 OA
BRANCH  15  16
ATOM     16  C   UNL     1      -3.696   2.715  24.893  0.00  0.00    +0.425 C 
ATOM     17  O   UNL     1      -3.739   3.175  24.209  0.00  0.00    -0.224 OA
ATOM     18  N   UNL     1      -3.102   2.857  25.449  0.00  0.00    -0.142 NA
BRANCH  18  19
ATOM     19  C   UNL     1      -2.552   3.458  25.319  0.00  0.00    +0.077 A 
ATOM     20  C   UNL     1      -2.736   4.236  25.524  0.00  0.00    +0.016 A 
ATOM     21  C   UNL     1      -2.186   4.837  25.394  0.00  0.00    -0.003 A 
ATOM     22  C   UNL     1      -1.452   4.660  25.061  0.00  0.00    -0.022 A 
ATOM     23  C   UNL     1      -1.269   3.883  24.857  0.00  0.00    -0.003 A 
ATOM     24  C   UNL     1      -1.818   3.281  24.986  0.00  0.00    +0.016 A 
BRANCH  22  25
ATOM     25  C   UNL     1      -0.903   5.262  24.932  0.00  0.00    +0.022 C 
ATOM     26  C   UNL     1      -0.117   5.076  24.766  0.00  0.00    +0.005 C 
ATOM     27  C   UNL     1      -1.140   6.052  24.969  0.00  0.00    +0.005 C 
ENDBRANCH  22  25
ENDBRANCH  18  19
ENDBRANCH  15  16
ENDBRANCH  11  15
TORSDOF 6
ENDMDL
MODEL 8
REMARK VINA RESULT:      -6.9      1.076      6.687
REMARK  Name = 
REMARK  6 active torsions:
REMARK  status: ('A' for Active; 'I' for Inactive)
REMARK    1  A    between atoms: C_2  and  N_3
REMARK    2  A    between atoms: N_6  and  C_7
REMARK    3  A    between atoms: C_11  and  O_15
REMARK    4  A    between atoms: O_15  and  C_16
REMARK    5  A    between atoms: N_18  and  C_19
REMARK    6  A    between atoms: C_22  and  C_25
REMARK                            x       y       z     vdW  Elec       q    Type
REMARK                         _______ _______ _______ _____ _____    ______ ____
ROOT
ATOM      7  C   UNL     1      -1.818   1.105  24.076  0.00  0.00    +0.156 C 
ATOM      8  C   UNL     1      -1.788   1.585  23.406  0.00  0.00    +0.166 C 
ATOM      9  O   UNL     1      -1.100   1.400  22.991  0.00  0.00    -0.348 OA
ATOM     10  C   UNL     1      -0.704   0.805  23.404  0.00  0.00    +0.186 C 
ATOM     11  C   UNL     1      -0.035   0.323  23.403  0.00  0.00    +0.229 C 
ATOM     12  C   UNL     1      -0.066  -0.157  24.073  0.00  0.00    +0.188 C 
ATOM     13  O   UNL     1      -0.754   0.028  24.488  0.00  0.00    -0.348 OA
ATOM     14  C   UNL     1      -1.148   0.623  24.074  0.00  0.00    +0.168 C 
ENDROOT
BRANCH   7   6
ATOM      3  N   UNL     1      -3.795   1.214  24.994  0.00  0.00    -0.187 NA
ATOM      4  C   UNL     1      -3.200   1.213  24.423  0.00  0.00    +0.339 C 
ATOM      5  O   UNL     1      -3.392   1.317  23.627  0.00  0.00    -0.249 OA
ATOM      6  N   UNL     1      -2.413   1.107  24.647  0.00  0.00    -0.184 NA
BRANCH   3   2
ATOM      1  C   UNL     1      -5.154   1.492  25.339  0.00  0.00    +0.025 C 
ATOM      2  C   UNL     1      -4.582   1.321  24.770  0.00  0.00    +0.117 C 
ENDBRANCH   3   2
ENDBRANCH   7   6
BRANCH  11  15
ATOM     15  O   UNL     1       0.560   0.322  22.831  0.00  0.00    -0.432 OA
BRANCH  15  16
ATOM     16  C   UNL     1       1.352   0.342  23.062  0.00  0.00    +0.425 C 
ATOM     17  O   UNL     1       1.560   0.641  23.802  0.00  0.00    -0.224 OA
ATOM     18  N   UNL     1       1.937   0.061  22.551  0.00  0.00    -0.142 NA
BRANCH  18  19
ATOM     19  C   UNL     1       2.729   0.081  22.781  0.00  0.00    +0.077 A 
ATOM     20  C   UNL     1       3.179   0.761  22.651  0.00  0.00    +0.016 A 
ATOM     21  C   UNL     1       3.971   0.781  22.881  0.00  0.00    -0.003 A 
ATOM     22  C   UNL     1       4.313   0.122  23.242  0.00  0.00    -0.022 A 
ATOM     23  C   UNL     1       3.863  -0.557  23.372  0.00  0.00    -0.003 A 
ATOM     24  C   UNL     1       3.071  -0.578  23.142  0.00  0.00    +0.016 A 
BRANCH  22  25
ATOM     25  C   UNL     1       5.105   0.143  23.472  0.00  0.00    +0.022 C 
ATOM     26  C   UNL     1       5.551  -0.550  23.481  0.00  0.00    +0.005 C 
ATOM     27  C   UNL     1       5.451   0.859  23.693  0.00  0.00    +0.005 C 
ENDBRANCH  22  25
ENDBRANCH  18  19
ENDBRANCH  15  16
ENDBRANCH  11  15
TORSDOF 6
ENDMDL
MODEL 9
REMARK VINA RESULT:      -6.7      2.032      2.760
REMARK  Name = 
REMARK  6 active torsions:
REMARK  status: ('A' for Active; 'I' for Inactive)
REMARK    1  A    between atoms: C_2  and  N_3
REMARK    2  A    between atoms: N_6  and  C_7
REMARK    3  A    between atoms: C_11  and  O_15
REMARK    4  A    between atoms: O_15  and  C_16
REMARK    5  A    between atoms: N_18  and  C_19
REMARK    6  A    between atoms: C_22  and  C_25
REMARK                            x       y       z     vdW  Elec       q    Type
REMARK                         _______ _______ _______ _____ _____    ______ ____
ROOT
ATOM      7  C   UNL     1       2.959   0.624  22.921  0.00  0.00    +0.156 C 
ATOM      8  C   UNL     1       2.856   1.375  23.246  0.00  0.00    +0.166 C 
ATOM      9  O   UNL     1       2.057   1.465  23.430  0.00  0.00    -0.348 OA
ATOM     10  C   UNL     1       1.666   0.771  23.218  0.00  0.00    +0.186 C 
ATOM     11  C   UNL     1       0.931   0.396  23.201  0.00  0.00    +0.229 C 
ATOM     12  C   UNL     1       1.034  -0.354  22.876  0.00  0.00    +0.188 C 
ATOM     13  O   UNL     1       1.834  -0.445  22.692  0.00  0.00    -0.348 OA
ATOM     14  C   UNL     1       2.224   0.250  22.904  0.00  0.00    +0.168 C 
ENDROOT
BRANCH   7   6
ATOM      3  N   UNL     1       5.070   0.073  22.849  0.00  0.00    -0.187 NA
ATOM      4  C   UNL     1       4.357   0.393  23.110  0.00  0.00    +0.339 C 
ATOM      5  O   UNL     1       4.327   0.805  23.825  0.00  0.00    -0.249 OA
ATOM      6  N   UNL     1       3.672   0.303  22.659  0.00  0.00    -0.184 NA
BRANCH   3   2
ATOM      1  C   UNL     1       6.351  -0.404  23.263  0.00  0.00    +0.025 C 
ATOM      2  C   UNL     1       5.754   0.163  23.300  0.00  0.00    +0.117 C 
ENDBRANCH   3   2
ENDBRANCH   7   6
BRANCH  11  15
ATOM     15  O   UNL     1       0.217   0.718  23.463  0.00  0.00    -0.432 OA
BRANCH  15  16
ATOM     16  C   UNL     1      -0.368   0.225  23.771  0.00  0.00    +0.425 C 
ATOM     17  O   UNL     1      -0.377  -0.577  23.576  0.00  0.00    -0.224 OA
ATOM     18  N   UNL     1      -0.944   0.534  24.276  0.00  0.00    -0.142 NA
BRANCH  18  19
ATOM     19  C   UNL     1      -1.529   0.041  24.583  0.00  0.00    +0.077 A 
ATOM     20  C   UNL     1      -1.375  -0.411  25.258  0.00  0.00    +0.016 A 
ATOM     21  C   UNL     1      -1.960  -0.904  25.566  0.00  0.00    -0.003 A 
ATOM     22  C   UNL     1      -2.698  -0.946  25.201  0.00  0.00    -0.022 A 
ATOM     23  C   UNL     1      -2.852  -0.496  24.528  0.00  0.00    -0.003 A 
ATOM     24  C   UNL     1      -2.268  -0.002  24.219  0.00  0.00    +0.016 A 
BRANCH  22  25
ATOM     25  C   UNL     1      -3.283  -1.440  25.510  0.00  0.00    +0.022 C 
ATOM     26  C   UNL     1      -3.434  -2.171  25.159  0.00  0.00    +0.005 C 
ATOM     27  C   UNL     1      -3.716  -1.202  26.170  0.00  0.00    +0.005 C 
ENDBRANCH  22  25
ENDBRANCH  18  19
ENDBRANCH  15  16
ENDBRANCH  11  15
TORSDOF 6
ENDMDL
MODEL 10
REMARK VINA RESULT:      -6.5     15.047     16.490
REMARK  Name = 
REMARK  6 active torsions:
REMARK  status: ('A' for Active; 'I' for Inactive)
REMARK    1  A    between atoms: C_2  and  N_3
REMARK    2  A    between atoms: N_6  and  C_7
REMARK    3  A    between atoms: C_11  and  O_15
REMARK    4  A    between atoms: O_15  and  C_16
REMARK    5  A    between atoms: N_18  and  C_19
REMARK    6  A    between atoms: C_22  and  C_25
REMARK                            x       y       z     vdW  Elec       q    Type
REMARK                         _______ _______ _______ _____ _____    ______ ____
ROOT
ATOM      7  C   UNL     1      -5.025 -10.395  16.256  0.00  0.00    +0.156 C 
ATOM      8  C   UNL     1      -4.210 -10.451  16.380  0.00  0.00    +0.166 C 
ATOM      9  O   UNL     1      -3.848 -10.557  15.647  0.00  0.00    -0.348 OA
ATOM     10  C   UNL     1      -4.436 -10.567  15.069  0.00  0.00    +0.186 C 
ATOM     11  C   UNL     1      -4.577 -10.639  14.260  0.00  0.00    +0.229 C 
ATOM     12  C   UNL     1      -5.390 -10.583  14.136  0.00  0.00    +0.188 C 
ATOM     13  O   UNL     1      -5.754 -10.477  14.869  0.00  0.00    -0.348 OA
ATOM     14  C   UNL     1      -5.164 -10.467  15.446  0.00  0.00    +0.168 C 
ENDROOT
BRANCH   7   6
ATOM      3  N   UNL     1      -6.003 -10.371  18.206  0.00  0.00    -0.187 NA
ATOM      4  C   UNL     1      -5.430 -10.480  17.623  0.00  0.00    +0.339 C 
ATOM      5  O   UNL     1      -4.689 -10.781  17.824  0.00  0.00    -0.249 OA
ATOM      6  N   UNL     1      -5.597 -10.287  16.839  0.00  0.00    -0.184 NA
BRANCH   3   2
ATOM      1  C   UNL     1      -6.433 -10.541  19.559  0.00  0.00    +0.025 C 
ATOM      2  C   UNL     1      -5.835 -10.564  18.991  0.00  0.00    +0.117 C 
ENDBRANCH   3   2
ENDBRANCH   7   6
BRANCH  11  15
ATOM     15  O   UNL     1      -4.003 -10.747  13.676  0.00  0.00    -0.432 OA
BRANCH  15  16
ATOM     16  C   UNL     1      -4.130 -10.456  12.915  0.00  0.00    +0.425 C 
ATOM     17  O   UNL     1      -4.702  -9.876  12.785  0.00  0.00    -0.224 OA
ATOM     18  N   UNL     1      -3.683 -10.744  12.284  0.00  0.00    -0.142 NA
BRANCH  18  19
ATOM     19  C   UNL     1      -3.809 -10.453  11.522  0.00  0.00    +0.077 A 
ATOM     20  C   UNL     1      -4.401 -10.781  11.049  0.00  0.00    +0.016 A 
ATOM     21  C   UNL     1      -4.528 -10.490  10.288  0.00  0.00    -0.003 A 
ATOM     22  C   UNL     1      -4.064  -9.871  10.000  0.00  0.00    -0.022 A 
ATOM     23  C   UNL     1      -3.473  -9.544  10.473  0.00  0.00    -0.003 A 
ATOM     24  C   UNL     1      -3.346  -9.835  11.234  0.00  0.00    +0.016 A 
BRANCH  22  25
ATOM     25  C   UNL     1      -4.192  -9.581   9.238  0.00  0.00    +0.022 C 
ATOM     26  C   UNL     1      -4.355 -10.101   8.619  0.00  0.00    +0.005 C 
ATOM     27  C   UNL     1      -4.156  -8.769   9.095  0.00  0.00    +0.005 C 
ENDBRANCH  22  25
ENDBRANCH  18  19
ENDBRANCH  15  16
ENDBRANCH  11  15
TORSDOF 6
ENDMDL
