MODEL 1
REMARK VINA RESULT:     -10.3      0.000      0.000
REMARK  Name = 
REMARK  8 active torsions:
REMARK  status: ('A' for Active; 'I' for Inactive)
REMARK    1  A    between atoms: C_2  and  N_4
REMARK    2  A    between atoms: N_4  and  C_5
REMARK    3  A    between atoms: C_5  and  C_6
REMARK    4  A    between atoms: C_10  and  C_11
REMARK    5  A    between atoms: C_11  and  C_12
REMARK    6  A    between atoms: C_15  and  C_17
REMARK    7  A    between atoms: C_20  and  N_23
REMARK    8  A    between atoms: C_27  and  C_28
REMARK                            x       y       z     vdW  Elec       q    Type
REMARK                         _______ _______ _______ _____ _____    ______ ____
ROOT
ATOM      6  C   UNL     1      -2.869   3.931  24.943  0.00  0.00    +0.039 C 
ATOM      7  C   UNL     1      -3.047   3.750  24.158  0.00  0.00    -0.033 C 
ATOM      8  C   UNL     1      -3.693   3.267  23.983  0.00  0.00    -0.048 C 
ATOM      9  C   UNL     1      -3.871   3.085  23.197  0.00  0.00    +0.026 C 
ATOM     10  C   UNL     1      -4.161   2.967  24.592  0.00  0.00    +0.027 C 
ATOM     26  C   UNL     1      -3.983   3.148  25.377  0.00  0.00    +0.005 C 
ATOM     27  C   UNL     1      -3.337   3.631  25.553  0.00  0.00    +0.006 C 
ENDROOT
BRANCH  27  28
ATOM     28  C   UNL     1      -3.160   3.812  26.337  0.00  0.00    +0.000 C 
ATOM     29  C   UNL     1      -3.538   4.443  26.711  0.00  0.00    +0.000 C 
ATOM     30  C   UNL     1      -2.603   3.364  26.748  0.00  0.00    +0.000 C 
ENDBRANCH  27  28
BRANCH   6   5
ATOM      5  C   UNL     1      -2.223   4.414  25.119  0.00  0.00    +0.093 C 
BRANCH   5   4
ATOM      4  N   UNL     1      -1.700   4.636  24.523  0.00  0.00    -0.219 NA
BRANCH   4   2
ATOM      1  C   UNL     1      -0.296   4.645  24.792  0.00  0.00    +0.019 C 
ATOM      2  C   UNL     1      -1.010   5.049  24.712  0.00  0.00    +0.073 C 
ATOM      3  C   UNL     1      -1.037   5.866  24.820  0.00  0.00    +0.019 C 
ENDBRANCH   4   2
ENDBRANCH   5   4
ENDBRANCH   6   5
BRANCH  10  11
ATOM     11  C   UNL     1      -4.806   2.485  24.417  0.00  0.00    +0.091 C 
BRANCH  11  12
ATOM     12  C   UNL     1      -4.826   1.705  24.691  0.00  0.00    +0.227 A 
ATOM     13  N   UNL     1      -5.358   1.399  25.241  0.00  0.00    -0.111 NA
ATOM     14  N   UNL     1      -5.178   0.601  25.352  0.00  0.00    -0.107 NA
ATOM     15  C   UNL     1      -4.534   0.416  24.870  0.00  0.00    +0.250 A 
ATOM     16  O   UNL     1      -4.316   1.099  24.461  0.00  0.00    -0.420 OA
BRANCH  15  17
ATOM     17  C   UNL     1      -4.172  -0.323  24.809  0.00  0.00    +0.055 A 
ATOM     18  C   UNL     1      -3.688  -0.597  25.418  0.00  0.00    +0.006 A 
ATOM     19  C   UNL     1      -3.325  -1.336  25.356  0.00  0.00    +0.015 A 
ATOM     20  C   UNL     1      -3.448  -1.800  24.684  0.00  0.00    +0.048 A 
ATOM     21  C   UNL     1      -3.932  -1.526  24.076  0.00  0.00    +0.015 A 
ATOM     22  C   UNL     1      -4.295  -0.787  24.138  0.00  0.00    +0.006 A 
BRANCH  20  23
ATOM     23  N   UNL     1      -3.086  -2.540  24.623  0.00  0.00    -0.304 N 
ATOM     24  C   UNL     1      -2.266  -2.592  24.540  0.00  0.00    +0.112 C 
ATOM     25  C   UNL     1      -3.543  -3.226  24.643  0.00  0.00    +0.112 C 
ENDBRANCH  20  23
ENDBRANCH  15  17
ENDBRANCH  11  12
ENDBRANCH  10  11
TORSDOF 8
ENDMDL
MODEL 2
REMARK VINA RESULT:      -8.6      2.112      3.580
REMARK  Name = 
REMARK  8 active torsions:
REMARK  status: ('A' for Active; 'I' for Inactive)
REMARK    1  A    between atoms: C_2  and  N_4
REMARK    2  A    between atoms: N_4  and  C_5
REMARK    3  A    between atoms: C_5  and  C_6
REMARK    4  A    between atoms: C_10  and  C_11
REMARK    5  A    between atoms: C_11  and  C_12
REMARK    6  A    between atoms: C_15  and  C_17
REMARK    7  A    between atoms: C_20  and  N_23
REMARK    8  A    between atoms: C_27  and  C_28
REMARK                            x       y       z     vdW  Elec       q    Type
REMARK                         _______ _______ _______ _____ _____    ______ ____
ROOT
ATOM      6  C   UNL     1      -3.532   3.425  24.898  0.00  0.00    +0.039 C 
ATOM      7  C   UNL     1      -3.087   3.686  25.542  0.00  0.00    -0.033 C 
ATOM      8  C   UNL     1      -2.264   3.635  25.521  0.00  0.00    -0.048 C 
ATOM      9  C   UNL     1      -1.818   3.896  26.166  0.00  0.00    +0.026 C 
ATOM     10  C   UNL     1      -1.886   3.323  24.858  0.00  0.00    +0.027 C 
ATOM     26  C   UNL     1      -2.331   3.062  24.215  0.00  0.00    +0.005 C 
ATOM     27  C   UNL     1      -3.154   3.113  24.234  0.00  0.00    +0.006 C 
ENDROOT
BRANCH  27  28
ATOM     28  C   UNL     1      -3.599   2.853  23.591  0.00  0.00    +0.000 C 
ATOM     29  C   UNL     1      -3.849   2.067  23.553  0.00  0.00    +0.000 C 
ATOM     30  C   UNL     1      -3.794   3.377  22.985  0.00  0.00    +0.000 C 
ENDBRANCH  27  28
BRANCH   6   5
ATOM      5  C   UNL     1      -4.355   3.476  24.918  0.00  0.00    +0.093 C 
BRANCH   5   4
ATOM      4  N   UNL     1      -4.742   3.644  25.626  0.00  0.00    -0.219 NA
BRANCH   4   2
ATOM      1  C   UNL     1      -5.957   2.929  25.859  0.00  0.00    +0.019 C 
ATOM      2  C   UNL     1      -5.566   3.628  25.660  0.00  0.00    +0.073 C 
ATOM      3  C   UNL     1      -5.999   4.310  25.496  0.00  0.00    +0.019 C 
ENDBRANCH   4   2
ENDBRANCH   5   4
ENDBRANCH   6   5
BRANCH  10  11
ATOM     11  C   UNL     1      -1.063   3.272  24.838  0.00  0.00    +0.091 C 
BRANCH  11  12
ATOM     12  C   UNL     1      -0.698   2.545  24.696  0.00  0.00    +0.227 A 
ATOM     13  N   UNL     1       0.034   2.433  24.334  0.00  0.00    -0.111 NA
ATOM     14  N   UNL     1       0.183   1.622  24.305  0.00  0.00    -0.107 NA
ATOM     15  C   UNL     1      -0.458   1.233  24.649  0.00  0.00    +0.250 A 
ATOM     16  O   UNL     1      -1.003   1.804  24.891  0.00  0.00    -0.420 OA
BRANCH  15  17
ATOM     17  C   UNL     1      -0.540   0.416  24.737  0.00  0.00    +0.055 A 
ATOM     18  C   UNL     1      -0.880   0.107  25.421  0.00  0.00    +0.006 A 
ATOM     19  C   UNL     1      -0.962  -0.710  25.508  0.00  0.00    +0.015 A 
ATOM     20  C   UNL     1      -0.702  -1.216  24.910  0.00  0.00    +0.048 A 
ATOM     21  C   UNL     1      -0.362  -0.906  24.226  0.00  0.00    +0.015 A 
ATOM     22  C   UNL     1      -0.280  -0.090  24.139  0.00  0.00    +0.006 A 
BRANCH  20  23
ATOM     23  N   UNL     1      -0.784  -2.033  24.997  0.00  0.00    -0.304 N 
ATOM     24  C   UNL     1      -1.465  -2.411  24.724  0.00  0.00    +0.112 C 
ATOM     25  C   UNL     1      -0.185  -2.471  25.357  0.00  0.00    +0.112 C 
ENDBRANCH  20  23
ENDBRANCH  15  17
ENDBRANCH  11  12
ENDBRANCH  10  11
TORSDOF 8
ENDMDL
MODEL 3
REMARK VINA RESULT:      -8.5      1.920      6.058
REMARK  Name = 
REMARK  8 active torsions:
REMARK  status: ('A' for Active; 'I' for Inactive)
REMARK    1  A    between atoms: C_2  and  N_4
REMARK    2  A    between atoms: N_4  and  C_5
REMARK    3  A    between atoms: C_5  and  C_6
REMARK    4  A    between atoms: C_10  and  C_11
REMARK    5  A    between atoms: C_11  and  C_12
REMARK    6  A    between atoms: C_15  and  C_17
REMARK    7  A    between atoms: C_20  and  N_23
REMARK    8  A    between atoms: C_27  and  C_28
REMARK                            x       y       z     vdW  Elec       q    Type
REMARK                         _______ _______ _______ _____ _____    ______ ____
ROOT
ATOM      6  C   UNL     1      -2.744  -1.229  24.868  0.00  0.00    +0.039 C 
ATOM      7  C   UNL     1      -1.997  -1.562  24.972  0.00  0.00    -0.033 C 
ATOM      8  C   UNL     1      -1.381  -1.106  25.278  0.00  0.00    -0.048 C 
ATOM      9  C   UNL     1      -0.633  -1.439  25.383  0.00  0.00    +0.026 C 
ATOM     10  C   UNL     1      -1.513  -0.317  25.480  0.00  0.00    +0.027 C 
ATOM     26  C   UNL     1      -2.260   0.016  25.375  0.00  0.00    +0.005 C 
ATOM     27  C   UNL     1      -2.876  -0.439  25.069  0.00  0.00    +0.006 C 
ENDROOT
BRANCH  27  28
ATOM     28  C   UNL     1      -3.622  -0.107  24.964  0.00  0.00    +0.000 C 
ATOM     29  C   UNL     1      -4.175  -0.130  25.578  0.00  0.00    +0.000 C 
ATOM     30  C   UNL     1      -3.819   0.250  24.247  0.00  0.00    +0.000 C 
ENDBRANCH  27  28
BRANCH   6   5
ATOM      5  C   UNL     1      -3.360  -1.685  24.562  0.00  0.00    +0.093 C 
BRANCH   5   4
ATOM      4  N   UNL     1      -3.200  -2.412  24.210  0.00  0.00    -0.219 NA
BRANCH   4   2
ATOM      1  C   UNL     1      -3.948  -3.593  24.510  0.00  0.00    +0.019 C 
ATOM      2  C   UNL     1      -3.818  -2.931  24.035  0.00  0.00    +0.073 C 
ATOM      3  C   UNL     1      -4.305  -2.787  23.385  0.00  0.00    +0.019 C 
ENDBRANCH   4   2
ENDBRANCH   5   4
ENDBRANCH   6   5
BRANCH  10  11
ATOM     11  C   UNL     1      -0.897   0.138  25.786  0.00  0.00    +0.091 C 
BRANCH  11  12
ATOM     12  C   UNL     1      -0.708   0.863  25.438  0.00  0.00    +0.227 A 
ATOM     13  N   UNL     1      -0.132   0.989  24.863  0.00  0.00    -0.111 NA
ATOM     14  N   UNL     1      -0.130   1.792  24.674  0.00  0.00    -0.107 NA
ATOM     15  C   UNL     1      -0.707   2.163  25.133  0.00  0.00    +0.250 A 
ATOM     16  O   UNL     1      -1.064   1.588  25.606  0.00  0.00    -0.420 OA
BRANCH  15  17
ATOM     17  C   UNL     1      -0.893   2.967  25.122  0.00  0.00    +0.055 A 
ATOM     18  C   UNL     1      -0.382   3.503  24.759  0.00  0.00    +0.006 A 
ATOM     19  C   UNL     1      -0.568   4.307  24.748  0.00  0.00    +0.015 A 
ATOM     20  C   UNL     1      -1.265   4.573  25.100  0.00  0.00    +0.048 A 
ATOM     21  C   UNL     1      -1.775   4.037  25.463  0.00  0.00    +0.015 A 
ATOM     22  C   UNL     1      -1.589   3.233  25.475  0.00  0.00    +0.006 A 
BRANCH  20  23
ATOM     23  N   UNL     1      -1.451   5.378  25.089  0.00  0.00    -0.304 N 
ATOM     24  C   UNL     1      -0.923   5.919  24.759  0.00  0.00    +0.112 C 
ATOM     25  C   UNL     1      -2.165   5.640  25.408  0.00  0.00    +0.112 C 
ENDBRANCH  20  23
ENDBRANCH  15  17
ENDBRANCH  11  12
ENDBRANCH  10  11
TORSDOF 8
ENDMDL
MODEL 4
REMARK VINA RESULT:      -8.5      1.822      2.728
REMARK  Name = 
REMARK  8 active torsions:
REMARK  status: ('A' for Active; 'I' for Inactive)
REMARK    1  A    between atoms: C_2  and  N_4
REMARK    2  A    between atoms: N_4  and  C_5
REMARK    3  A    between atoms: C_5  and  C_6
REMARK    4  A    between atoms: C_10  and  C_11
REMARK    5  A    between atoms: C_11  and  C_12
REMARK    6  A    between atoms: C_15  and  C_17
REMARK    7  A    between atoms: C_20  and  N_23
REMARK    8  A    between atoms: C_27  and  C_28
REMARK                            x       y       z     vdW  Elec       q    Type
REMARK                         _______ _______ _______ _____ _____    ______ ____
ROOT
ATOM      6  C   UNL     1      -1.444   3.366  25.298  0.00  0.00    +0.039 C 
ATOM      7  C   UNL     1      -0.713   3.251  25.661  0.00  0.00    -0.033 C 
ATOM      8  C   UNL     1      -0.469   2.489  25.864  0.00  0.00    -0.048 C 
ATOM      9  C   UNL     1       0.263   2.373  26.228  0.00  0.00    +0.026 C 
ATOM     10  C   UNL     1      -0.956   1.843  25.703  0.00  0.00    +0.027 C 
ATOM     26  C   UNL     1      -1.688   1.959  25.339  0.00  0.00    +0.005 C 
ATOM     27  C   UNL     1      -1.932   2.720  25.136  0.00  0.00    +0.006 C 
ENDROOT
BRANCH  27  28
ATOM     28  C   UNL     1      -2.663   2.836  24.773  0.00  0.00    +0.000 C 
ATOM     29  C   UNL     1      -2.722   2.821  23.950  0.00  0.00    +0.000 C 
ATOM     30  C   UNL     1      -3.336   2.966  25.232  0.00  0.00    +0.000 C 
ENDBRANCH  27  28
BRANCH   6   5
ATOM      5  C   UNL     1      -1.689   4.128  25.095  0.00  0.00    +0.093 C 
BRANCH   5   4
ATOM      4  N   UNL     1      -1.268   4.782  25.366  0.00  0.00    -0.219 NA
BRANCH   4   2
ATOM      1  C   UNL     1      -0.782   5.754  24.437  0.00  0.00    +0.019 C 
ATOM      2  C   UNL     1      -1.348   5.511  24.986  0.00  0.00    +0.073 C 
ATOM      3  C   UNL     1      -1.994   5.995  25.155  0.00  0.00    +0.019 C 
ENDBRANCH   4   2
ENDBRANCH   5   4
ENDBRANCH   6   5
BRANCH  10  11
ATOM     11  C   UNL     1      -0.713   1.082  25.905  0.00  0.00    +0.091 C 
BRANCH  11  12
ATOM     12  C   UNL     1      -0.897   0.445  25.413  0.00  0.00    +0.227 A 
ATOM     13  N   UNL     1      -0.420   0.143  24.812  0.00  0.00    -0.111 NA
ATOM     14  N   UNL     1      -0.819  -0.490  24.464  0.00  0.00    -0.107 NA
ATOM     15  C   UNL     1      -1.543  -0.578  24.850  0.00  0.00    +0.250 A 
ATOM     16  O   UNL     1      -1.591  -0.000  25.437  0.00  0.00    -0.420 OA
BRANCH  15  17
ATOM     17  C   UNL     1      -2.118  -1.146  24.679  0.00  0.00    +0.055 A 
ATOM     18  C   UNL     1      -1.926  -1.947  24.705  0.00  0.00    +0.006 A 
ATOM     19  C   UNL     1      -2.500  -2.515  24.534  0.00  0.00    +0.015 A 
ATOM     20  C   UNL     1      -3.266  -2.279  24.337  0.00  0.00    +0.048 A 
ATOM     21  C   UNL     1      -3.457  -1.478  24.311  0.00  0.00    +0.015 A 
ATOM     22  C   UNL     1      -2.883  -0.910  24.482  0.00  0.00    +0.006 A 
BRANCH  20  23
ATOM     23  N   UNL     1      -3.841  -2.846  24.166  0.00  0.00    -0.304 N 
ATOM     24  C   UNL     1      -3.738  -3.627  24.416  0.00  0.00    +0.112 C 
ATOM     25  C   UNL     1      -4.518  -2.634  23.746  0.00  0.00    +0.112 C 
ENDBRANCH  20  23
ENDBRANCH  15  17
ENDBRANCH  11  12
ENDBRANCH  10  11
TORSDOF 8
ENDMDL
MODEL 5
REMARK VINA RESULT:      -8.5      3.055      4.729
REMARK  Name = 
REMARK  8 active torsions:
REMARK  status: ('A' for Active; 'I' for Inactive)
REMARK    1  A    between atoms: C_2  and  N_4
REMARK    2  A    between atoms: N_4  and  C_5
REMARK    3  A    between atoms: C_5  and  C_6
REMARK    4  A    between atoms: C_10  and  C_11
REMARK    5  A    between atoms: C_11  and  C_12
REMARK    6  A    between atoms: C_15  and  C_17
REMARK    7  A    between atoms: C_20  and  N_23
REMARK    8  A    between atoms: C_27  and  C_28
REMARK                            x       y       z     vdW  Elec       q    Type
REMARK                         _______ _______ _______ _____ _____    ______ ____
ROOT
ATOM      6  C   UNL     1      -4.107   1.132  24.770  0.00  0.00    +0.039 C 
ATOM      7  C   UNL     1      -4.252   0.404  25.130  0.00  0.00    -0.033 C 
ATOM      8  C   UNL     1      -3.710  -0.213  25.045  0.00  0.00    -0.048 C 
ATOM      9  C   UNL     1      -3.855  -0.942  25.405  0.00  0.00    +0.026 C 
ATOM     10  C   UNL     1      -3.025  -0.102  24.600  0.00  0.00    +0.027 C 
ATOM     26  C   UNL     1      -2.880   0.626  24.241  0.00  0.00    +0.005 C 
ATOM     27  C   UNL     1      -3.420   1.244  24.325  0.00  0.00    +0.006 C 
ENDROOT
BRANCH  27  28
ATOM     28  C   UNL     1      -3.276   1.971  23.966  0.00  0.00    +0.000 C 
ATOM     29  C   UNL     1      -2.894   2.571  24.386  0.00  0.00    +0.000 C 
ATOM     30  C   UNL     1      -3.512   2.101  23.186  0.00  0.00    +0.000 C 
ENDBRANCH  27  28
BRANCH   6   5
ATOM      5  C   UNL     1      -4.648   1.750  24.855  0.00  0.00    +0.093 C 
BRANCH   5   4
ATOM      4  N   UNL     1      -5.251   1.696  25.414  0.00  0.00    -0.219 NA
BRANCH   4   2
ATOM      1  C   UNL     1      -6.567   2.058  24.989  0.00  0.00    +0.019 C 
ATOM      2  C   UNL     1      -5.875   2.237  25.401  0.00  0.00    +0.073 C 
ATOM      3  C   UNL     1      -5.805   2.955  25.800  0.00  0.00    +0.019 C 
ENDBRANCH   4   2
ENDBRANCH   5   4
ENDBRANCH   6   5
BRANCH  10  11
ATOM     11  C   UNL     1      -2.484  -0.718  24.515  0.00  0.00    +0.091 C 
BRANCH  11  12
ATOM     12  C   UNL     1      -1.674  -0.568  24.578  0.00  0.00    +0.227 A 
ATOM     13  N   UNL     1      -1.243  -0.526  25.279  0.00  0.00    -0.111 NA
ATOM     14  N   UNL     1      -0.457  -0.366  25.085  0.00  0.00    -0.107 NA
ATOM     15  C   UNL     1      -0.403  -0.310  24.263  0.00  0.00    +0.250 A 
ATOM     16  O   UNL     1      -1.156  -0.435  23.950  0.00  0.00    -0.420 OA
BRANCH  15  17
ATOM     17  C   UNL     1       0.283  -0.156  23.831  0.00  0.00    +0.055 A 
ATOM     18  C   UNL     1       0.667  -0.769  23.436  0.00  0.00    +0.006 A 
ATOM     19  C   UNL     1       1.353  -0.615  23.004  0.00  0.00    +0.015 A 
ATOM     20  C   UNL     1       1.654   0.153  22.968  0.00  0.00    +0.048 A 
ATOM     21  C   UNL     1       1.270   0.765  23.364  0.00  0.00    +0.015 A 
ATOM     22  C   UNL     1       0.583   0.611  23.796  0.00  0.00    +0.006 A 
BRANCH  20  23
ATOM     23  N   UNL     1       2.341   0.307  22.536  0.00  0.00    -0.304 N 
ATOM     24  C   UNL     1       2.441  -0.028  21.788  0.00  0.00    +0.112 C 
ATOM     25  C   UNL     1       2.925   0.795  22.852  0.00  0.00    +0.112 C 
ENDBRANCH  20  23
ENDBRANCH  15  17
ENDBRANCH  11  12
ENDBRANCH  10  11
TORSDOF 8
ENDMDL
MODEL 6
REMARK VINA RESULT:      -8.3      2.826      4.753
REMARK  Name = 
REMARK  8 active torsions:
REMARK  status: ('A' for Active; 'I' for Inactive)
REMARK    1  A    between atoms: C_2  and  N_4
REMARK    2  A    between atoms: N_4  and  C_5
REMARK    3  A    between atoms: C_5  and  C_6
REMARK    4  A    between atoms: C_10  and  C_11
REMARK    5  A    between atoms: C_11  and  C_12
REMARK    6  A    between atoms: C_15  and  C_17
REMARK    7  A    between atoms: C_20  and  N_23
REMARK    8  A    between atoms: C_27  and  C_28
REMARK                            x       y       z     vdW  Elec       q    Type
REMARK                         _______ _______ _______ _____ _____    ______ ____
ROOT
ATOM      6  C   UNL     1      -0.014  -0.040  23.841  0.00  0.00    +0.039 C 
ATOM      7  C   UNL     1      -0.206  -0.839  23.909  0.00  0.00    -0.033 C 
ATOM      8  C   UNL     1      -0.890  -1.066  24.311  0.00  0.00    -0.048 C 
ATOM      9  C   UNL     1      -1.082  -1.867  24.379  0.00  0.00    +0.026 C 
ATOM     10  C   UNL     1      -1.381  -0.495  24.646  0.00  0.00    +0.027 C 
ATOM     26  C   UNL     1      -1.189   0.305  24.578  0.00  0.00    +0.005 C 
ATOM     27  C   UNL     1      -0.505   0.533  24.176  0.00  0.00    +0.006 C 
ENDROOT
BRANCH  27  28
ATOM     28  C   UNL     1      -0.314   1.331  24.108  0.00  0.00    +0.000 C 
ATOM     29  C   UNL     1       0.157   1.693  24.682  0.00  0.00    +0.000 C 
ATOM     30  C   UNL     1      -0.591   1.770  23.467  0.00  0.00    +0.000 C 
ENDBRANCH  27  28
BRANCH   6   5
ATOM      5  C   UNL     1       0.670   0.188  23.439  0.00  0.00    +0.093 C 
BRANCH   5   4
ATOM      4  N   UNL     1       1.167  -0.383  23.114  0.00  0.00    -0.219 NA
BRANCH   4   2
ATOM      1  C   UNL     1       1.633  -0.229  21.772  0.00  0.00    +0.019 C 
ATOM      2  C   UNL     1       1.760  -0.161  22.584  0.00  0.00    +0.073 C 
ATOM      3  C   UNL     1       2.478   0.129  22.867  0.00  0.00    +0.019 C 
ENDBRANCH   4   2
ENDBRANCH   5   4
ENDBRANCH   6   5
BRANCH  10  11
ATOM     11  C   UNL     1      -2.064  -0.722  25.047  0.00  0.00    +0.091 C 
BRANCH  11  12
ATOM     12  C   UNL     1      -2.785  -0.358  24.874  0.00  0.00    +0.227 A 
ATOM     13  N   UNL     1      -3.360  -0.644  24.358  0.00  0.00    -0.111 NA
ATOM     14  N   UNL     1      -3.987  -0.107  24.352  0.00  0.00    -0.107 NA
ATOM     15  C   UNL     1      -3.798   0.511  24.865  0.00  0.00    +0.250 A 
ATOM     16  O   UNL     1      -3.055   0.356  25.188  0.00  0.00    -0.420 OA
BRANCH  15  17
ATOM     17  C   UNL     1      -4.270   1.168  25.026  0.00  0.00    +0.055 A 
ATOM     18  C   UNL     1      -5.006   1.069  25.385  0.00  0.00    +0.006 A 
ATOM     19  C   UNL     1      -5.478   1.726  25.547  0.00  0.00    +0.015 A 
ATOM     20  C   UNL     1      -5.213   2.483  25.349  0.00  0.00    +0.048 A 
ATOM     21  C   UNL     1      -4.477   2.581  24.990  0.00  0.00    +0.015 A 
ATOM     22  C   UNL     1      -4.005   1.924  24.828  0.00  0.00    +0.006 A 
BRANCH  20  23
ATOM     23  N   UNL     1      -5.685   3.140  25.510  0.00  0.00    -0.304 N 
ATOM     24  C   UNL     1      -6.456   3.037  25.786  0.00  0.00    +0.112 C 
ATOM     25  C   UNL     1      -5.386   3.900  25.396  0.00  0.00    +0.112 C 
ENDBRANCH  20  23
ENDBRANCH  15  17
ENDBRANCH  11  12
ENDBRANCH  10  11
TORSDOF 8
ENDMDL
MODEL 7
REMARK VINA RESULT:      -8.1      3.025      4.600
REMARK  Name = 
REMARK  8 active torsions:
REMARK  status: ('A' for Active; 'I' for Inactive)
REMARK    1  A    between atoms: C_2  and  N_4
REMARK    2  A    between atoms: N_4  and  C_5
REMARK    3  A    between atoms: C_5  and  C_6
REMARK    4  A    between atoms: C_10  and  C_11
REMARK    5  A    between atoms: C_11  and  C_12
REMARK    6  A    between atoms: C_15  and  C_17
REMARK    7  A    between atoms: C_20  and  N_23
REMARK    8  A    between atoms: C_27  and  C_28
REMARK                            x       y       z     vdW  Elec       q    Type
REMARK                         _______ _______ _______ _____ _____    ______ ____
ROOT
ATOM      6  C   UNL     1      -3.903   2.284  25.066  0.00  0.00    +0.039 C 
ATOM      7  C   UNL     1      -3.726   3.021  25.391  0.00  0.00    -0.033 C 
ATOM      8  C   UNL     1      -2.951   3.304  25.373  0.00  0.00    -0.048 C 
ATOM      9  C   UNL     1      -2.774   4.042  25.699  0.00  0.00    +0.026 C 
ATOM     10  C   UNL     1      -2.354   2.851  25.031  0.00  0.00    +0.027 C 
ATOM     26  C   UNL     1      -2.531   2.114  24.706  0.00  0.00    +0.005 C 
ATOM     27  C   UNL     1      -3.305   1.830  24.723  0.00  0.00    +0.006 C 
ENDROOT
BRANCH  27  28
ATOM     28  C   UNL     1      -3.481   1.093  24.398  0.00  0.00    +0.000 C 
ATOM     29  C   UNL     1      -3.642   1.026  23.591  0.00  0.00    +0.000 C 
ATOM     30  C   UNL     1      -3.497   0.423  24.879  0.00  0.00    +0.000 C 
ENDBRANCH  27  28
BRANCH   6   5
ATOM      5  C   UNL     1      -4.677   2.000  25.083  0.00  0.00    +0.093 C 
BRANCH   5   4
ATOM      4  N   UNL     1      -5.285   2.475  25.373  0.00  0.00    -0.219 NA
BRANCH   4   2
ATOM      1  C   UNL     1      -6.544   2.008  24.884  0.00  0.00    +0.019 C 
ATOM      2  C   UNL     1      -6.031   2.151  25.514  0.00  0.00    +0.073 C 
ATOM      3  C   UNL     1      -6.263   1.970  26.285  0.00  0.00    +0.019 C 
ENDBRANCH   4   2
ENDBRANCH   5   4
ENDBRANCH   6   5
BRANCH  10  11
ATOM     11  C   UNL     1      -1.580   3.134  25.013  0.00  0.00    +0.091 C 
BRANCH  11  12
ATOM     12  C   UNL     1      -0.947   2.604  24.992  0.00  0.00    +0.227 A 
ATOM     13  N   UNL     1      -0.536   2.315  25.645  0.00  0.00    -0.111 NA
ATOM     14  N   UNL     1       0.051   1.803  25.371  0.00  0.00    -0.107 NA
ATOM     15  C   UNL     1       0.001   1.777  24.548  0.00  0.00    +0.250 A 
ATOM     16  O   UNL     1      -0.616   2.272  24.314  0.00  0.00    -0.420 OA
BRANCH  15  17
ATOM     17  C   UNL     1       0.484   1.333  24.047  0.00  0.00    +0.055 A 
ATOM     18  C   UNL     1       0.227   0.600  23.770  0.00  0.00    +0.006 A 
ATOM     19  C   UNL     1       0.710   0.156  23.269  0.00  0.00    +0.015 A 
ATOM     20  C   UNL     1       1.450   0.446  23.047  0.00  0.00    +0.048 A 
ATOM     21  C   UNL     1       1.707   1.179  23.324  0.00  0.00    +0.015 A 
ATOM     22  C   UNL     1       1.224   1.623  23.825  0.00  0.00    +0.006 A 
BRANCH  20  23
ATOM     23  N   UNL     1       1.934   0.002  22.546  0.00  0.00    -0.304 N 
ATOM     24  C   UNL     1       2.752   0.006  22.652  0.00  0.00    +0.112 C 
ATOM     25  C   UNL     1       1.598  -0.445  21.940  0.00  0.00    +0.112 C 
ENDBRANCH  20  23
ENDBRANCH  15  17
ENDBRANCH  11  12
ENDBRANCH  10  11
TORSDOF 8
ENDMDL
MODEL 8
REMARK VINA RESULT:      -8.0      1.158      5.419
REMARK  Name = 
REMARK  8 active torsions:
REMARK  status: ('A' for Active; 'I' for Inactive)
REMARK    1  A    between atoms: C_2  and  N_4
REMARK    2  A    between atoms: N_4  and  C_5
REMARK    3  A    between atoms: C_5  and  C_6
REMARK    4  A    between atoms: C_10  and  C_11
REMARK    5  A    between atoms: C_11  and  C_12
REMARK    6  A    between atoms: C_15  and  C_17
REMARK    7  A    between atoms: C_20  and  N_23
REMARK    8  A    between atoms: C_27  and  C_28
REMARK                            x       y       z     vdW  Elec       q    Type
REMARK                         _______ _______ _______ _____ _____    ______ ____
ROOT
ATOM      6  C   UNL     1      -4.097  -0.204  24.546  0.00  0.00    +0.039 C 
ATOM      7  C   UNL     1      -4.791  -0.135  24.987  0.00  0.00    -0.033 C 
ATOM      8  C   UNL     1      -5.134   0.606  25.101  0.00  0.00    -0.048 C 
ATOM      9  C   UNL     1      -5.829   0.675  25.543  0.00  0.00    +0.026 C 
ATOM     10  C   UNL     1      -4.785   1.278  24.776  0.00  0.00    +0.027 C 
ATOM     26  C   UNL     1      -4.091   1.209  24.335  0.00  0.00    +0.005 C 
ATOM     27  C   UNL     1      -3.747   0.469  24.220  0.00  0.00    +0.006 C 
ENDROOT
BRANCH  27  28
ATOM     28  C   UNL     1      -3.054   0.400  23.779  0.00  0.00    +0.000 C 
ATOM     29  C   UNL     1      -2.323   0.364  24.162  0.00  0.00    +0.000 C 
ATOM     30  C   UNL     1      -3.089   0.366  22.956  0.00  0.00    +0.000 C 
ENDBRANCH  27  28
BRANCH   6   5
ATOM      5  C   UNL     1      -3.753  -0.945  24.431  0.00  0.00    +0.093 C 
BRANCH   5   4
ATOM      4  N   UNL     1      -4.110  -1.619  24.742  0.00  0.00    -0.219 NA
BRANCH   4   2
ATOM      1  C   UNL     1      -4.025  -2.815  23.964  0.00  0.00    +0.019 C 
ATOM      2  C   UNL     1      -3.777  -2.362  24.607  0.00  0.00    +0.073 C 
ATOM      3  C   UNL     1      -3.197  -2.652  25.117  0.00  0.00    +0.019 C 
ENDBRANCH   4   2
ENDBRANCH   5   4
ENDBRANCH   6   5
BRANCH  10  11
ATOM     11  C   UNL     1      -5.128   2.019  24.890  0.00  0.00    +0.091 C 
BRANCH  11  12
ATOM     12  C   UNL     1      -4.675   2.642  25.187  0.00  0.00    +0.227 A 
ATOM     13  N   UNL     1      -4.872   3.122  25.827  0.00  0.00    -0.111 NA
ATOM     14  N   UNL     1      -4.265   3.671  25.931  0.00  0.00    -0.107 NA
ATOM     15  C   UNL     1      -3.693   3.530  25.353  0.00  0.00    +0.250 A 
ATOM     16  O   UNL     1      -3.946   2.894  24.893  0.00  0.00    -0.420 OA
BRANCH  15  17
ATOM     17  C   UNL     1      -2.990   3.952  25.254  0.00  0.00    +0.055 A 
ATOM     18  C   UNL     1      -2.363   3.837  25.777  0.00  0.00    +0.006 A 
ATOM     19  C   UNL     1      -1.661   4.258  25.678  0.00  0.00    +0.015 A 
ATOM     20  C   UNL     1      -1.586   4.794  25.054  0.00  0.00    +0.048 A 
ATOM     21  C   UNL     1      -2.213   4.908  24.532  0.00  0.00    +0.015 A 
ATOM     22  C   UNL     1      -2.916   4.487  24.631  0.00  0.00    +0.006 A 
BRANCH  20  23
ATOM     23  N   UNL     1      -0.884   5.216  24.955  0.00  0.00    -0.304 N 
ATOM     24  C   UNL     1      -0.172   4.812  24.847  0.00  0.00    +0.112 C 
ATOM     25  C   UNL     1      -0.893   6.040  24.963  0.00  0.00    +0.112 C 
ENDBRANCH  20  23
ENDBRANCH  15  17
ENDBRANCH  11  12
ENDBRANCH  10  11
TORSDOF 8
ENDMDL
