MODEL 1
REMARK VINA RESULT:     -12.6      0.000      0.000
REMARK  Name = 
REMARK  5 active torsions:
REMARK  status: ('A' for Active; 'I' for Inactive)
REMARK    1  A    between atoms: C_4  and  C_20
REMARK    2  A    between atoms: N_5  and  C_6
REMARK    3  A    between atoms: C_6  and  C_7
REMARK    4  A    between atoms: C_10  and  C_13
REMARK    5  A    between atoms: C_22  and  C_25
REMARK                            x       y       z     vdW  Elec       q    Type
REMARK                         _______ _______ _______ _____ _____    ______ ____
ROOT
ATOM      1  O   UNL     1      -6.532   2.252  24.971  0.00  0.00    -0.222 OA
ATOM      2  C   UNL     1      -5.713   2.307  25.050  0.00  0.00    +0.170 C 
ATOM      3  C   UNL     1      -5.297   2.956  25.342  0.00  0.00    +0.060 C 
ATOM      4  C   UNL     1      -4.492   2.772  25.324  0.00  0.00    +0.140 C 
ATOM      5  N   UNL     1      -4.412   2.009  25.020  0.00  0.00    -0.260 NA
ATOM     19  C   UNL     1      -5.167   1.722  24.851  0.00  0.00    +0.106 C 
ENDROOT
BRANCH   4  20
ATOM     20  C   UNL     1      -3.877   3.264  25.566  0.00  0.00    +0.251 A 
ATOM     21  N   UNL     1      -3.233   3.499  25.106  0.00  0.00    -0.188 NA
ATOM     22  C   UNL     1      -2.755   3.989  25.567  0.00  0.00    +0.223 A 
ATOM     23  N   UNL     1      -3.103   4.057  26.312  0.00  0.00    -0.054 NA
ATOM     24  O   UNL     1      -3.796   3.609  26.312  0.00  0.00    -0.336 OA
BRANCH  22  25
ATOM     25  C   UNL     1      -2.052   4.348  25.326  0.00  0.00    +0.139 A 
ATOM     26  C   UNL     1      -2.009   5.169  25.265  0.00  0.00    +0.121 A 
ATOM     27  N   UNL     1      -1.306   5.528  25.023  0.00  0.00    -0.239 NA
ATOM     28  C   UNL     1      -0.647   5.065  24.843  0.00  0.00    +0.120 A 
ATOM     29  C   UNL     1      -0.691   4.244  24.904  0.00  0.00    +0.120 A 
ATOM     30  N   UNL     1      -1.394   3.885  25.145  0.00  0.00    -0.237 NA
ENDBRANCH  22  25
ENDBRANCH   4  20
BRANCH   5   6
ATOM      6  C   UNL     1      -3.703   1.605  24.905  0.00  0.00    +0.100 C 
BRANCH   6   7
ATOM      7  C   UNL     1      -3.708   0.789  24.782  0.00  0.00    -0.006 A 
ATOM      8  C   UNL     1      -3.626   0.487  24.018  0.00  0.00    -0.003 A 
ATOM      9  C   UNL     1      -3.631  -0.330  23.896  0.00  0.00    +0.001 A 
ATOM     10  C   UNL     1      -3.718  -0.842  24.536  0.00  0.00    +0.018 A 
ATOM     11  C   UNL     1      -3.800  -0.539  25.299  0.00  0.00    +0.001 A 
ATOM     12  C   UNL     1      -3.795   0.276  25.421  0.00  0.00    -0.003 A 
BRANCH  10  13
ATOM     13  C   UNL     1      -3.723  -1.658  24.412  0.00  0.00    +0.081 A 
ATOM     14  N   UNL     1      -3.184  -2.139  24.810  0.00  0.00    -0.244 NA
ATOM     15  C   UNL     1      -3.189  -2.954  24.687  0.00  0.00    +0.099 A 
ATOM     16  C   UNL     1      -3.734  -3.290  24.165  0.00  0.00    +0.021 A 
ATOM     17  C   UNL     1      -4.273  -2.809  23.768  0.00  0.00    +0.003 A 
ATOM     18  C   UNL     1      -4.268  -1.993  23.891  0.00  0.00    +0.019 A 
ENDBRANCH  10  13
ENDBRANCH   6   7
ENDBRANCH   5   6
TORSDOF 5
ENDMDL
MODEL 2
REMARK VINA RESULT:     -11.2      2.376      3.275
REMARK  Name = 
REMARK  5 active torsions:
REMARK  status: ('A' for Active; 'I' for Inactive)
REMARK    1  A    between atoms: C_4  and  C_20
REMARK    2  A    between atoms: N_5  and  C_6
REMARK    3  A    between atoms: C_6  and  C_7
REMARK    4  A    between atoms: C_10  and  C_13
REMARK    5  A    between atoms: C_22  and  C_25
REMARK                            x       y       z     vdW  Elec       q    Type
REMARK                         _______ _______ _______ _____ _____    ______ ____
ROOT
ATOM      1  O   UNL     1       1.031   0.201  22.983  0.00  0.00    -0.222 OA
ATOM      2  C   UNL     1       0.568   0.517  23.588  0.00  0.00    +0.170 C 
ATOM      3  C   UNL     1       0.595   1.295  23.861  0.00  0.00    +0.060 C 
ATOM      4  C   UNL     1       0.040   1.370  24.468  0.00  0.00    +0.140 C 
ATOM      5  N   UNL     1      -0.329   0.639  24.568  0.00  0.00    -0.260 NA
ATOM     19  C   UNL     1      -0.003   0.112  24.023  0.00  0.00    +0.106 C 
ENDROOT
BRANCH   4  20
ATOM     20  C   UNL     1      -0.118   2.056  24.897  0.00  0.00    +0.251 A 
ATOM     21  N   UNL     1      -0.627   2.665  24.671  0.00  0.00    -0.188 NA
ATOM     22  C   UNL     1      -0.618   3.239  25.263  0.00  0.00    +0.223 A 
ATOM     23  N   UNL     1      -0.104   2.985  25.857  0.00  0.00    -0.054 NA
ATOM     24  O   UNL     1       0.205   2.254  25.631  0.00  0.00    -0.336 OA
BRANCH  22  25
ATOM     25  C   UNL     1      -1.047   3.944  25.263  0.00  0.00    +0.139 A 
ATOM     26  C   UNL     1      -0.702   4.637  24.979  0.00  0.00    +0.121 A 
ATOM     27  N   UNL     1      -1.132   5.341  24.978  0.00  0.00    -0.239 NA
ATOM     28  C   UNL     1      -1.907   5.352  25.262  0.00  0.00    +0.120 A 
ATOM     29  C   UNL     1      -2.252   4.659  25.546  0.00  0.00    +0.120 A 
ATOM     30  N   UNL     1      -1.822   3.954  25.547  0.00  0.00    -0.237 NA
ENDBRANCH  22  25
ENDBRANCH   4  20
BRANCH   5   6
ATOM      6  C   UNL     1      -0.921   0.466  25.115  0.00  0.00    +0.100 C 
BRANCH   6   7
ATOM      7  C   UNL     1      -1.485  -0.111  24.945  0.00  0.00    -0.006 A 
ATOM      8  C   UNL     1      -2.198   0.101  24.587  0.00  0.00    -0.003 A 
ATOM      9  C   UNL     1      -2.761  -0.478  24.416  0.00  0.00    +0.001 A 
ATOM     10  C   UNL     1      -2.613  -1.266  24.603  0.00  0.00    +0.018 A 
ATOM     11  C   UNL     1      -1.900  -1.479  24.961  0.00  0.00    +0.001 A 
ATOM     12  C   UNL     1      -1.337  -0.901  25.131  0.00  0.00    -0.003 A 
BRANCH  10  13
ATOM     13  C   UNL     1      -3.177  -1.844  24.432  0.00  0.00    +0.081 A 
ATOM     14  N   UNL     1      -3.076  -2.614  24.709  0.00  0.00    -0.244 NA
ATOM     15  C   UNL     1      -3.640  -3.191  24.539  0.00  0.00    +0.099 A 
ATOM     16  C   UNL     1      -4.306  -2.998  24.090  0.00  0.00    +0.021 A 
ATOM     17  C   UNL     1      -4.406  -2.228  23.814  0.00  0.00    +0.003 A 
ATOM     18  C   UNL     1      -3.842  -1.650  23.984  0.00  0.00    +0.019 A 
ENDBRANCH  10  13
ENDBRANCH   6   7
ENDBRANCH   5   6
TORSDOF 5
ENDMDL
MODEL 3
REMARK VINA RESULT:     -11.2      2.672      6.352
REMARK  Name = 
REMARK  5 active torsions:
REMARK  status: ('A' for Active; 'I' for Inactive)
REMARK    1  A    between atoms: C_4  and  C_20
REMARK    2  A    between atoms: N_5  and  C_6
REMARK    3  A    between atoms: C_6  and  C_7
REMARK    4  A    between atoms: C_10  and  C_13
REMARK    5  A    between atoms: C_22  and  C_25
REMARK                            x       y       z     vdW  Elec       q    Type
REMARK                         _______ _______ _______ _____ _____    ______ ____
ROOT
ATOM      1  O   UNL     1       1.261   0.288  23.016  0.00  0.00    -0.222 OA
ATOM      2  C   UNL     1       0.636   0.161  23.540  0.00  0.00    +0.170 C 
ATOM      3  C   UNL     1       0.199  -0.535  23.612  0.00  0.00    +0.060 C 
ATOM      4  C   UNL     1      -0.368  -0.419  24.200  0.00  0.00    +0.140 C 
ATOM      5  N   UNL     1      -0.280   0.348  24.491  0.00  0.00    -0.260 NA
ATOM     19  C   UNL     1       0.341   0.706  24.083  0.00  0.00    +0.106 C 
ENDROOT
BRANCH   4  20
ATOM     20  C   UNL     1      -0.924  -0.973  24.453  0.00  0.00    +0.251 A 
ATOM     21  N   UNL     1      -1.670  -1.098  24.122  0.00  0.00    -0.188 NA
ATOM     22  C   UNL     1      -2.039  -1.702  24.546  0.00  0.00    +0.223 A 
ATOM     23  N   UNL     1      -1.522  -1.951  25.139  0.00  0.00    -0.054 NA
ATOM     24  O   UNL     1      -0.832  -1.501  25.081  0.00  0.00    -0.336 OA
BRANCH  22  25
ATOM     25  C   UNL     1      -2.793  -2.004  24.403  0.00  0.00    +0.139 A 
ATOM     26  C   UNL     1      -2.940  -2.810  24.501  0.00  0.00    +0.121 A 
ATOM     27  N   UNL     1      -3.694  -3.112  24.357  0.00  0.00    -0.239 NA
ATOM     28  C   UNL     1      -4.302  -2.608  24.116  0.00  0.00    +0.120 A 
ATOM     29  C   UNL     1      -4.155  -1.802  24.018  0.00  0.00    +0.120 A 
ATOM     30  N   UNL     1      -3.400  -1.500  24.161  0.00  0.00    -0.237 NA
ENDBRANCH  22  25
ENDBRANCH   4  20
BRANCH   5   6
ATOM      6  C   UNL     1      -0.733   0.696  25.086  0.00  0.00    +0.100 C 
BRANCH   6   7
ATOM      7  C   UNL     1      -0.856   1.511  25.088  0.00  0.00    -0.006 A 
ATOM      8  C   UNL     1      -1.422   1.844  24.588  0.00  0.00    -0.003 A 
ATOM      9  C   UNL     1      -1.544   2.661  24.591  0.00  0.00    +0.001 A 
ATOM     10  C   UNL     1      -1.101   3.143  25.092  0.00  0.00    +0.018 A 
ATOM     11  C   UNL     1      -0.535   2.809  25.592  0.00  0.00    +0.001 A 
ATOM     12  C   UNL     1      -0.413   1.994  25.589  0.00  0.00    -0.003 A 
BRANCH  10  13
ATOM     13  C   UNL     1      -1.224   3.959  25.094  0.00  0.00    +0.081 A 
ATOM     14  N   UNL     1      -0.653   4.463  24.776  0.00  0.00    -0.244 NA
ATOM     15  C   UNL     1      -0.776   5.278  24.778  0.00  0.00    +0.099 A 
ATOM     16  C   UNL     1      -1.470   5.591  25.098  0.00  0.00    +0.021 A 
ATOM     17  C   UNL     1      -2.040   5.087  25.416  0.00  0.00    +0.003 A 
ATOM     18  C   UNL     1      -1.917   4.270  25.414  0.00  0.00    +0.019 A 
ENDBRANCH  10  13
ENDBRANCH   6   7
ENDBRANCH   5   6
TORSDOF 5
ENDMDL
MODEL 4
REMARK VINA RESULT:     -10.5      1.225      5.418
REMARK  Name = 
REMARK  5 active torsions:
REMARK  status: ('A' for Active; 'I' for Inactive)
REMARK    1  A    between atoms: C_4  and  C_20
REMARK    2  A    between atoms: N_5  and  C_6
REMARK    3  A    between atoms: C_6  and  C_7
REMARK    4  A    between atoms: C_10  and  C_13
REMARK    5  A    between atoms: C_22  and  C_25
REMARK                            x       y       z     vdW  Elec       q    Type
REMARK                         _______ _______ _______ _____ _____    ______ ____
ROOT
ATOM      1  O   UNL     1      -6.001   1.927  26.012  0.00  0.00    -0.222 OA
ATOM      2  C   UNL     1      -5.441   1.559  25.531  0.00  0.00    +0.170 C 
ATOM      3  C   UNL     1      -5.383   0.748  25.390  0.00  0.00    +0.060 C 
ATOM      4  C   UNL     1      -4.747   0.624  24.878  0.00  0.00    +0.140 C 
ATOM      5  N   UNL     1      -4.414   1.359  24.704  0.00  0.00    -0.260 NA
ATOM     19  C   UNL     1      -4.843   1.936  25.108  0.00  0.00    +0.106 C 
ENDROOT
BRANCH   4  20
ATOM     20  C   UNL     1      -4.491  -0.105  24.591  0.00  0.00    +0.251 A 
ATOM     21  N   UNL     1      -3.842  -0.534  24.867  0.00  0.00    -0.188 NA
ATOM     22  C   UNL     1      -3.789  -1.228  24.424  0.00  0.00    +0.223 A 
ATOM     23  N   UNL     1      -4.404  -1.229  23.875  0.00  0.00    -0.054 NA
ATOM     24  O   UNL     1      -4.839  -0.535  23.978  0.00  0.00    -0.336 OA
BRANCH  22  25
ATOM     25  C   UNL     1      -3.219  -1.819  24.515  0.00  0.00    +0.139 A 
ATOM     26  C   UNL     1      -3.449  -2.609  24.572  0.00  0.00    +0.121 A 
ATOM     27  N   UNL     1      -2.880  -3.198  24.662  0.00  0.00    -0.239 NA
ATOM     28  C   UNL     1      -2.080  -2.999  24.695  0.00  0.00    +0.120 A 
ATOM     29  C   UNL     1      -1.850  -2.209  24.638  0.00  0.00    +0.120 A 
ATOM     30  N   UNL     1      -2.420  -1.618  24.548  0.00  0.00    -0.237 NA
ENDBRANCH  22  25
ENDBRANCH   4  20
BRANCH   5   6
ATOM      6  C   UNL     1      -3.765   1.492  24.213  0.00  0.00    +0.100 C 
BRANCH   6   7
ATOM      7  C   UNL     1      -3.270   2.138  24.349  0.00  0.00    -0.006 A 
ATOM      8  C   UNL     1      -2.647   2.073  24.886  0.00  0.00    -0.003 A 
ATOM      9  C   UNL     1      -2.152   2.720  25.022  0.00  0.00    +0.001 A 
ATOM     10  C   UNL     1      -2.280   3.429  24.622  0.00  0.00    +0.018 A 
ATOM     11  C   UNL     1      -2.903   3.493  24.085  0.00  0.00    +0.001 A 
ATOM     12  C   UNL     1      -3.398   2.847  23.949  0.00  0.00    -0.003 A 
BRANCH  10  13
ATOM     13  C   UNL     1      -1.784   4.075  24.758  0.00  0.00    +0.081 A 
ATOM     14  N   UNL     1      -0.991   4.041  24.535  0.00  0.00    -0.244 NA
ATOM     15  C   UNL     1      -0.496   4.686  24.672  0.00  0.00    +0.099 A 
ATOM     16  C   UNL     1      -0.795   5.367  25.032  0.00  0.00    +0.021 A 
ATOM     17  C   UNL     1      -1.588   5.400  25.255  0.00  0.00    +0.003 A 
ATOM     18  C   UNL     1      -2.083   4.754  25.118  0.00  0.00    +0.019 A 
ENDBRANCH  10  13
ENDBRANCH   6   7
ENDBRANCH   5   6
TORSDOF 5
ENDMDL
MODEL 5
REMARK VINA RESULT:     -10.0      4.077      5.605
REMARK  Name = 
REMARK  5 active torsions:
REMARK  status: ('A' for Active; 'I' for Inactive)
REMARK    1  A    between atoms: C_4  and  C_20
REMARK    2  A    between atoms: N_5  and  C_6
REMARK    3  A    between atoms: C_6  and  C_7
REMARK    4  A    between atoms: C_10  and  C_13
REMARK    5  A    between atoms: C_22  and  C_25
REMARK                            x       y       z     vdW  Elec       q    Type
REMARK                         _______ _______ _______ _____ _____    ______ ____
ROOT
ATOM      1  O   UNL     1      -1.186  -1.659  25.150  0.00  0.00    -0.222 OA
ATOM      2  C   UNL     1      -0.845  -1.067  24.687  0.00  0.00    +0.170 C 
ATOM      3  C   UNL     1      -0.158  -1.141  24.236  0.00  0.00    +0.060 C 
ATOM      4  C   UNL     1      -0.020  -0.417  23.864  0.00  0.00    +0.140 C 
ATOM      5  N   UNL     1      -0.621   0.102  24.086  0.00  0.00    -0.260 NA
ATOM     19  C   UNL     1      -1.131  -0.300  24.595  0.00  0.00    +0.106 C 
ENDROOT
BRANCH   4  20
ATOM     20  C   UNL     1       0.609  -0.244  23.360  0.00  0.00    +0.251 A 
ATOM     21  N   UNL     1       1.378  -0.054  23.591  0.00  0.00    -0.188 NA
ATOM     22  C   UNL     1       1.824   0.077  22.908  0.00  0.00    +0.223 A 
ATOM     23  N   UNL     1       1.332  -0.033  22.256  0.00  0.00    -0.054 NA
ATOM     24  O   UNL     1       0.580  -0.232  22.535  0.00  0.00    -0.336 OA
BRANCH  22  25
ATOM     25  C   UNL     1       2.623   0.282  22.883  0.00  0.00    +0.139 A 
ATOM     26  C   UNL     1       2.846   1.076  22.881  0.00  0.00    +0.121 A 
ATOM     27  N   UNL     1       3.644   1.280  22.856  0.00  0.00    -0.239 NA
ATOM     28  C   UNL     1       4.221   0.691  22.833  0.00  0.00    +0.120 A 
ATOM     29  C   UNL     1       3.999  -0.104  22.835  0.00  0.00    +0.120 A 
ATOM     30  N   UNL     1       3.199  -0.308  22.860  0.00  0.00    -0.237 NA
ENDBRANCH  22  25
ENDBRANCH   4  20
BRANCH   5   6
ATOM      6  C   UNL     1      -0.699   0.886  23.842  0.00  0.00    +0.100 C 
BRANCH   6   7
ATOM      7  C   UNL     1      -1.371   1.318  24.047  0.00  0.00    -0.006 A 
ATOM      8  C   UNL     1      -1.392   1.736  24.758  0.00  0.00    -0.003 A 
ATOM      9  C   UNL     1      -2.065   2.168  24.963  0.00  0.00    +0.001 A 
ATOM     10  C   UNL     1      -2.716   2.180  24.457  0.00  0.00    +0.018 A 
ATOM     11  C   UNL     1      -2.695   1.762  23.746  0.00  0.00    +0.001 A 
ATOM     12  C   UNL     1      -2.022   1.331  23.542  0.00  0.00    -0.003 A 
BRANCH  10  13
ATOM     13  C   UNL     1      -3.389   2.612  24.662  0.00  0.00    +0.081 A 
ATOM     14  N   UNL     1      -3.384   3.435  24.609  0.00  0.00    -0.244 NA
ATOM     15  C   UNL     1      -4.056   3.866  24.814  0.00  0.00    +0.099 A 
ATOM     16  C   UNL     1      -4.735   3.474  25.073  0.00  0.00    +0.021 A 
ATOM     17  C   UNL     1      -4.740   2.651  25.126  0.00  0.00    +0.003 A 
ATOM     18  C   UNL     1      -4.067   2.219  24.920  0.00  0.00    +0.019 A 
ENDBRANCH  10  13
ENDBRANCH   6   7
ENDBRANCH   5   6
TORSDOF 5
ENDMDL
MODEL 6
REMARK VINA RESULT:      -9.5      3.344      4.969
REMARK  Name = 
REMARK  5 active torsions:
REMARK  status: ('A' for Active; 'I' for Inactive)
REMARK    1  A    between atoms: C_4  and  C_20
REMARK    2  A    between atoms: N_5  and  C_6
REMARK    3  A    between atoms: C_6  and  C_7
REMARK    4  A    between atoms: C_10  and  C_13
REMARK    5  A    between atoms: C_22  and  C_25
REMARK                            x       y       z     vdW  Elec       q    Type
REMARK                         _______ _______ _______ _____ _____    ______ ____
ROOT
ATOM      1  O   UNL     1      -0.263   3.045  26.281  0.00  0.00    -0.222 OA
ATOM      2  C   UNL     1      -0.433   2.499  25.686  0.00  0.00    +0.170 C 
ATOM      3  C   UNL     1       0.098   1.958  25.360  0.00  0.00    +0.060 C 
ATOM      4  C   UNL     1      -0.304   1.523  24.786  0.00  0.00    +0.140 C 
ATOM      5  N   UNL     1      -1.083   1.795  24.758  0.00  0.00    -0.260 NA
ATOM     19  C   UNL     1      -1.162   2.399  25.315  0.00  0.00    +0.106 C 
ENDROOT
BRANCH   4  20
ATOM     20  C   UNL     1       0.016   0.921  24.321  0.00  0.00    +0.251 A 
ATOM     21  N   UNL     1       0.610   1.009  23.755  0.00  0.00    -0.188 NA
ATOM     22  C   UNL     1       0.759   0.268  23.425  0.00  0.00    +0.223 A 
ATOM     23  N   UNL     1       0.258  -0.278  23.787  0.00  0.00    -0.054 NA
ATOM     24  O   UNL     1      -0.202   0.126  24.341  0.00  0.00    -0.336 OA
BRANCH  22  25
ATOM     25  C   UNL     1       1.313   0.102  22.836  0.00  0.00    +0.139 A 
ATOM     26  C   UNL     1       1.071  -0.243  22.127  0.00  0.00    +0.121 A 
ATOM     27  N   UNL     1       1.624  -0.408  21.539  0.00  0.00    -0.239 NA
ATOM     28  C   UNL     1       2.421  -0.230  21.659  0.00  0.00    +0.120 A 
ATOM     29  C   UNL     1       2.663   0.115  22.368  0.00  0.00    +0.120 A 
ATOM     30  N   UNL     1       2.109   0.281  22.957  0.00  0.00    -0.237 NA
ENDBRANCH  22  25
ENDBRANCH   4  20
BRANCH   5   6
ATOM      6  C   UNL     1      -1.678   1.514  24.261  0.00  0.00    +0.100 C 
BRANCH   6   7
ATOM      7  C   UNL     1      -2.469   1.643  24.451  0.00  0.00    -0.006 A 
ATOM      8  C   UNL     1      -2.870   1.108  24.935  0.00  0.00    -0.003 A 
ATOM      9  C   UNL     1      -3.663   1.238  25.124  0.00  0.00    +0.001 A 
ATOM     10  C   UNL     1      -4.054   1.902  24.831  0.00  0.00    +0.018 A 
ATOM     11  C   UNL     1      -3.653   2.437  24.347  0.00  0.00    +0.001 A 
ATOM     12  C   UNL     1      -2.861   2.307  24.157  0.00  0.00    -0.003 A 
BRANCH  10  13
ATOM     13  C   UNL     1      -4.847   2.031  25.021  0.00  0.00    +0.081 A 
ATOM     14  N   UNL     1      -5.056   2.659  25.513  0.00  0.00    -0.244 NA
ATOM     15  C   UNL     1      -5.848   2.788  25.703  0.00  0.00    +0.099 A 
ATOM     16  C   UNL     1      -6.432   2.289  25.400  0.00  0.00    +0.021 A 
ATOM     17  C   UNL     1      -6.223   1.661  24.908  0.00  0.00    +0.003 A 
ATOM     18  C   UNL     1      -5.430   1.532  24.718  0.00  0.00    +0.019 A 
ENDBRANCH  10  13
ENDBRANCH   6   7
ENDBRANCH   5   6
TORSDOF 5
ENDMDL
MODEL 7
REMARK VINA RESULT:      -9.4      2.626      4.284
REMARK  Name = 
REMARK  5 active torsions:
REMARK  status: ('A' for Active; 'I' for Inactive)
REMARK    1  A    between atoms: C_4  and  C_20
REMARK    2  A    between atoms: N_5  and  C_6
REMARK    3  A    between atoms: C_6  and  C_7
REMARK    4  A    between atoms: C_10  and  C_13
REMARK    5  A    between atoms: C_22  and  C_25
REMARK                            x       y       z     vdW  Elec       q    Type
REMARK                         _______ _______ _______ _____ _____    ______ ____
ROOT
ATOM      1  O   UNL     1      -0.588   5.463  24.664  0.00  0.00    -0.222 OA
ATOM      2  C   UNL     1      -1.056   4.844  24.943  0.00  0.00    +0.170 C 
ATOM      3  C   UNL     1      -1.843   4.901  25.184  0.00  0.00    +0.060 C 
ATOM      4  C   UNL     1      -2.092   4.150  25.420  0.00  0.00    +0.140 C 
ATOM      5  N   UNL     1      -1.458   3.630  25.325  0.00  0.00    -0.260 NA
ATOM     19  C   UNL     1      -0.818   4.059  25.030  0.00  0.00    +0.106 C 
ENDROOT
BRANCH   4  20
ATOM     20  C   UNL     1      -2.842   3.955  25.701  0.00  0.00    +0.251 A 
ATOM     21  N   UNL     1      -3.423   3.540  25.287  0.00  0.00    -0.188 NA
ATOM     22  C   UNL     1      -4.083   3.469  25.777  0.00  0.00    +0.223 A 
ATOM     23  N   UNL     1      -3.911   3.840  26.493  0.00  0.00    -0.054 NA
ATOM     24  O   UNL     1      -3.144   4.140  26.447  0.00  0.00    -0.336 OA
BRANCH  22  25
ATOM     25  C   UNL     1      -4.792   3.093  25.584  0.00  0.00    +0.139 A 
ATOM     26  C   UNL     1      -5.512   3.460  25.749  0.00  0.00    +0.121 A 
ATOM     27  N   UNL     1      -6.220   3.084  25.556  0.00  0.00    -0.239 NA
ATOM     28  C   UNL     1      -6.209   2.341  25.197  0.00  0.00    +0.120 A 
ATOM     29  C   UNL     1      -5.489   1.974  25.032  0.00  0.00    +0.120 A 
ATOM     30  N   UNL     1      -4.780   2.350  25.225  0.00  0.00    -0.237 NA
ENDBRANCH  22  25
ENDBRANCH   4  20
BRANCH   5   6
ATOM      6  C   UNL     1      -1.464   2.823  25.495  0.00  0.00    +0.100 C 
BRANCH   6   7
ATOM      7  C   UNL     1      -0.993   2.306  25.058  0.00  0.00    -0.006 A 
ATOM      8  C   UNL     1      -0.256   2.074  25.348  0.00  0.00    -0.003 A 
ATOM      9  C   UNL     1       0.215   1.557  24.910  0.00  0.00    +0.001 A 
ATOM     10  C   UNL     1      -0.051   1.272  24.184  0.00  0.00    +0.018 A 
ATOM     11  C   UNL     1      -0.788   1.504  23.894  0.00  0.00    +0.001 A 
ATOM     12  C   UNL     1      -1.258   2.021  24.331  0.00  0.00    -0.003 A 
BRANCH  10  13
ATOM     13  C   UNL     1       0.421   0.754  23.747  0.00  0.00    +0.081 A 
ATOM     14  N   UNL     1       1.172   0.989  23.499  0.00  0.00    -0.244 NA
ATOM     15  C   UNL     1       1.643   0.472  23.063  0.00  0.00    +0.099 A 
ATOM     16  C   UNL     1       1.362  -0.281  22.872  0.00  0.00    +0.021 A 
ATOM     17  C   UNL     1       0.611  -0.516  23.120  0.00  0.00    +0.003 A 
ATOM     18  C   UNL     1       0.140   0.002  23.557  0.00  0.00    +0.019 A 
ENDBRANCH  10  13
ENDBRANCH   6   7
ENDBRANCH   5   6
TORSDOF 5
ENDMDL
