MODEL 1
REMARK VINA RESULT:      -6.9      0.000      0.000
REMARK  Name = 
REMARK  4 active torsions:
REMARK  status: ('A' for Active; 'I' for Inactive)
REMARK    1  A    between atoms: N_4  and  C_5
REMARK    2  A    between atoms: C_9  and  O_13
REMARK    3  A    between atoms: O_13  and  C_14
REMARK    4  A    between atoms: C_14  and  C_15
REMARK                            x       y       z     vdW  Elec       q    Type
REMARK                         _______ _______ _______ _____ _____    ______ ____
ROOT
ATOM      5  C   UNL     1      -3.852  -0.637  24.525  0.00  0.00    +0.154 C 
ATOM      6  C   UNL     1      -4.086  -0.504  25.304  0.00  0.00    +0.166 C 
ATOM      7  O   UNL     1      -4.050   0.307  25.446  0.00  0.00    -0.349 OA
ATOM      8  C   UNL     1      -3.794   0.676  24.754  0.00  0.00    +0.173 C 
ATOM      9  C   UNL     1      -3.614   1.405  24.413  0.00  0.00    +0.175 C 
ATOM     10  C   UNL     1      -3.381   1.273  23.634  0.00  0.00    +0.174 C 
ATOM     11  O   UNL     1      -3.416   0.461  23.492  0.00  0.00    -0.349 OA
ATOM     12  C   UNL     1      -3.672   0.092  24.185  0.00  0.00    +0.167 C 
ENDROOT
BRANCH   5   4
ATOM      1  C   UNL     1      -3.645  -2.789  24.223  0.00  0.00    +0.096 C 
ATOM      2  C   UNL     1      -3.691  -2.056  24.597  0.00  0.00    +0.242 C 
ATOM      3  O   UNL     1      -3.621  -2.005  25.418  0.00  0.00    -0.273 OA
ATOM      4  N   UNL     1      -3.806  -1.372  24.151  0.00  0.00    -0.202 NA
ENDBRANCH   5   4
BRANCH   9  13
ATOM     13  O   UNL     1      -3.660   2.140  24.787  0.00  0.00    -0.342 OA
BRANCH  13  14
ATOM     14  C   UNL     1      -3.528   2.831  24.357  0.00  0.00    +0.230 C 
BRANCH  14  15
ATOM     15  C   UNL     1      -3.594   3.566  24.726  0.00  0.00    +0.291 C 
ATOM     16  N   UNL     1      -2.917   3.961  24.984  0.00  0.00    -0.086 NA
ATOM     17  O   UNL     1      -4.337   3.906  24.838  0.00  0.00    -0.269 OA
ENDBRANCH  14  15
ENDBRANCH  13  14
ENDBRANCH   9  13
TORSDOF 4
ENDMDL
MODEL 2
REMARK VINA RESULT:      -6.9      1.260      4.144
REMARK  Name = 
REMARK  4 active torsions:
REMARK  status: ('A' for Active; 'I' for Inactive)
REMARK    1  A    between atoms: N_4  and  C_5
REMARK    2  A    between atoms: C_9  and  O_13
REMARK    3  A    between atoms: O_13  and  C_14
REMARK    4  A    between atoms: C_14  and  C_15
REMARK                            x       y       z     vdW  Elec       q    Type
REMARK                         _______ _______ _______ _____ _____    ______ ____
ROOT
ATOM      5  C   UNL     1      -4.538   1.911  24.845  0.00  0.00    +0.154 C 
ATOM      6  C   UNL     1      -5.252   1.593  25.110  0.00  0.00    +0.166 C 
ATOM      7  O   UNL     1      -5.214   0.774  25.021  0.00  0.00    -0.349 OA
ATOM      8  C   UNL     1      -4.478   0.585  24.701  0.00  0.00    +0.173 C 
ATOM      9  C   UNL     1      -3.999  -0.037  24.448  0.00  0.00    +0.175 C 
ATOM     10  C   UNL     1      -3.286   0.281  24.183  0.00  0.00    +0.174 C 
ATOM     11  O   UNL     1      -3.323   1.100  24.272  0.00  0.00    -0.349 OA
ATOM     12  C   UNL     1      -4.060   1.288  24.592  0.00  0.00    +0.167 C 
ENDROOT
BRANCH   5   4
ATOM      1  C   UNL     1      -4.467   4.026  25.379  0.00  0.00    +0.096 C 
ATOM      2  C   UNL     1      -4.667   3.227  25.389  0.00  0.00    +0.242 C 
ATOM      3  O   UNL     1      -5.196   2.940  25.955  0.00  0.00    -0.273 OA
ATOM      4  N   UNL     1      -4.338   2.711  24.834  0.00  0.00    -0.202 NA
ENDBRANCH   5   4
BRANCH   9  13
ATOM     13  O   UNL     1      -4.199  -0.837  24.459  0.00  0.00    -0.342 OA
BRANCH  13  14
ATOM     14  C   UNL     1      -3.657  -1.402  24.198  0.00  0.00    +0.230 C 
BRANCH  14  15
ATOM     15  C   UNL     1      -3.846  -2.204  24.235  0.00  0.00    +0.291 C 
ATOM     16  N   UNL     1      -3.482  -2.688  24.795  0.00  0.00    -0.086 NA
ATOM     17  O   UNL     1      -4.399  -2.522  23.712  0.00  0.00    -0.269 OA
ENDBRANCH  14  15
ENDBRANCH  13  14
ENDBRANCH   9  13
TORSDOF 4
ENDMDL
MODEL 3
REMARK VINA RESULT:      -6.8      1.083      4.226
REMARK  Name = 
REMARK  4 active torsions:
REMARK  status: ('A' for Active; 'I' for Inactive)
REMARK    1  A    between atoms: N_4  and  C_5
REMARK    2  A    between atoms: C_9  and  O_13
REMARK    3  A    between atoms: O_13  and  C_14
REMARK    4  A    between atoms: C_14  and  C_15
REMARK                            x       y       z     vdW  Elec       q    Type
REMARK                         _______ _______ _______ _____ _____    ______ ____
ROOT
ATOM      5  C   UNL     1      -3.503   2.024  24.247  0.00  0.00    +0.154 C 
ATOM      6  C   UNL     1      -3.081   1.836  23.564  0.00  0.00    +0.166 C 
ATOM      7  O   UNL     1      -3.147   1.023  23.441  0.00  0.00    -0.349 OA
ATOM      8  C   UNL     1      -3.608   0.709  24.047  0.00  0.00    +0.173 C 
ATOM      9  C   UNL     1      -3.934   0.013  24.347  0.00  0.00    +0.175 C 
ATOM     10  C   UNL     1      -4.356   0.201  25.030  0.00  0.00    +0.174 C 
ATOM     11  O   UNL     1      -4.291   1.014  25.153  0.00  0.00    -0.349 OA
ATOM     12  C   UNL     1      -3.829   1.328  24.546  0.00  0.00    +0.167 C 
ENDROOT
BRANCH   5   4
ATOM      1  C   UNL     1      -3.022   4.044  24.919  0.00  0.00    +0.096 C 
ATOM      2  C   UNL     1      -2.941   3.292  24.593  0.00  0.00    +0.242 C 
ATOM      3  O   UNL     1      -2.213   3.052  24.284  0.00  0.00    -0.273 OA
ATOM      4  N   UNL     1      -3.585   2.777  24.574  0.00  0.00    -0.202 NA
ENDBRANCH   5   4
BRANCH   9  13
ATOM     13  O   UNL     1      -3.852  -0.741  24.020  0.00  0.00    -0.342 OA
BRANCH  13  14
ATOM     14  C   UNL     1      -4.038  -1.408  24.469  0.00  0.00    +0.230 C 
BRANCH  14  15
ATOM     15  C   UNL     1      -3.919  -2.162  24.155  0.00  0.00    +0.291 C 
ATOM     16  N   UNL     1      -3.283  -2.620  24.412  0.00  0.00    -0.086 NA
ATOM     17  O   UNL     1      -4.438  -2.457  23.585  0.00  0.00    -0.269 OA
ENDBRANCH  14  15
ENDBRANCH  13  14
ENDBRANCH   9  13
TORSDOF 4
ENDMDL
MODEL 4
REMARK VINA RESULT:      -6.6      1.297      4.229
REMARK  Name = 
REMARK  4 active torsions:
REMARK  status: ('A' for Active; 'I' for Inactive)
REMARK    1  A    between atoms: N_4  and  C_5
REMARK    2  A    between atoms: C_9  and  O_13
REMARK    3  A    between atoms: O_13  and  C_14
REMARK    4  A    between atoms: C_14  and  C_15
REMARK                            x       y       z     vdW  Elec       q    Type
REMARK                         _______ _______ _______ _____ _____    ______ ____
ROOT
ATOM      5  C   UNL     1      -2.489   2.374  24.871  0.00  0.00    +0.154 C 
ATOM      6  C   UNL     1      -1.787   1.942  24.845  0.00  0.00    +0.166 C 
ATOM      7  O   UNL     1      -1.980   1.147  24.743  0.00  0.00    -0.349 OA
ATOM      8  C   UNL     1      -2.802   1.087  24.705  0.00  0.00    +0.173 C 
ATOM      9  C   UNL     1      -3.430   0.559  24.618  0.00  0.00    +0.175 C 
ATOM     10  C   UNL     1      -4.132   0.991  24.643  0.00  0.00    +0.174 C 
ATOM     11  O   UNL     1      -3.938   1.786  24.745  0.00  0.00    -0.349 OA
ATOM     12  C   UNL     1      -3.116   1.845  24.784  0.00  0.00    +0.167 C 
ENDROOT
BRANCH   5   4
ATOM      1  C   UNL     1      -2.061   4.415  25.516  0.00  0.00    +0.096 C 
ATOM      2  C   UNL     1      -1.997   3.598  25.420  0.00  0.00    +0.242 C 
ATOM      3  O   UNL     1      -1.378   3.187  25.779  0.00  0.00    -0.273 OA
ATOM      4  N   UNL     1      -2.553   3.191  24.966  0.00  0.00    -0.202 NA
ENDBRANCH   5   4
BRANCH   9  13
ATOM     13  O   UNL     1      -3.366  -0.258  24.522  0.00  0.00    -0.342 OA
BRANCH  13  14
ATOM     14  C   UNL     1      -4.038  -0.734  24.578  0.00  0.00    +0.230 C 
BRANCH  14  15
ATOM     15  C   UNL     1      -3.973  -1.552  24.490  0.00  0.00    +0.291 C 
ATOM     16  N   UNL     1      -4.185  -1.909  23.778  0.00  0.00    -0.086 NA
ATOM     17  O   UNL     1      -3.695  -2.012  25.116  0.00  0.00    -0.269 OA
ENDBRANCH  14  15
ENDBRANCH  13  14
ENDBRANCH   9  13
TORSDOF 4
ENDMDL
MODEL 5
REMARK VINA RESULT:      -6.6      2.405      3.506
REMARK  Name = 
REMARK  4 active torsions:
REMARK  status: ('A' for Active; 'I' for Inactive)
REMARK    1  A    between atoms: N_4  and  C_5
REMARK    2  A    between atoms: C_9  and  O_13
REMARK    3  A    between atoms: O_13  and  C_14
REMARK    4  A    between atoms: C_14  and  C_15
REMARK                            x       y       z     vdW  Elec       q    Type
REMARK                         _______ _______ _______ _____ _____    ______ ____
ROOT
ATOM      5  C   UNL     1      -4.016   2.138  24.717  0.00  0.00    +0.154 C 
ATOM      6  C   UNL     1      -3.835   2.940  24.652  0.00  0.00    +0.166 C 
ATOM      7  O   UNL     1      -3.016   3.020  24.702  0.00  0.00    -0.349 OA
ATOM      8  C   UNL     1      -2.691   2.269  24.797  0.00  0.00    +0.173 C 
ATOM      9  C   UNL     1      -1.984   1.853  24.887  0.00  0.00    +0.175 C 
ATOM     10  C   UNL     1      -2.165   1.051  24.952  0.00  0.00    +0.174 C 
ATOM     11  O   UNL     1      -2.984   0.971  24.902  0.00  0.00    -0.349 OA
ATOM     12  C   UNL     1      -3.309   1.723  24.806  0.00  0.00    +0.167 C 
ENDROOT
BRANCH   5   4
ATOM      1  C   UNL     1      -6.156   1.861  25.049  0.00  0.00    +0.096 C 
ATOM      2  C   UNL     1      -5.400   2.190  25.071  0.00  0.00    +0.242 C 
ATOM      3  O   UNL     1      -5.271   2.902  25.468  0.00  0.00    -0.273 OA
ATOM      4  N   UNL     1      -4.773   1.808  24.695  0.00  0.00    -0.202 NA
ENDBRANCH   5   4
BRANCH   9  13
ATOM     13  O   UNL     1      -1.227   2.182  24.909  0.00  0.00    -0.342 OA
BRANCH  13  14
ATOM     14  C   UNL     1      -0.571   1.701  25.043  0.00  0.00    +0.230 C 
BRANCH  14  15
ATOM     15  C   UNL     1       0.183   2.033  25.089  0.00  0.00    +0.291 C 
ATOM     16  N   UNL     1       0.672   2.038  24.425  0.00  0.00    -0.086 NA
ATOM     17  O   UNL     1       0.446   2.362  25.798  0.00  0.00    -0.269 OA
ENDBRANCH  14  15
ENDBRANCH  13  14
ENDBRANCH   9  13
TORSDOF 4
ENDMDL
MODEL 6
REMARK VINA RESULT:      -6.5      1.579      1.950
REMARK  Name = 
REMARK  4 active torsions:
REMARK  status: ('A' for Active; 'I' for Inactive)
REMARK    1  A    between atoms: N_4  and  C_5
REMARK    2  A    between atoms: C_9  and  O_13
REMARK    3  A    between atoms: O_13  and  C_14
REMARK    4  A    between atoms: C_14  and  C_15
REMARK                            x       y       z     vdW  Elec       q    Type
REMARK                         _______ _______ _______ _____ _____    ______ ____
ROOT
ATOM      5  C   UNL     1      -3.279   0.669  24.373  0.00  0.00    +0.154 C 
ATOM      6  C   UNL     1      -3.913   1.181  24.241  0.00  0.00    +0.166 C 
ATOM      7  O   UNL     1      -3.659   1.947  24.407  0.00  0.00    -0.349 OA
ATOM      8  C   UNL     1      -2.870   1.911  24.641  0.00  0.00    +0.173 C 
ATOM      9  C   UNL     1      -2.224   2.361  24.888  0.00  0.00    +0.175 C 
ATOM     10  C   UNL     1      -1.591   1.849  25.020  0.00  0.00    +0.174 C 
ATOM     11  O   UNL     1      -1.844   1.083  24.854  0.00  0.00    -0.349 OA
ATOM     12  C   UNL     1      -2.635   1.120  24.620  0.00  0.00    +0.167 C 
ENDROOT
BRANCH   5   4
ATOM      1  C   UNL     1      -4.003  -1.388  24.276  0.00  0.00    +0.096 C 
ATOM      2  C   UNL     1      -3.993  -0.570  24.374  0.00  0.00    +0.242 C 
ATOM      3  O   UNL     1      -4.687  -0.169  24.572  0.00  0.00    -0.273 OA
ATOM      4  N   UNL     1      -3.289  -0.150  24.274  0.00  0.00    -0.202 NA
ENDBRANCH   5   4
BRANCH   9  13
ATOM     13  O   UNL     1      -2.215   3.180  24.987  0.00  0.00    -0.342 OA
BRANCH  13  14
ATOM     14  C   UNL     1      -1.525   3.558  25.236  0.00  0.00    +0.230 C 
BRANCH  14  15
ATOM     15  C   UNL     1      -1.497   4.382  25.277  0.00  0.00    +0.291 C 
ATOM     16  N   UNL     1      -0.875   4.791  24.921  0.00  0.00    -0.086 NA
ATOM     17  O   UNL     1      -2.090   4.795  25.674  0.00  0.00    -0.269 OA
ENDBRANCH  14  15
ENDBRANCH  13  14
ENDBRANCH   9  13
TORSDOF 4
ENDMDL
