MODEL 1
REMARK VINA RESULT:     -11.0      0.000      0.000
REMARK  Name = 
REMARK  6 active torsions:
REMARK  status: ('A' for Active; 'I' for Inactive)
REMARK    1  A    between atoms: C_4  and  C_13
REMARK    2  A    between atoms: C_6  and  C_8
REMARK    3  A    between atoms: C_20  and  C_21
REMARK    4  A    between atoms: C_21  and  N_22
REMARK    5  A    between atoms: N_22  and  C_23
REMARK    6  A    between atoms: C_23  and  C_24
REMARK                            x       y       z     vdW  Elec       q    Type
REMARK                         _______ _______ _______ _____ _____    ______ ____
ROOT
ATOM     13  C   UNL     1      -0.882  -0.016  24.979  0.00  0.00    +0.056 C 
ATOM     14  C   UNL     1      -1.057   0.379  25.626  0.00  0.00    +0.078 C 
ATOM     15  N   UNL     1      -0.602   0.654  24.995  0.00  0.00    -0.272 NA
ATOM     16  C   UNL     1      -0.556  -0.117  24.286  0.00  0.00    +0.072 C 
ATOM     17  C   UNL     1      -0.349  -0.349  23.712  0.00  0.00    +0.018 C 
ATOM     18  C   UNL     1      -0.434   0.261  24.364  0.00  0.00    +0.010 C 
ATOM     19  C   UNL     1      -0.031   1.029  24.229  0.00  0.00    +0.018 C 
ATOM     20  C   UNL     1      -0.180   1.450  24.848  0.00  0.00    +0.075 C 
ENDROOT
BRANCH  13   4
ATOM      1  C   UNL     1      -0.506  -2.842  25.195  0.00  0.00    +0.074 C 
ATOM      2  C   UNL     1      -0.991  -2.197  25.021  0.00  0.00    +0.139 A 
ATOM      3  N   UNL     1      -0.695  -1.430  25.087  0.00  0.00    -0.235 NA
ATOM      4  C   UNL     1      -1.179  -0.784  24.913  0.00  0.00    +0.063 A 
ATOM      5  C   UNL     1      -1.958  -0.906  24.674  0.00  0.00    +0.037 A 
ATOM      6  C   UNL     1      -2.254  -1.673  24.608  0.00  0.00    +0.118 A 
ATOM      7  N   UNL     1      -1.771  -2.318  24.782  0.00  0.00    -0.228 NA
BRANCH   6   8
ATOM      8  C   UNL     1      -3.034  -1.796  24.369  0.00  0.00    +0.163 A 
ATOM      9  C   UNL     1      -3.417  -2.525  24.320  0.00  0.00    +0.042 A 
ATOM     10  C   UNL     1      -4.187  -2.392  24.058  0.00  0.00    +0.044 A 
ATOM     11  C   UNL     1      -4.281  -1.580  23.944  0.00  0.00    +0.180 A 
ATOM     12  O   UNL     1      -3.569  -1.211  24.137  0.00  0.00    -0.449 OA
ENDBRANCH   6   8
ENDBRANCH  13   4
BRANCH  20  21
ATOM     21  C   UNL     1      -0.040   2.189  25.185  0.00  0.00    +0.105 C 
BRANCH  21  22
ATOM     22  N   UNL     1      -0.545   2.820  25.020  0.00  0.00    -0.212 NA
BRANCH  22  23
ATOM     23  C   UNL     1      -0.425   3.550  25.385  0.00  0.00    +0.115 C 
BRANCH  23  24
ATOM     24  C   UNL     1      -1.003   4.137  25.332  0.00  0.00    -0.005 A 
ATOM     25  C   UNL     1      -0.828   4.856  24.967  0.00  0.00    -0.003 A 
ATOM     26  C   UNL     1      -1.405   5.443  24.914  0.00  0.00    -0.000 A 
ATOM     27  C   UNL     1      -2.157   5.311  25.225  0.00  0.00    -0.000 A 
ATOM     28  C   UNL     1      -2.332   4.592  25.590  0.00  0.00    -0.000 A 
ATOM     29  C   UNL     1      -1.756   4.006  25.644  0.00  0.00    -0.003 A 
ENDBRANCH  23  24
ENDBRANCH  22  23
ENDBRANCH  21  22
ENDBRANCH  20  21
TORSDOF 6
ENDMDL
MODEL 2
REMARK VINA RESULT:     -10.7      2.144      5.692
REMARK  Name = 
REMARK  6 active torsions:
REMARK  status: ('A' for Active; 'I' for Inactive)
REMARK    1  A    between atoms: C_4  and  C_13
REMARK    2  A    between atoms: C_6  and  C_8
REMARK    3  A    between atoms: C_20  and  C_21
REMARK    4  A    between atoms: C_21  and  N_22
REMARK    5  A    between atoms: N_22  and  C_23
REMARK    6  A    between atoms: C_23  and  C_24
REMARK                            x       y       z     vdW  Elec       q    Type
REMARK                         _______ _______ _______ _____ _____    ______ ____
ROOT
ATOM     13  C   UNL     1      -2.139   1.910  24.792  0.00  0.00    +0.056 C 
ATOM     14  C   UNL     1      -2.753   1.737  25.238  0.00  0.00    +0.078 C 
ATOM     15  N   UNL     1      -2.602   1.444  24.481  0.00  0.00    -0.272 NA
ATOM     16  C   UNL     1      -1.700   1.870  24.159  0.00  0.00    +0.072 C 
ATOM     17  C   UNL     1      -1.235   1.940  23.705  0.00  0.00    +0.018 C 
ATOM     18  C   UNL     1      -1.997   1.618  24.050  0.00  0.00    +0.010 C 
ATOM     19  C   UNL     1      -2.445   1.060  23.543  0.00  0.00    +0.018 C 
ATOM     20  C   UNL     1      -3.062   0.864  23.948  0.00  0.00    +0.075 C 
ENDROOT
BRANCH  13   4
ATOM      1  C   UNL     1       0.216   2.398  26.338  0.00  0.00    +0.074 C 
ATOM      2  C   UNL     1      -0.406   2.680  25.875  0.00  0.00    +0.139 A 
ATOM      3  N   UNL     1      -0.961   2.154  25.565  0.00  0.00    -0.235 NA
ATOM      4  C   UNL     1      -1.583   2.437  25.103  0.00  0.00    +0.063 A 
ATOM      5  C   UNL     1      -1.651   3.244  24.950  0.00  0.00    +0.037 A 
ATOM      6  C   UNL     1      -1.096   3.770  25.260  0.00  0.00    +0.118 A 
ATOM      7  N   UNL     1      -0.474   3.488  25.723  0.00  0.00    -0.228 NA
BRANCH   6   8
ATOM      8  C   UNL     1      -1.163   4.578  25.108  0.00  0.00    +0.163 A 
ATOM      9  C   UNL     1      -1.787   5.065  25.339  0.00  0.00    +0.042 A 
ATOM     10  C   UNL     1      -1.628   5.828  25.072  0.00  0.00    +0.044 A 
ATOM     11  C   UNL     1      -0.905   5.814  24.675  0.00  0.00    +0.180 A 
ATOM     12  O   UNL     1      -0.617   5.041  24.697  0.00  0.00    -0.449 OA
ENDBRANCH   6   8
ENDBRANCH  13   4
BRANCH  20  21
ATOM     21  C   UNL     1      -3.743   0.401  23.919  0.00  0.00    +0.105 C 
BRANCH  21  22
ATOM     22  N   UNL     1      -3.684  -0.414  23.805  0.00  0.00    -0.212 NA
BRANCH  22  23
ATOM     23  C   UNL     1      -4.215  -0.922  24.179  0.00  0.00    +0.115 C 
BRANCH  23  24
ATOM     24  C   UNL     1      -4.007  -1.709  24.314  0.00  0.00    -0.005 A 
ATOM     25  C   UNL     1      -4.191  -2.286  23.753  0.00  0.00    -0.003 A 
ATOM     26  C   UNL     1      -3.983  -3.073  23.887  0.00  0.00    -0.000 A 
ATOM     27  C   UNL     1      -3.592  -3.283  24.582  0.00  0.00    -0.000 A 
ATOM     28  C   UNL     1      -3.409  -2.706  25.143  0.00  0.00    -0.000 A 
ATOM     29  C   UNL     1      -3.616  -1.920  25.009  0.00  0.00    -0.003 A 
ENDBRANCH  23  24
ENDBRANCH  22  23
ENDBRANCH  21  22
ENDBRANCH  20  21
TORSDOF 6
ENDMDL
MODEL 3
REMARK VINA RESULT:     -10.6      2.415      6.113
REMARK  Name = 
REMARK  6 active torsions:
REMARK  status: ('A' for Active; 'I' for Inactive)
REMARK    1  A    between atoms: C_4  and  C_13
REMARK    2  A    between atoms: C_6  and  C_8
REMARK    3  A    between atoms: C_20  and  C_21
REMARK    4  A    between atoms: C_21  and  N_22
REMARK    5  A    between atoms: N_22  and  C_23
REMARK    6  A    between atoms: C_23  and  C_24
REMARK                            x       y       z     vdW  Elec       q    Type
REMARK                         _______ _______ _______ _____ _____    ______ ____
ROOT
ATOM     13  C   UNL     1      -3.124   2.332  24.823  0.00  0.00    +0.056 C 
ATOM     14  C   UNL     1      -2.673   1.711  24.952  0.00  0.00    +0.078 C 
ATOM     15  N   UNL     1      -3.331   1.741  24.455  0.00  0.00    -0.272 NA
ATOM     16  C   UNL     1      -3.713   2.716  24.504  0.00  0.00    +0.072 C 
ATOM     17  C   UNL     1      -4.153   3.164  24.323  0.00  0.00    +0.018 C 
ATOM     18  C   UNL     1      -3.768   2.354  24.334  0.00  0.00    +0.010 C 
ATOM     19  C   UNL     1      -4.144   1.742  23.829  0.00  0.00    +0.018 C 
ATOM     20  C   UNL     1      -3.726   1.110  23.927  0.00  0.00    +0.075 C 
ENDROOT
BRANCH  13   4
ATOM      1  C   UNL     1      -3.613   4.202  26.929  0.00  0.00    +0.074 C 
ATOM      2  C   UNL     1      -3.173   3.965  26.273  0.00  0.00    +0.139 A 
ATOM      3  N   UNL     1      -3.368   3.268  25.877  0.00  0.00    -0.235 NA
ATOM      4  C   UNL     1      -2.928   3.030  25.220  0.00  0.00    +0.063 A 
ATOM      5  C   UNL     1      -2.295   3.488  24.960  0.00  0.00    +0.037 A 
ATOM      6  C   UNL     1      -2.100   4.185  25.356  0.00  0.00    +0.118 A 
ATOM      7  N   UNL     1      -2.538   4.423  26.012  0.00  0.00    -0.228 NA
BRANCH   6   8
ATOM      8  C   UNL     1      -1.465   4.644  25.096  0.00  0.00    +0.163 A 
ATOM      9  C   UNL     1      -1.476   5.460  24.973  0.00  0.00    +0.042 A 
ATOM     10  C   UNL     1      -0.727   5.689  24.715  0.00  0.00    +0.044 A 
ATOM     11  C   UNL     1      -0.253   5.015  24.677  0.00  0.00    +0.180 A 
ATOM     12  O   UNL     1      -0.709   4.369  24.913  0.00  0.00    -0.449 OA
ENDBRANCH   6   8
ENDBRANCH  13   4
BRANCH  20  21
ATOM     21  C   UNL     1      -3.668   0.321  23.694  0.00  0.00    +0.105 C 
BRANCH  21  22
ATOM     22  N   UNL     1      -3.888  -0.281  24.214  0.00  0.00    -0.212 NA
BRANCH  22  23
ATOM     23  C   UNL     1      -4.128  -1.012  23.919  0.00  0.00    +0.115 C 
BRANCH  23  24
ATOM     24  C   UNL     1      -3.888  -1.707  24.295  0.00  0.00    -0.005 A 
ATOM     25  C   UNL     1      -3.930  -2.428  23.896  0.00  0.00    -0.003 A 
ATOM     26  C   UNL     1      -3.690  -3.122  24.271  0.00  0.00    -0.000 A 
ATOM     27  C   UNL     1      -3.409  -3.095  25.047  0.00  0.00    -0.000 A 
ATOM     28  C   UNL     1      -3.368  -2.374  25.446  0.00  0.00    -0.000 A 
ATOM     29  C   UNL     1      -3.607  -1.681  25.071  0.00  0.00    -0.003 A 
ENDBRANCH  23  24
ENDBRANCH  22  23
ENDBRANCH  21  22
ENDBRANCH  20  21
TORSDOF 6
ENDMDL
MODEL 4
REMARK VINA RESULT:     -10.5      1.636      5.245
REMARK  Name = 
REMARK  6 active torsions:
REMARK  status: ('A' for Active; 'I' for Inactive)
REMARK    1  A    between atoms: C_4  and  C_13
REMARK    2  A    between atoms: C_6  and  C_8
REMARK    3  A    between atoms: C_20  and  C_21
REMARK    4  A    between atoms: C_21  and  N_22
REMARK    5  A    between atoms: N_22  and  C_23
REMARK    6  A    between atoms: C_23  and  C_24
REMARK                            x       y       z     vdW  Elec       q    Type
REMARK                         _______ _______ _______ _____ _____    ______ ____
ROOT
ATOM     13  C   UNL     1      -1.485   1.859  24.885  0.00  0.00    +0.056 C 
ATOM     14  C   UNL     1      -1.466   1.419  25.527  0.00  0.00    +0.078 C 
ATOM     15  N   UNL     1      -1.248   1.182  24.767  0.00  0.00    -0.272 NA
ATOM     16  C   UNL     1      -1.391   2.005  24.133  0.00  0.00    +0.072 C 
ATOM     17  C   UNL     1      -1.365   2.275  23.539  0.00  0.00    +0.018 C 
ATOM     18  C   UNL     1      -1.270   1.619  24.143  0.00  0.00    +0.010 C 
ATOM     19  C   UNL     1      -0.969   0.854  23.836  0.00  0.00    +0.018 C 
ATOM     20  C   UNL     1      -0.935   0.389  24.441  0.00  0.00    +0.075 C 
ENDROOT
BRANCH  13   4
ATOM      1  C   UNL     1      -0.920   4.653  25.099  0.00  0.00    +0.074 C 
ATOM      2  C   UNL     1      -1.465   4.034  25.075  0.00  0.00    +0.139 A 
ATOM      3  N   UNL     1      -1.203   3.256  24.992  0.00  0.00    -0.235 NA
ATOM      4  C   UNL     1      -1.748   2.637  24.969  0.00  0.00    +0.063 A 
ATOM      5  C   UNL     1      -2.555   2.796  25.029  0.00  0.00    +0.037 A 
ATOM      6  C   UNL     1      -2.817   3.573  25.112  0.00  0.00    +0.118 A 
ATOM      7  N   UNL     1      -2.273   4.192  25.135  0.00  0.00    -0.228 NA
BRANCH   6   8
ATOM      8  C   UNL     1      -3.625   3.732  25.172  0.00  0.00    +0.163 A 
ATOM      9  C   UNL     1      -4.063   3.761  25.870  0.00  0.00    +0.042 A 
ATOM     10  C   UNL     1      -4.844   3.937  25.675  0.00  0.00    +0.044 A 
ATOM     11  C   UNL     1      -4.890   4.018  24.855  0.00  0.00    +0.180 A 
ATOM     12  O   UNL     1      -4.136   3.892  24.544  0.00  0.00    -0.449 OA
ENDBRANCH   6   8
ENDBRANCH  13   4
BRANCH  20  21
ATOM     21  C   UNL     1      -0.734  -0.378  24.666  0.00  0.00    +0.105 C 
BRANCH  21  22
ATOM     22  N   UNL     1      -1.188  -1.017  24.409  0.00  0.00    -0.212 NA
BRANCH  22  23
ATOM     23  C   UNL     1      -1.358  -1.636  24.926  0.00  0.00    +0.115 C 
BRANCH  23  24
ATOM     24  C   UNL     1      -2.056  -2.067  24.838  0.00  0.00    -0.005 A 
ATOM     25  C   UNL     1      -2.694  -1.927  25.341  0.00  0.00    -0.003 A 
ATOM     26  C   UNL     1      -3.392  -2.358  25.252  0.00  0.00    -0.000 A 
ATOM     27  C   UNL     1      -3.452  -2.929  24.660  0.00  0.00    -0.000 A 
ATOM     28  C   UNL     1      -2.813  -3.069  24.156  0.00  0.00    -0.000 A 
ATOM     29  C   UNL     1      -2.116  -2.638  24.245  0.00  0.00    -0.003 A 
ENDBRANCH  23  24
ENDBRANCH  22  23
ENDBRANCH  21  22
ENDBRANCH  20  21
TORSDOF 6
ENDMDL
MODEL 5
REMARK VINA RESULT:     -10.5      1.848      2.887
REMARK  Name = 
REMARK  6 active torsions:
REMARK  status: ('A' for Active; 'I' for Inactive)
REMARK    1  A    between atoms: C_4  and  C_13
REMARK    2  A    between atoms: C_6  and  C_8
REMARK    3  A    between atoms: C_20  and  C_21
REMARK    4  A    between atoms: C_21  and  N_22
REMARK    5  A    between atoms: N_22  and  C_23
REMARK    6  A    between atoms: C_23  and  C_24
REMARK                            x       y       z     vdW  Elec       q    Type
REMARK                         _______ _______ _______ _____ _____    ______ ____
ROOT
ATOM     13  C   UNL     1      -3.645   0.388  24.355  0.00  0.00    +0.056 C 
ATOM     14  C   UNL     1      -3.275   0.832  23.833  0.00  0.00    +0.078 C 
ATOM     15  N   UNL     1      -3.770   1.099  24.437  0.00  0.00    -0.272 NA
ATOM     16  C   UNL     1      -4.106   0.254  24.959  0.00  0.00    +0.072 C 
ATOM     17  C   UNL     1      -4.459  -0.014  25.439  0.00  0.00    +0.018 C 
ATOM     18  C   UNL     1      -4.129   0.658  24.945  0.00  0.00    +0.010 C 
ATOM     19  C   UNL     1      -4.380   1.466  25.176  0.00  0.00    +0.018 C 
ATOM     20  C   UNL     1      -4.035   1.937  24.684  0.00  0.00    +0.075 C 
ENDROOT
BRANCH  13   4
ATOM      1  C   UNL     1      -4.642  -2.209  23.695  0.00  0.00    +0.074 C 
ATOM      2  C   UNL     1      -4.033  -1.727  23.972  0.00  0.00    +0.139 A 
ATOM      3  N   UNL     1      -4.143  -0.911  24.025  0.00  0.00    -0.235 NA
ATOM      4  C   UNL     1      -3.534  -0.429  24.302  0.00  0.00    +0.063 A 
ATOM      5  C   UNL     1      -2.814  -0.762  24.527  0.00  0.00    +0.037 A 
ATOM      6  C   UNL     1      -2.703  -1.578  24.474  0.00  0.00    +0.118 A 
ATOM      7  N   UNL     1      -3.312  -2.060  24.197  0.00  0.00    -0.228 NA
BRANCH   6   8
ATOM      8  C   UNL     1      -1.983  -1.912  24.699  0.00  0.00    +0.163 A 
ATOM      9  C   UNL     1      -1.580  -2.510  24.298  0.00  0.00    +0.042 A 
ATOM     10  C   UNL     1      -0.888  -2.676  24.714  0.00  0.00    +0.044 A 
ATOM     11  C   UNL     1      -0.863  -2.180  25.373  0.00  0.00    +0.180 A 
ATOM     12  O   UNL     1      -1.540  -1.709  25.364  0.00  0.00    -0.449 OA
ENDBRANCH   6   8
ENDBRANCH  13   4
BRANCH  20  21
ATOM     21  C   UNL     1      -3.951   2.734  24.489  0.00  0.00    +0.105 C 
BRANCH  21  22
ATOM     22  N   UNL     1      -3.363   3.187  24.850  0.00  0.00    -0.212 NA
BRANCH  22  23
ATOM     23  C   UNL     1      -3.135   3.906  24.515  0.00  0.00    +0.115 C 
BRANCH  23  24
ATOM     24  C   UNL     1      -2.415   4.249  24.728  0.00  0.00    -0.005 A 
ATOM     25  C   UNL     1      -2.401   4.998  25.074  0.00  0.00    -0.003 A 
ATOM     26  C   UNL     1      -1.681   5.341  25.286  0.00  0.00    -0.000 A 
ATOM     27  C   UNL     1      -0.976   4.934  25.153  0.00  0.00    -0.000 A 
ATOM     28  C   UNL     1      -0.990   4.185  24.807  0.00  0.00    -0.000 A 
ATOM     29  C   UNL     1      -1.709   3.843  24.595  0.00  0.00    -0.003 A 
ENDBRANCH  23  24
ENDBRANCH  22  23
ENDBRANCH  21  22
ENDBRANCH  20  21
TORSDOF 6
ENDMDL
MODEL 6
REMARK VINA RESULT:     -10.0      2.162      3.159
REMARK  Name = 
REMARK  6 active torsions:
REMARK  status: ('A' for Active; 'I' for Inactive)
REMARK    1  A    between atoms: C_4  and  C_13
REMARK    2  A    between atoms: C_6  and  C_8
REMARK    3  A    between atoms: C_20  and  C_21
REMARK    4  A    between atoms: C_21  and  N_22
REMARK    5  A    between atoms: N_22  and  C_23
REMARK    6  A    between atoms: C_23  and  C_24
REMARK                            x       y       z     vdW  Elec       q    Type
REMARK                         _______ _______ _______ _____ _____    ______ ____
ROOT
ATOM     13  C   UNL     1      -1.268   1.442  24.236  0.00  0.00    +0.056 C 
ATOM     14  C   UNL     1      -1.895   1.516  23.781  0.00  0.00    +0.078 C 
ATOM     15  N   UNL     1      -1.669   2.030  24.386  0.00  0.00    -0.272 NA
ATOM     16  C   UNL     1      -0.785   1.648  24.802  0.00  0.00    +0.072 C 
ATOM     17  C   UNL     1      -0.298   1.688  25.235  0.00  0.00    +0.018 C 
ATOM     18  C   UNL     1      -1.053   1.950  24.828  0.00  0.00    +0.010 C 
ATOM     19  C   UNL     1      -1.417   2.689  25.131  0.00  0.00    +0.018 C 
ATOM     20  C   UNL     1      -2.043   2.798  24.707  0.00  0.00    +0.075 C 
ENDROOT
BRANCH  13   4
ATOM      1  C   UNL     1       1.063   0.295  23.044  0.00  0.00    +0.074 C 
ATOM      2  C   UNL     1       0.385   0.216  23.507  0.00  0.00    +0.139 A 
ATOM      3  N   UNL     1      -0.102   0.868  23.640  0.00  0.00    -0.235 NA
ATOM      4  C   UNL     1      -0.780   0.789  24.103  0.00  0.00    +0.063 A 
ATOM      5  C   UNL     1      -0.971   0.058  24.434  0.00  0.00    +0.037 A 
ATOM      6  C   UNL     1      -0.484  -0.594  24.302  0.00  0.00    +0.118 A 
ATOM      7  N   UNL     1       0.194  -0.516  23.839  0.00  0.00    -0.228 NA
BRANCH   6   8
ATOM      8  C   UNL     1      -0.674  -1.325  24.633  0.00  0.00    +0.163 A 
ATOM      9  C   UNL     1      -1.259  -1.842  24.364  0.00  0.00    +0.042 A 
ATOM     10  C   UNL     1      -1.260  -2.504  24.854  0.00  0.00    +0.044 A 
ATOM     11  C   UNL     1      -0.675  -2.398  25.427  0.00  0.00    +0.180 A 
ATOM     12  O   UNL     1      -0.314  -1.669  25.290  0.00  0.00    -0.449 OA
ENDBRANCH   6   8
ENDBRANCH  13   4
BRANCH  20  21
ATOM     21  C   UNL     1      -2.680   3.310  24.601  0.00  0.00    +0.105 C 
BRANCH  21  22
ATOM     22  N   UNL     1      -3.352   3.236  25.073  0.00  0.00    -0.212 NA
BRANCH  22  23
ATOM     23  C   UNL     1      -4.093   3.435  24.770  0.00  0.00    +0.115 C 
BRANCH  23  24
ATOM     24  C   UNL     1      -4.768   3.047  25.043  0.00  0.00    -0.005 A 
ATOM     25  C   UNL     1      -5.098   3.255  25.770  0.00  0.00    -0.003 A 
ATOM     26  C   UNL     1      -5.773   2.867  26.043  0.00  0.00    -0.000 A 
ATOM     27  C   UNL     1      -6.118   2.271  25.589  0.00  0.00    -0.000 A 
ATOM     28  C   UNL     1      -5.788   2.063  24.862  0.00  0.00    -0.000 A 
ATOM     29  C   UNL     1      -5.114   2.451  24.589  0.00  0.00    -0.003 A 
ENDBRANCH  23  24
ENDBRANCH  22  23
ENDBRANCH  21  22
ENDBRANCH  20  21
TORSDOF 6
ENDMDL
MODEL 7
REMARK VINA RESULT:      -9.7      2.593      4.813
REMARK  Name = 
REMARK  6 active torsions:
REMARK  status: ('A' for Active; 'I' for Inactive)
REMARK    1  A    between atoms: C_4  and  C_13
REMARK    2  A    between atoms: C_6  and  C_8
REMARK    3  A    between atoms: C_20  and  C_21
REMARK    4  A    between atoms: C_21  and  N_22
REMARK    5  A    between atoms: N_22  and  C_23
REMARK    6  A    between atoms: C_23  and  C_24
REMARK                            x       y       z     vdW  Elec       q    Type
REMARK                         _______ _______ _______ _____ _____    ______ ____
ROOT
ATOM     13  C   UNL     1      -1.058   0.821  23.913  0.00  0.00    +0.056 C 
ATOM     14  C   UNL     1      -0.889   1.044  23.186  0.00  0.00    +0.078 C 
ATOM     15  N   UNL     1      -0.437   0.540  23.660  0.00  0.00    -0.272 NA
ATOM     16  C   UNL     1      -0.939   0.443  24.575  0.00  0.00    +0.072 C 
ATOM     17  C   UNL     1      -0.978   0.194  25.178  0.00  0.00    +0.018 C 
ATOM     18  C   UNL     1      -0.610   0.327  24.371  0.00  0.00    +0.010 C 
ATOM     19  C   UNL     1       0.149  -0.088  24.220  0.00  0.00    +0.018 C 
ATOM     20  C   UNL     1       0.351   0.106  23.510  0.00  0.00    +0.075 C 
ENDROOT
BRANCH  13   4
ATOM      1  C   UNL     1      -3.801   0.457  24.632  0.00  0.00    +0.074 C 
ATOM      2  C   UNL     1      -3.126   0.932  24.604  0.00  0.00    +0.139 A 
ATOM      3  N   UNL     1      -2.430   0.640  24.273  0.00  0.00    -0.235 NA
ATOM      4  C   UNL     1      -1.756   1.114  24.245  0.00  0.00    +0.063 A 
ATOM      5  C   UNL     1      -1.777   1.880  24.549  0.00  0.00    +0.037 A 
ATOM      6  C   UNL     1      -2.473   2.172  24.880  0.00  0.00    +0.118 A 
ATOM      7  N   UNL     1      -3.148   1.699  24.908  0.00  0.00    -0.228 NA
BRANCH   6   8
ATOM      8  C   UNL     1      -2.496   2.939  25.184  0.00  0.00    +0.163 A 
ATOM      9  C   UNL     1      -2.875   3.586  24.841  0.00  0.00    +0.042 A 
ATOM     10  C   UNL     1      -2.757   4.240  25.328  0.00  0.00    +0.044 A 
ATOM     11  C   UNL     1      -2.305   3.998  25.975  0.00  0.00    +0.180 A 
ATOM     12  O   UNL     1      -2.143   3.194  25.886  0.00  0.00    -0.449 OA
ENDBRANCH   6   8
ENDBRANCH  13   4
BRANCH  20  21
ATOM     21  C   UNL     1       0.938  -0.009  22.942  0.00  0.00    +0.105 C 
BRANCH  21  22
ATOM     22  N   UNL     1       1.731   0.102  23.139  0.00  0.00    -0.212 NA
BRANCH  22  23
ATOM     23  C   UNL     1       2.313   0.033  22.559  0.00  0.00    +0.115 C 
BRANCH  23  24
ATOM     24  C   UNL     1       3.102   0.182  22.747  0.00  0.00    -0.005 A 
ATOM     25  C   UNL     1       3.431   0.923  22.591  0.00  0.00    -0.003 A 
ATOM     26  C   UNL     1       4.220   1.073  22.780  0.00  0.00    -0.000 A 
ATOM     27  C   UNL     1       4.681   0.481  23.124  0.00  0.00    -0.000 A 
ATOM     28  C   UNL     1       4.352  -0.260  23.280  0.00  0.00    -0.000 A 
ATOM     29  C   UNL     1       3.564  -0.409  23.092  0.00  0.00    -0.003 A 
ENDBRANCH  23  24
ENDBRANCH  22  23
ENDBRANCH  21  22
ENDBRANCH  20  21
TORSDOF 6
ENDMDL
