MODEL 1
REMARK VINA RESULT:     -10.8      0.000      0.000
REMARK  Name = 
REMARK  8 active torsions:
REMARK  status: ('A' for Active; 'I' for Inactive)
REMARK    1  A    between atoms: O_2  and  C_3
REMARK    2  A    between atoms: C_6  and  C_9
REMARK    3  A    between atoms: N_11  and  C_12
REMARK    4  A    between atoms: C_19  and  C_20
REMARK    5  A    between atoms: C_20  and  C_22
REMARK    6  A    between atoms: N_24  and  C_25
REMARK    7  A    between atoms: C_25  and  C_26
REMARK    8  A    between atoms: C_27  and  O_28
REMARK                            x       y       z     vdW  Elec       q    Type
REMARK                         _______ _______ _______ _____ _____    ______ ____
ROOT
ATOM     12  C   UNL     1      -0.368  -0.921  24.208  0.00  0.00    +0.096 C 
ATOM     13  C   UNL     1      -0.434  -1.705  23.958  0.00  0.00    +0.022 C 
ATOM     14  C   UNL     1      -1.138  -2.117  24.076  0.00  0.00    +0.002 C 
ATOM     15  C   UNL     1      -1.776  -1.747  24.444  0.00  0.00    +0.002 C 
ATOM     16  C   UNL     1      -1.843  -2.529  24.195  0.00  0.00    +0.000 C 
ATOM     17  C   UNL     1      -2.481  -2.159  24.563  0.00  0.00    +0.000 C 
ATOM     18  C   UNL     1      -3.119  -1.788  24.931  0.00  0.00    +0.003 C 
ATOM     19  C   UNL     1      -3.053  -1.004  25.181  0.00  0.00    +0.039 C 
ATOM     34  C   UNL     1      -2.349  -0.592  25.063  0.00  0.00    +0.152 C 
ATOM     35  O   UNL     1      -2.283   0.192  25.312  0.00  0.00    -0.223 OA
ATOM     36  C   UNL     1      -1.710  -0.962  24.694  0.00  0.00    +0.032 C 
ATOM     37  C   UNL     1      -1.006  -0.550  24.576  0.00  0.00    +0.022 C 
ATOM     38  C   UNL     1      -0.940   0.233  24.826  0.00  0.00    +0.002 C 
ENDROOT
BRANCH  12  11
ATOM      9  C   UNL     1       0.622  -0.388  23.324  0.00  0.00    +0.265 C 
ATOM     10  O   UNL     1       0.201  -0.680  22.676  0.00  0.00    -0.268 OA
ATOM     11  N   UNL     1       0.337  -0.509  24.089  0.00  0.00    -0.203 NA
BRANCH   9   6
ATOM      3  C   UNL     1       2.736   0.848  22.969  0.00  0.00    +0.139 A 
ATOM      4  C   UNL     1       2.119   1.199  23.389  0.00  0.00    +0.037 A 
ATOM      5  C   UNL     1       1.414   0.786  23.507  0.00  0.00    +0.008 A 
ATOM      6  C   UNL     1       1.326   0.024  23.206  0.00  0.00    +0.055 A 
ATOM      7  C   UNL     1       1.943  -0.327  22.786  0.00  0.00    +0.008 A 
ATOM      8  C   UNL     1       2.648   0.084  22.667  0.00  0.00    +0.037 A 
BRANCH   3   2
ATOM      1  C   UNL     1       4.158   0.852  22.831  0.00  0.00    +0.252 C 
ATOM      2  O   UNL     1       3.441   1.259  22.850  0.00  0.00    -0.471 OA
ENDBRANCH   3   2
ENDBRANCH   9   6
ENDBRANCH  12  11
BRANCH  19  20
ATOM     20  C   UNL     1      -3.692  -0.634  25.549  0.00  0.00    +0.081 C 
ATOM     21  C   UNL     1      -3.797  -0.708  26.364  0.00  0.00    +0.010 C 
BRANCH  20  22
ATOM     22  C   UNL     1      -4.224  -0.189  25.104  0.00  0.00    +0.241 C 
ATOM     23  O   UNL     1      -4.630  -0.540  24.475  0.00  0.00    -0.273 OA
ATOM     24  N   UNL     1      -4.353   0.605  25.285  0.00  0.00    -0.200 NA
BRANCH  24  25
ATOM     25  C   UNL     1      -4.886   1.049  24.840  0.00  0.00    +0.144 C 
BRANCH  25  26
ATOM     26  C   UNL     1      -5.091   1.812  25.080  0.00  0.00    +0.033 A 
ATOM     27  C   UNL     1      -4.792   2.466  24.676  0.00  0.00    +0.136 A 
ATOM     30  C   UNL     1      -4.997   3.228  24.916  0.00  0.00    +0.037 A 
ATOM     31  C   UNL     1      -5.501   3.336  25.561  0.00  0.00    +0.003 A 
ATOM     32  C   UNL     1      -5.800   2.681  25.965  0.00  0.00    -0.000 A 
ATOM     33  C   UNL     1      -5.594   1.920  25.724  0.00  0.00    +0.000 A 
BRANCH  27  28
ATOM     28  O   UNL     1      -4.288   2.358  24.031  0.00  0.00    -0.472 OA
ATOM     29  C   UNL     1      -3.946   3.012  23.662  0.00  0.00    +0.252 C 
ENDBRANCH  27  28
ENDBRANCH  25  26
ENDBRANCH  24  25
ENDBRANCH  20  22
ENDBRANCH  19  20
TORSDOF 8
ENDMDL
MODEL 2
REMARK VINA RESULT:     -10.6      2.844      5.279
REMARK  Name = 
REMARK  8 active torsions:
REMARK  status: ('A' for Active; 'I' for Inactive)
REMARK    1  A    between atoms: O_2  and  C_3
REMARK    2  A    between atoms: C_6  and  C_9
REMARK    3  A    between atoms: N_11  and  C_12
REMARK    4  A    between atoms: C_19  and  C_20
REMARK    5  A    between atoms: C_20  and  C_22
REMARK    6  A    between atoms: N_24  and  C_25
REMARK    7  A    between atoms: C_25  and  C_26
REMARK    8  A    between atoms: C_27  and  O_28
REMARK                            x       y       z     vdW  Elec       q    Type
REMARK                         _______ _______ _______ _____ _____    ______ ____
ROOT
ATOM     12  C   UNL     1      -4.627   0.367  24.774  0.00  0.00    +0.096 C 
ATOM     13  C   UNL     1      -5.306   0.341  25.244  0.00  0.00    +0.022 C 
ATOM     14  C   UNL     1      -5.633   1.039  25.536  0.00  0.00    +0.002 C 
ATOM     15  C   UNL     1      -5.282   1.764  25.360  0.00  0.00    +0.002 C 
ATOM     16  C   UNL     1      -5.959   1.737  25.828  0.00  0.00    +0.000 C 
ATOM     17  C   UNL     1      -5.609   2.463  25.652  0.00  0.00    +0.000 C 
ATOM     18  C   UNL     1      -5.258   3.188  25.475  0.00  0.00    +0.003 C 
ATOM     19  C   UNL     1      -4.579   3.215  25.006  0.00  0.00    +0.039 C 
ATOM     34  C   UNL     1      -4.253   2.516  24.713  0.00  0.00    +0.152 C 
ATOM     35  O   UNL     1      -3.575   2.543  24.244  0.00  0.00    -0.223 OA
ATOM     36  C   UNL     1      -4.603   1.791  24.890  0.00  0.00    +0.032 C 
ATOM     37  C   UNL     1      -4.277   1.092  24.598  0.00  0.00    +0.022 C 
ATOM     38  C   UNL     1      -3.599   1.119  24.129  0.00  0.00    +0.002 C 
ENDROOT
BRANCH  12  11
ATOM      9  C   UNL     1      -4.040  -0.916  25.003  0.00  0.00    +0.265 C 
ATOM     10  O   UNL     1      -4.105  -0.801  25.818  0.00  0.00    -0.268 OA
ATOM     11  N   UNL     1      -4.301  -0.332  24.482  0.00  0.00    -0.203 NA
BRANCH   9   6
ATOM      3  C   UNL     1      -3.060  -3.012  24.126  0.00  0.00    +0.139 A 
ATOM      4  C   UNL     1      -3.834  -2.805  23.930  0.00  0.00    +0.037 A 
ATOM      5  C   UNL     1      -4.161  -2.106  24.223  0.00  0.00    +0.008 A 
ATOM      6  C   UNL     1      -3.713  -1.614  24.711  0.00  0.00    +0.055 A 
ATOM      7  C   UNL     1      -2.939  -1.821  24.907  0.00  0.00    +0.008 A 
ATOM      8  C   UNL     1      -2.612  -2.520  24.615  0.00  0.00    +0.037 A 
BRANCH   3   2
ATOM      1  C   UNL     1      -1.990  -3.701  23.479  0.00  0.00    +0.252 C 
ATOM      2  O   UNL     1      -2.733  -3.711  23.834  0.00  0.00    -0.471 OA
ENDBRANCH   3   2
ENDBRANCH   9   6
ENDBRANCH  12  11
BRANCH  19  20
ATOM     20  C   UNL     1      -4.229   3.940  24.829  0.00  0.00    +0.081 C 
ATOM     21  C   UNL     1      -4.474   4.367  24.167  0.00  0.00    +0.010 C 
BRANCH  20  22
ATOM     22  C   UNL     1      -3.633   4.240  25.314  0.00  0.00    +0.241 C 
ATOM     23  O   UNL     1      -3.821   4.545  26.058  0.00  0.00    -0.273 OA
ATOM     24  N   UNL     1      -2.849   4.235  25.057  0.00  0.00    -0.200 NA
BRANCH  24  25
ATOM     25  C   UNL     1      -2.253   4.535  25.541  0.00  0.00    +0.144 C 
BRANCH  25  26
ATOM     26  C   UNL     1      -1.488   4.626  25.247  0.00  0.00    +0.033 A 
ATOM     27  C   UNL     1      -0.913   4.058  25.408  0.00  0.00    +0.136 A 
ATOM     30  C   UNL     1      -0.147   4.149  25.114  0.00  0.00    +0.037 A 
ATOM     31  C   UNL     1       0.043   4.810  24.659  0.00  0.00    +0.003 A 
ATOM     32  C   UNL     1      -0.533   5.380  24.497  0.00  0.00    -0.000 A 
ATOM     33  C   UNL     1      -1.298   5.287  24.792  0.00  0.00    +0.000 A 
BRANCH  27  28
ATOM     28  O   UNL     1      -1.103   3.396  25.864  0.00  0.00    -0.472 OA
ATOM     29  C   UNL     1      -0.530   2.822  26.016  0.00  0.00    +0.252 C 
ENDBRANCH  27  28
ENDBRANCH  25  26
ENDBRANCH  24  25
ENDBRANCH  20  22
ENDBRANCH  19  20
TORSDOF 8
ENDMDL
MODEL 3
REMARK VINA RESULT:     -10.1      1.630      3.380
REMARK  Name = 
REMARK  8 active torsions:
REMARK  status: ('A' for Active; 'I' for Inactive)
REMARK    1  A    between atoms: O_2  and  C_3
REMARK    2  A    between atoms: C_6  and  C_9
REMARK    3  A    between atoms: N_11  and  C_12
REMARK    4  A    between atoms: C_19  and  C_20
REMARK    5  A    between atoms: C_20  and  C_22
REMARK    6  A    between atoms: N_24  and  C_25
REMARK    7  A    between atoms: C_25  and  C_26
REMARK    8  A    between atoms: C_27  and  O_28
REMARK                            x       y       z     vdW  Elec       q    Type
REMARK                         _______ _______ _______ _____ _____    ______ ____
ROOT
ATOM     12  C   UNL     1      -0.237   2.045  24.050  0.00  0.00    +0.096 C 
ATOM     13  C   UNL     1      -0.101   2.519  24.713  0.00  0.00    +0.022 C 
ATOM     14  C   UNL     1      -0.736   2.788  25.164  0.00  0.00    +0.002 C 
ATOM     15  C   UNL     1      -1.507   2.584  24.955  0.00  0.00    +0.002 C 
ATOM     16  C   UNL     1      -1.371   3.057  25.616  0.00  0.00    +0.000 C 
ATOM     17  C   UNL     1      -2.143   2.853  25.407  0.00  0.00    +0.000 C 
ATOM     18  C   UNL     1      -2.914   2.650  25.197  0.00  0.00    +0.003 C 
ATOM     19  C   UNL     1      -3.050   2.176  24.534  0.00  0.00    +0.039 C 
ATOM     34  C   UNL     1      -2.415   1.907  24.082  0.00  0.00    +0.152 C 
ATOM     35  O   UNL     1      -2.551   1.434  23.420  0.00  0.00    -0.223 OA
ATOM     36  C   UNL     1      -1.643   2.111  24.292  0.00  0.00    +0.032 C 
ATOM     37  C   UNL     1      -1.008   1.842  23.840  0.00  0.00    +0.022 C 
ATOM     38  C   UNL     1      -1.144   1.369  23.178  0.00  0.00    +0.002 C 
ENDROOT
BRANCH  12  11
ATOM      9  C   UNL     1       0.995   1.326  23.949  0.00  0.00    +0.265 C 
ATOM     10  O   UNL     1       0.955   1.145  24.754  0.00  0.00    -0.268 OA
ATOM     11  N   UNL     1       0.399   1.777  23.598  0.00  0.00    -0.203 NA
BRANCH   9   6
ATOM      3  C   UNL     1       2.902   0.521  22.594  0.00  0.00    +0.139 A 
ATOM      4  C   UNL     1       2.219   0.062  22.659  0.00  0.00    +0.037 A 
ATOM      5  C   UNL     1       1.583   0.331  23.111  0.00  0.00    +0.008 A 
ATOM      6  C   UNL     1       1.630   1.058  23.498  0.00  0.00    +0.055 A 
ATOM      7  C   UNL     1       2.313   1.516  23.433  0.00  0.00    +0.008 A 
ATOM      8  C   UNL     1       2.949   1.249  22.981  0.00  0.00    +0.037 A 
BRANCH   3   2
ATOM      1  C   UNL     1       4.307   0.466  22.346  0.00  0.00    +0.252 C 
ATOM      2  O   UNL     1       3.538   0.253  22.142  0.00  0.00    -0.471 OA
ENDBRANCH   3   2
ENDBRANCH   9   6
ENDBRANCH  12  11
BRANCH  19  20
ATOM     20  C   UNL     1      -3.822   1.973  24.324  0.00  0.00    +0.081 C 
ATOM     21  C   UNL     1      -4.213   2.394  23.733  0.00  0.00    +0.010 C 
BRANCH  20  22
ATOM     22  C   UNL     1      -4.202   1.348  24.705  0.00  0.00    +0.241 C 
ATOM     23  O   UNL     1      -4.766   1.503  25.289  0.00  0.00    -0.273 OA
ATOM     24  N   UNL     1      -4.020   0.569  24.505  0.00  0.00    -0.200 NA
BRANCH  24  25
ATOM     25  C   UNL     1      -4.400  -0.055  24.886  0.00  0.00    +0.144 C 
BRANCH  25  26
ATOM     26  C   UNL     1      -4.213  -0.835  24.690  0.00  0.00    +0.033 A 
ATOM     27  C   UNL     1      -3.804  -1.308  25.227  0.00  0.00    +0.136 A 
ATOM     30  C   UNL     1      -3.616  -2.088  25.032  0.00  0.00    +0.037 A 
ATOM     31  C   UNL     1      -3.838  -2.393  24.298  0.00  0.00    +0.003 A 
ATOM     32  C   UNL     1      -4.248  -1.919  23.760  0.00  0.00    -0.000 A 
ATOM     33  C   UNL     1      -4.435  -1.140  23.957  0.00  0.00    +0.000 A 
BRANCH  27  28
ATOM     28  O   UNL     1      -3.582  -1.002  25.962  0.00  0.00    -0.472 OA
ATOM     29  C   UNL     1      -3.127  -1.458  26.477  0.00  0.00    +0.252 C 
ENDBRANCH  27  28
ENDBRANCH  25  26
ENDBRANCH  24  25
ENDBRANCH  20  22
ENDBRANCH  19  20
TORSDOF 8
ENDMDL
MODEL 4
REMARK VINA RESULT:     -10.1      1.729      2.367
REMARK  Name = 
REMARK  8 active torsions:
REMARK  status: ('A' for Active; 'I' for Inactive)
REMARK    1  A    between atoms: O_2  and  C_3
REMARK    2  A    between atoms: C_6  and  C_9
REMARK    3  A    between atoms: N_11  and  C_12
REMARK    4  A    between atoms: C_19  and  C_20
REMARK    5  A    between atoms: C_20  and  C_22
REMARK    6  A    between atoms: N_24  and  C_25
REMARK    7  A    between atoms: C_25  and  C_26
REMARK    8  A    between atoms: C_27  and  O_28
REMARK                            x       y       z     vdW  Elec       q    Type
REMARK                         _______ _______ _______ _____ _____    ______ ____
ROOT
ATOM     12  C   UNL     1       0.734   0.626  23.841  0.00  0.00    +0.096 C 
ATOM     13  C   UNL     1       0.307  -0.049  23.631  0.00  0.00    +0.022 C 
ATOM     14  C   UNL     1      -0.510  -0.068  23.732  0.00  0.00    +0.002 C 
ATOM     15  C   UNL     1      -0.903   0.587  24.043  0.00  0.00    +0.002 C 
ATOM     16  C   UNL     1      -1.328  -0.086  23.833  0.00  0.00    +0.000 C 
ATOM     17  C   UNL     1      -1.721   0.569  24.144  0.00  0.00    +0.000 C 
ATOM     18  C   UNL     1      -2.114   1.224  24.455  0.00  0.00    +0.003 C 
ATOM     19  C   UNL     1      -1.687   1.900  24.665  0.00  0.00    +0.039 C 
ATOM     34  C   UNL     1      -0.869   1.918  24.564  0.00  0.00    +0.152 C 
ATOM     35  O   UNL     1      -0.443   2.593  24.774  0.00  0.00    -0.223 OA
ATOM     36  C   UNL     1      -0.476   1.263  24.253  0.00  0.00    +0.032 C 
ATOM     37  C   UNL     1       0.342   1.281  24.152  0.00  0.00    +0.022 C 
ATOM     38  C   UNL     1       0.768   1.956  24.361  0.00  0.00    +0.002 C 
ENDROOT
BRANCH  12  11
ATOM      9  C   UNL     1       1.899   0.255  23.099  0.00  0.00    +0.265 C 
ATOM     10  O   UNL     1       1.426  -0.153  22.559  0.00  0.00    -0.268 OA
ATOM     11  N   UNL     1       1.553   0.644  23.739  0.00  0.00    -0.203 NA
BRANCH   9   6
ATOM      3  C   UNL     1       4.354   0.310  22.796  0.00  0.00    +0.139 A 
ATOM      4  C   UNL     1       3.900   0.969  22.597  0.00  0.00    +0.037 A 
ATOM      5  C   UNL     1       3.081   0.950  22.699  0.00  0.00    +0.008 A 
ATOM      6  C   UNL     1       2.717   0.274  22.998  0.00  0.00    +0.055 A 
ATOM      7  C   UNL     1       3.172  -0.385  23.197  0.00  0.00    +0.008 A 
ATOM      8  C   UNL     1       3.991  -0.368  23.096  0.00  0.00    +0.037 A 
BRANCH   3   2
ATOM      1  C   UNL     1       5.670   0.135  23.324  0.00  0.00    +0.252 C 
ATOM      2  O   UNL     1       5.173   0.327  22.696  0.00  0.00    -0.471 OA
ENDBRANCH   3   2
ENDBRANCH   9   6
ENDBRANCH  12  11
BRANCH  19  20
ATOM     20  C   UNL     1      -2.080   2.555  24.976  0.00  0.00    +0.081 C 
ATOM     21  C   UNL     1      -1.751   2.971  25.609  0.00  0.00    +0.010 C 
BRANCH  20  22
ATOM     22  C   UNL     1      -2.800   2.795  24.656  0.00  0.00    +0.241 C 
ATOM     23  O   UNL     1      -2.818   3.190  23.930  0.00  0.00    -0.273 OA
ATOM     24  N   UNL     1      -3.504   2.641  25.059  0.00  0.00    -0.200 NA
BRANCH  24  25
ATOM     25  C   UNL     1      -4.224   2.881  24.738  0.00  0.00    +0.144 C 
BRANCH  25  26
ATOM     26  C   UNL     1      -4.932   2.601  25.057  0.00  0.00    +0.033 A 
ATOM     27  C   UNL     1      -5.472   3.128  25.389  0.00  0.00    +0.136 A 
ATOM     30  C   UNL     1      -6.180   2.848  25.708  0.00  0.00    +0.037 A 
ATOM     31  C   UNL     1      -6.347   2.040  25.693  0.00  0.00    +0.003 A 
ATOM     32  C   UNL     1      -5.807   1.512  25.360  0.00  0.00    -0.000 A 
ATOM     33  C   UNL     1      -5.099   1.794  25.042  0.00  0.00    +0.000 A 
BRANCH  27  28
ATOM     28  O   UNL     1      -5.305   3.936  25.404  0.00  0.00    -0.472 OA
ATOM     29  C   UNL     1      -5.885   4.473  25.641  0.00  0.00    +0.252 C 
ENDBRANCH  27  28
ENDBRANCH  25  26
ENDBRANCH  24  25
ENDBRANCH  20  22
ENDBRANCH  19  20
TORSDOF 8
ENDMDL
MODEL 5
REMARK VINA RESULT:      -9.8      1.327      6.896
REMARK  Name = 
REMARK  8 active torsions:
REMARK  status: ('A' for Active; 'I' for Inactive)
REMARK    1  A    between atoms: O_2  and  C_3
REMARK    2  A    between atoms: C_6  and  C_9
REMARK    3  A    between atoms: N_11  and  C_12
REMARK    4  A    between atoms: C_19  and  C_20
REMARK    5  A    between atoms: C_20  and  C_22
REMARK    6  A    between atoms: N_24  and  C_25
REMARK    7  A    between atoms: C_25  and  C_26
REMARK    8  A    between atoms: C_27  and  O_28
REMARK                            x       y       z     vdW  Elec       q    Type
REMARK                         _______ _______ _______ _____ _____    ______ ____
ROOT
ATOM     12  C   UNL     1      -2.163   0.471  24.668  0.00  0.00    +0.096 C 
ATOM     13  C   UNL     1      -2.158  -0.348  24.772  0.00  0.00    +0.022 C 
ATOM     14  C   UNL     1      -1.487  -0.785  24.578  0.00  0.00    +0.002 C 
ATOM     15  C   UNL     1      -0.819  -0.404  24.279  0.00  0.00    +0.002 C 
ATOM     16  C   UNL     1      -0.815  -1.221  24.383  0.00  0.00    +0.000 C 
ATOM     17  C   UNL     1      -0.147  -0.840  24.084  0.00  0.00    +0.000 C 
ATOM     18  C   UNL     1       0.521  -0.459  23.786  0.00  0.00    +0.003 C 
ATOM     19  C   UNL     1       0.516   0.360  23.682  0.00  0.00    +0.039 C 
ATOM     34  C   UNL     1      -0.155   0.797  23.876  0.00  0.00    +0.152 C 
ATOM     35  O   UNL     1      -0.160   1.615  23.773  0.00  0.00    -0.223 OA
ATOM     36  C   UNL     1      -0.824   0.416  24.175  0.00  0.00    +0.032 C 
ATOM     37  C   UNL     1      -1.495   0.852  24.370  0.00  0.00    +0.022 C 
ATOM     38  C   UNL     1      -1.500   1.670  24.266  0.00  0.00    +0.002 C 
ENDROOT
BRANCH  12  11
ATOM      9  C   UNL     1      -3.566   0.713  24.532  0.00  0.00    +0.265 C 
ATOM     10  O   UNL     1      -3.623   0.080  24.004  0.00  0.00    -0.268 OA
ATOM     11  N   UNL     1      -2.835   0.908  24.863  0.00  0.00    -0.203 NA
BRANCH   9   6
ATOM      3  C   UNL     1      -5.582   2.022  25.118  0.00  0.00    +0.139 A 
ATOM      4  C   UNL     1      -5.039   2.322  24.573  0.00  0.00    +0.037 A 
ATOM      5  C   UNL     1      -4.367   1.885  24.378  0.00  0.00    +0.008 A 
ATOM      6  C   UNL     1      -4.237   1.149  24.727  0.00  0.00    +0.055 A 
ATOM      7  C   UNL     1      -4.780   0.850  25.271  0.00  0.00    +0.008 A 
ATOM      8  C   UNL     1      -5.452   1.285  25.467  0.00  0.00    +0.037 A 
BRANCH   3   2
ATOM      1  C   UNL     1      -6.177   3.196  25.673  0.00  0.00    +0.252 C 
ATOM      2  O   UNL     1      -6.254   2.458  25.313  0.00  0.00    -0.471 OA
ENDBRANCH   3   2
ENDBRANCH   9   6
ENDBRANCH  12  11
BRANCH  19  20
ATOM     20  C   UNL     1       1.185   0.741  23.383  0.00  0.00    +0.081 C 
ATOM     21  C   UNL     1       1.259   1.559  23.456  0.00  0.00    +0.010 C 
BRANCH  20  22
ATOM     22  C   UNL     1       1.777   0.305  23.012  0.00  0.00    +0.241 C 
ATOM     23  O   UNL     1       1.594  -0.170  22.361  0.00  0.00    -0.273 OA
ATOM     24  N   UNL     1       2.553   0.342  23.289  0.00  0.00    -0.200 NA
BRANCH  24  25
ATOM     25  C   UNL     1       3.146  -0.095  22.918  0.00  0.00    +0.144 C 
BRANCH  25  26
ATOM     26  C   UNL     1       3.935   0.008  23.138  0.00  0.00    +0.033 A 
ATOM     27  C   UNL     1       4.356  -0.619  23.470  0.00  0.00    +0.136 A 
ATOM     30  C   UNL     1       5.144  -0.516  23.690  0.00  0.00    +0.037 A 
ATOM     31  C   UNL     1       5.511   0.214  23.578  0.00  0.00    +0.003 A 
ATOM     32  C   UNL     1       5.090   0.842  23.246  0.00  0.00    -0.000 A 
ATOM     33  C   UNL     1       4.302   0.738  23.027  0.00  0.00    +0.000 A 
BRANCH  27  28
ATOM     28  O   UNL     1       3.988  -1.350  23.581  0.00  0.00    -0.472 OA
ATOM     29  C   UNL     1       4.410  -1.977  23.912  0.00  0.00    +0.252 C 
ENDBRANCH  27  28
ENDBRANCH  25  26
ENDBRANCH  24  25
ENDBRANCH  20  22
ENDBRANCH  19  20
TORSDOF 8
ENDMDL
MODEL 6
REMARK VINA RESULT:      -9.8      1.021      5.849
REMARK  Name = 
REMARK  8 active torsions:
REMARK  status: ('A' for Active; 'I' for Inactive)
REMARK    1  A    between atoms: O_2  and  C_3
REMARK    2  A    between atoms: C_6  and  C_9
REMARK    3  A    between atoms: N_11  and  C_12
REMARK    4  A    between atoms: C_19  and  C_20
REMARK    5  A    between atoms: C_20  and  C_22
REMARK    6  A    between atoms: N_24  and  C_25
REMARK    7  A    between atoms: C_25  and  C_26
REMARK    8  A    between atoms: C_27  and  O_28
REMARK                            x       y       z     vdW  Elec       q    Type
REMARK                         _______ _______ _______ _____ _____    ______ ____
ROOT
ATOM     12  C   UNL     1      -4.252   0.259  25.019  0.00  0.00    +0.096 C 
ATOM     13  C   UNL     1      -4.727  -0.269  24.597  0.00  0.00    +0.022 C 
ATOM     14  C   UNL     1      -4.405  -0.970  24.305  0.00  0.00    +0.002 C 
ATOM     15  C   UNL     1      -3.609  -1.143  24.434  0.00  0.00    +0.002 C 
ATOM     16  C   UNL     1      -4.083  -1.670  24.013  0.00  0.00    +0.000 C 
ATOM     17  C   UNL     1      -3.287  -1.844  24.142  0.00  0.00    +0.000 C 
ATOM     18  C   UNL     1      -2.491  -2.018  24.271  0.00  0.00    +0.003 C 
ATOM     19  C   UNL     1      -2.016  -1.490  24.692  0.00  0.00    +0.039 C 
ATOM     34  C   UNL     1      -2.338  -0.789  24.984  0.00  0.00    +0.152 C 
ATOM     35  O   UNL     1      -1.864  -0.261  25.405  0.00  0.00    -0.223 OA
ATOM     36  C   UNL     1      -3.134  -0.615  24.855  0.00  0.00    +0.032 C 
ATOM     37  C   UNL     1      -3.456   0.086  25.147  0.00  0.00    +0.022 C 
ATOM     38  C   UNL     1      -2.982   0.613  25.568  0.00  0.00    +0.002 C 
ENDROOT
BRANCH  12  11
ATOM      9  C   UNL     1      -4.799   1.561  24.790  0.00  0.00    +0.265 C 
ATOM     10  O   UNL     1      -4.700   1.460  23.977  0.00  0.00    -0.268 OA
ATOM     11  N   UNL     1      -4.574   0.960  25.310  0.00  0.00    -0.203 NA
BRANCH   9   6
ATOM      3  C   UNL     1      -5.766   3.663  25.667  0.00  0.00    +0.139 A 
ATOM      4  C   UNL     1      -6.193   2.959  25.720  0.00  0.00    +0.037 A 
ATOM      5  C   UNL     1      -5.870   2.258  25.427  0.00  0.00    +0.008 A 
ATOM      6  C   UNL     1      -5.121   2.261  25.083  0.00  0.00    +0.055 A 
ATOM      7  C   UNL     1      -4.694   2.965  25.030  0.00  0.00    +0.008 A 
ATOM      8  C   UNL     1      -5.016   3.666  25.322  0.00  0.00    +0.037 A 
BRANCH   3   2
ATOM      1  C   UNL     1      -6.150   5.024  25.470  0.00  0.00    +0.252 C 
ATOM      2  O   UNL     1      -6.087   4.364  25.959  0.00  0.00    -0.471 OA
ENDBRANCH   3   2
ENDBRANCH   9   6
ENDBRANCH  12  11
BRANCH  19  20
ATOM     20  C   UNL     1      -1.220  -1.664  24.821  0.00  0.00    +0.081 C 
ATOM     21  C   UNL     1      -0.983  -2.008  25.532  0.00  0.00    +0.010 C 
BRANCH  20  22
ATOM     22  C   UNL     1      -0.661  -1.494  24.239  0.00  0.00    +0.241 C 
ATOM     23  O   UNL     1      -0.530  -2.029  23.624  0.00  0.00    -0.273 OA
ATOM     24  N   UNL     1      -0.232  -0.790  24.272  0.00  0.00    -0.200 NA
BRANCH  24  25
ATOM     25  C   UNL     1       0.327  -0.620  23.690  0.00  0.00    +0.144 C 
BRANCH  25  26
ATOM     26  C   UNL     1       0.663   0.132  23.647  0.00  0.00    +0.033 A 
ATOM     27  C   UNL     1       1.349   0.254  23.205  0.00  0.00    +0.136 A 
ATOM     30  C   UNL     1       1.685   1.006  23.162  0.00  0.00    +0.037 A 
ATOM     31  C   UNL     1       1.334   1.637  23.561  0.00  0.00    +0.003 A 
ATOM     32  C   UNL     1       0.647   1.516  24.003  0.00  0.00    -0.000 A 
ATOM     33  C   UNL     1       0.313   0.763  24.045  0.00  0.00    +0.000 A 
BRANCH  27  28
ATOM     28  O   UNL     1       1.700  -0.379  22.806  0.00  0.00    -0.472 OA
ATOM     29  C   UNL     1       2.359  -0.248  22.326  0.00  0.00    +0.252 C 
ENDBRANCH  27  28
ENDBRANCH  25  26
ENDBRANCH  24  25
ENDBRANCH  20  22
ENDBRANCH  19  20
TORSDOF 8
ENDMDL
MODEL 7
REMARK VINA RESULT:      -9.3      2.427      3.471
REMARK  Name = 
REMARK  8 active torsions:
REMARK  status: ('A' for Active; 'I' for Inactive)
REMARK    1  A    between atoms: O_2  and  C_3
REMARK    2  A    between atoms: C_6  and  C_9
REMARK    3  A    between atoms: N_11  and  C_12
REMARK    4  A    between atoms: C_19  and  C_20
REMARK    5  A    between atoms: C_20  and  C_22
REMARK    6  A    between atoms: N_24  and  C_25
REMARK    7  A    between atoms: C_25  and  C_26
REMARK    8  A    between atoms: C_27  and  O_28
REMARK                            x       y       z     vdW  Elec       q    Type
REMARK                         _______ _______ _______ _____ _____    ______ ____
ROOT
ATOM     12  C   UNL     1       0.193   2.129  24.776  0.00  0.00    +0.096 C 
ATOM     13  C   UNL     1       0.356   1.936  25.562  0.00  0.00    +0.022 C 
ATOM     14  C   UNL     1      -0.107   2.248  26.168  0.00  0.00    +0.002 C 
ATOM     15  C   UNL     1      -0.733   2.754  25.990  0.00  0.00    +0.002 C 
ATOM     16  C   UNL     1      -0.570   2.561  26.774  0.00  0.00    +0.000 C 
ATOM     17  C   UNL     1      -1.197   3.067  26.596  0.00  0.00    +0.000 C 
ATOM     18  C   UNL     1      -1.823   3.573  26.418  0.00  0.00    +0.003 C 
ATOM     19  C   UNL     1      -1.987   3.766  25.632  0.00  0.00    +0.039 C 
ATOM     34  C   UNL     1      -1.524   3.454  25.026  0.00  0.00    +0.152 C 
ATOM     35  O   UNL     1      -1.687   3.647  24.240  0.00  0.00    -0.223 OA
ATOM     36  C   UNL     1      -0.897   2.947  25.204  0.00  0.00    +0.032 C 
ATOM     37  C   UNL     1      -0.433   2.635  24.598  0.00  0.00    +0.022 C 
ATOM     38  C   UNL     1      -0.597   2.828  23.812  0.00  0.00    +0.002 C 
ENDROOT
BRANCH  12  11
ATOM      9  C   UNL     1       0.722   0.999  24.079  0.00  0.00    +0.265 C 
ATOM     10  O   UNL     1       0.323   0.493  24.595  0.00  0.00    -0.268 OA
ATOM     11  N   UNL     1       0.657   1.816  24.170  0.00  0.00    -0.203 NA
BRANCH   9   6
ATOM      3  C   UNL     1       2.114   0.061  22.260  0.00  0.00    +0.139 A 
ATOM      4  C   UNL     1       2.432   0.619  22.777  0.00  0.00    +0.037 A 
ATOM      5  C   UNL     1       1.968   0.931  23.384  0.00  0.00    +0.008 A 
ATOM      6  C   UNL     1       1.186   0.686  23.473  0.00  0.00    +0.055 A 
ATOM      7  C   UNL     1       0.867   0.129  22.955  0.00  0.00    +0.008 A 
ATOM      8  C   UNL     1       1.330  -0.184  22.349  0.00  0.00    +0.037 A 
BRANCH   3   2
ATOM      1  C   UNL     1       3.343   0.027  21.533  0.00  0.00    +0.252 C 
ATOM      2  O   UNL     1       2.577  -0.252  21.653  0.00  0.00    -0.471 OA
ENDBRANCH   3   2
ENDBRANCH   9   6
ENDBRANCH  12  11
BRANCH  19  20
ATOM     20  C   UNL     1      -2.614   4.272  25.454  0.00  0.00    +0.081 C 
ATOM     21  C   UNL     1      -2.478   4.958  25.016  0.00  0.00    +0.010 C 
BRANCH  20  22
ATOM     22  C   UNL     1      -3.376   4.093  25.713  0.00  0.00    +0.241 C 
ATOM     23  O   UNL     1      -3.672   4.445  26.399  0.00  0.00    -0.273 OA
ATOM     24  N   UNL     1      -3.843   3.562  25.288  0.00  0.00    -0.200 NA
BRANCH  24  25
ATOM     25  C   UNL     1      -4.604   3.382  25.547  0.00  0.00    +0.144 C 
BRANCH  25  26
ATOM     26  C   UNL     1      -5.006   2.733  25.233  0.00  0.00    +0.033 A 
ATOM     27  C   UNL     1      -5.614   2.378  25.661  0.00  0.00    +0.136 A 
ATOM     30  C   UNL     1      -6.016   1.729  25.347  0.00  0.00    +0.037 A 
ATOM     31  C   UNL     1      -5.807   1.435  24.605  0.00  0.00    +0.003 A 
ATOM     32  C   UNL     1      -5.197   1.790  24.176  0.00  0.00    -0.000 A 
ATOM     33  C   UNL     1      -4.797   2.439  24.491  0.00  0.00    +0.000 A 
BRANCH  27  28
ATOM     28  O   UNL     1      -5.823   2.672  26.404  0.00  0.00    -0.472 OA
ATOM     29  C   UNL     1      -6.376   2.270  26.866  0.00  0.00    +0.252 C 
ENDBRANCH  27  28
ENDBRANCH  25  26
ENDBRANCH  24  25
ENDBRANCH  20  22
ENDBRANCH  19  20
TORSDOF 8
ENDMDL
MODEL 8
REMARK VINA RESULT:      -8.0      2.502      4.636
REMARK  Name = 
REMARK  8 active torsions:
REMARK  status: ('A' for Active; 'I' for Inactive)
REMARK    1  A    between atoms: O_2  and  C_3
REMARK    2  A    between atoms: C_6  and  C_9
REMARK    3  A    between atoms: N_11  and  C_12
REMARK    4  A    between atoms: C_19  and  C_20
REMARK    5  A    between atoms: C_20  and  C_22
REMARK    6  A    between atoms: N_24  and  C_25
REMARK    7  A    between atoms: C_25  and  C_26
REMARK    8  A    between atoms: C_27  and  O_28
REMARK                            x       y       z     vdW  Elec       q    Type
REMARK                         _______ _______ _______ _____ _____    ______ ____
ROOT
ATOM     12  C   UNL     1      -1.384   0.132  25.019  0.00  0.00    +0.096 C 
ATOM     13  C   UNL     1      -0.940   0.052  25.711  0.00  0.00    +0.022 C 
ATOM     14  C   UNL     1      -0.548   0.704  26.027  0.00  0.00    +0.002 C 
ATOM     15  C   UNL     1      -0.599   1.437  25.653  0.00  0.00    +0.002 C 
ATOM     16  C   UNL     1      -0.156   1.357  26.343  0.00  0.00    +0.000 C 
ATOM     17  C   UNL     1      -0.207   2.091  25.969  0.00  0.00    +0.000 C 
ATOM     18  C   UNL     1      -0.258   2.824  25.596  0.00  0.00    +0.003 C 
ATOM     19  C   UNL     1      -0.702   2.904  24.904  0.00  0.00    +0.039 C 
ATOM     34  C   UNL     1      -1.095   2.252  24.588  0.00  0.00    +0.152 C 
ATOM     35  O   UNL     1      -1.539   2.332  23.897  0.00  0.00    -0.223 OA
ATOM     36  C   UNL     1      -1.044   1.518  24.962  0.00  0.00    +0.032 C 
ATOM     37  C   UNL     1      -1.436   0.865  24.645  0.00  0.00    +0.022 C 
ATOM     38  C   UNL     1      -1.880   0.946  23.955  0.00  0.00    +0.002 C 
ENDROOT
BRANCH  12  11
ATOM      9  C   UNL     1      -2.293  -0.961  25.173  0.00  0.00    +0.265 C 
ATOM     10  O   UNL     1      -2.417  -0.747  25.961  0.00  0.00    -0.268 OA
ATOM     11  N   UNL     1      -1.777  -0.521  24.703  0.00  0.00    -0.203 NA
BRANCH   9   6
ATOM      3  C   UNL     1      -3.469  -2.921  24.224  0.00  0.00    +0.139 A 
ATOM      4  C   UNL     1      -3.882  -2.221  24.366  0.00  0.00    +0.037 A 
ATOM      5  C   UNL     1      -3.489  -1.568  24.682  0.00  0.00    +0.008 A 
ATOM      6  C   UNL     1      -2.685  -1.614  24.857  0.00  0.00    +0.055 A 
ATOM      7  C   UNL     1      -2.272  -2.314  24.715  0.00  0.00    +0.008 A 
ATOM      8  C   UNL     1      -2.663  -2.967  24.398  0.00  0.00    +0.037 A 
BRANCH   3   2
ATOM      1  C   UNL     1      -4.541  -3.469  23.455  0.00  0.00    +0.252 C 
ATOM      2  O   UNL     1      -3.860  -3.574  23.907  0.00  0.00    -0.471 OA
ENDBRANCH   3   2
ENDBRANCH   9   6
ENDBRANCH  12  11
BRANCH  19  20
ATOM     20  C   UNL     1      -0.754   3.638  24.530  0.00  0.00    +0.081 C 
ATOM     21  C   UNL     1      -0.236   3.824  23.916  0.00  0.00    +0.010 C 
BRANCH  20  22
ATOM     22  C   UNL     1      -1.321   4.185  24.771  0.00  0.00    +0.241 C 
ATOM     23  O   UNL     1      -1.096   4.956  24.966  0.00  0.00    -0.273 OA
ATOM     24  N   UNL     1      -2.115   3.964  24.817  0.00  0.00    -0.200 NA
BRANCH  24  25
ATOM     25  C   UNL     1      -2.683   4.512  25.057  0.00  0.00    +0.144 C 
BRANCH  25  26
ATOM     26  C   UNL     1      -3.470   4.280  25.141  0.00  0.00    +0.033 A 
ATOM     27  C   UNL     1      -3.789   4.165  25.892  0.00  0.00    +0.136 A 
ATOM     30  C   UNL     1      -4.577   3.934  25.976  0.00  0.00    +0.037 A 
ATOM     31  C   UNL     1      -5.046   3.818  25.307  0.00  0.00    +0.003 A 
ATOM     32  C   UNL     1      -4.727   3.933  24.554  0.00  0.00    -0.000 A 
ATOM     33  C   UNL     1      -3.939   4.164  24.472  0.00  0.00    +0.000 A 
BRANCH  27  28
ATOM     28  O   UNL     1      -3.320   4.281  26.562  0.00  0.00    -0.472 OA
ATOM     29  C   UNL     1      -3.611   4.083  27.308  0.00  0.00    +0.252 C 
ENDBRANCH  27  28
ENDBRANCH  25  26
ENDBRANCH  24  25
ENDBRANCH  20  22
ENDBRANCH  19  20
TORSDOF 8
ENDMDL
