MODEL 1
REMARK VINA RESULT:     -14.0      0.000      0.000
REMARK  Name = 
REMARK  4 active torsions:
REMARK  status: ('A' for Active; 'I' for Inactive)
REMARK    1  A    between atoms: C_7  and  C_9
REMARK    2  A    between atoms: N_12  and  C_13
REMARK    3  A    between atoms: C_13  and  C_14
REMARK    4  A    between atoms: C_17  and  C_20
REMARK                            x       y       z     vdW  Elec       q    Type
REMARK                         _______ _______ _______ _____ _____    ______ ____
ROOT
ATOM      9  C   UNL     1      -4.639   1.107  25.015  0.00  0.00    +0.094 C 
ATOM     10  C   UNL     1      -5.247   1.362  25.509  0.00  0.00    +0.028 C 
ATOM     11  C   UNL     1      -5.276   2.186  25.476  0.00  0.00    +0.073 C 
ATOM     12  N   UNL     1      -4.684   2.440  24.959  0.00  0.00    -0.268 NA
ATOM     24  C   UNL     1      -4.291   1.773  24.675  0.00  0.00    +0.082 C 
ENDROOT
BRANCH   9   7
ATOM      1  C   UNL     1      -3.135  -2.939  25.077  0.00  0.00    +0.031 C 
ATOM      2  C   UNL     1      -3.510  -2.250  24.822  0.00  0.00    -0.020 A 
ATOM      3  C   UNL     1      -3.519  -1.582  25.305  0.00  0.00    +0.018 A 
ATOM      4  C   UNL     1      -3.893  -0.893  25.050  0.00  0.00    +0.118 A 
ATOM      5  C   UNL     1      -4.260  -0.872  24.311  0.00  0.00    +0.164 A 
ATOM      6  O   UNL     1      -4.584  -0.121  24.208  0.00  0.00    -0.438 OA
ATOM      7  C   UNL     1      -4.417   0.323  24.883  0.00  0.00    +0.207 A 
ATOM      8  N   UNL     1      -3.991  -0.154  25.403  0.00  0.00    -0.212 NA
ATOM     25  C   UNL     1      -4.251  -1.541  23.827  0.00  0.00    +0.039 A 
ATOM     26  C   UNL     1      -3.876  -2.230  24.083  0.00  0.00    -0.001 A 
ENDBRANCH   9   7
BRANCH  12  13
ATOM     13  C   UNL     1      -4.516   3.223  24.762  0.00  0.00    +0.099 C 
BRANCH  13  14
ATOM     14  C   UNL     1      -3.767   3.536  24.917  0.00  0.00    -0.006 A 
ATOM     15  C   UNL     1      -3.197   3.555  24.320  0.00  0.00    -0.003 A 
ATOM     16  C   UNL     1      -2.450   3.868  24.475  0.00  0.00    +0.004 A 
ATOM     17  C   UNL     1      -2.272   4.161  25.225  0.00  0.00    +0.071 A 
ATOM     18  C   UNL     1      -2.842   4.142  25.821  0.00  0.00    +0.004 A 
ATOM     19  C   UNL     1      -3.590   3.829  25.667  0.00  0.00    -0.003 A 
BRANCH  17  20
ATOM     20  C   UNL     1      -1.525   4.474  25.379  0.00  0.00    +0.419 C 
ATOM     21  F   UNL     1      -0.777   4.788  25.533  0.00  0.00    -0.166 F 
ATOM     22  F   UNL     1      -1.776   5.210  25.102  0.00  0.00    -0.166 F 
ATOM     23  F   UNL     1      -1.274   3.739  25.656  0.00  0.00    -0.166 F 
ENDBRANCH  17  20
ENDBRANCH  13  14
ENDBRANCH  12  13
TORSDOF 4
ENDMDL
MODEL 2
REMARK VINA RESULT:     -13.6      3.170      5.918
REMARK  Name = 
REMARK  4 active torsions:
REMARK  status: ('A' for Active; 'I' for Inactive)
REMARK    1  A    between atoms: C_7  and  C_9
REMARK    2  A    between atoms: N_12  and  C_13
REMARK    3  A    between atoms: C_13  and  C_14
REMARK    4  A    between atoms: C_17  and  C_20
REMARK                            x       y       z     vdW  Elec       q    Type
REMARK                         _______ _______ _______ _____ _____    ______ ____
ROOT
ATOM      9  C   UNL     1      -1.152   1.064  25.145  0.00  0.00    +0.094 C 
ATOM     10  C   UNL     1      -0.574   0.683  24.697  0.00  0.00    +0.028 C 
ATOM     11  C   UNL     1      -0.639  -0.128  24.832  0.00  0.00    +0.073 C 
ATOM     12  N   UNL     1      -1.258  -0.249  25.363  0.00  0.00    -0.268 NA
ATOM     24  C   UNL     1      -1.575   0.488  25.556  0.00  0.00    +0.082 C 
ENDROOT
BRANCH   9   7
ATOM      1  C   UNL     1      -1.075   5.378  25.001  0.00  0.00    +0.031 C 
ATOM      2  C   UNL     1      -1.338   4.606  25.125  0.00  0.00    -0.020 A 
ATOM      3  C   UNL     1      -0.846   3.969  24.948  0.00  0.00    +0.018 A 
ATOM      4  C   UNL     1      -1.109   3.197  25.072  0.00  0.00    +0.118 A 
ATOM      5  C   UNL     1      -1.866   3.063  25.373  0.00  0.00    +0.164 A 
ATOM      6  O   UNL     1      -1.974   2.248  25.437  0.00  0.00    -0.438 OA
ATOM      7  C   UNL     1      -1.285   1.878  25.175  0.00  0.00    +0.207 A 
ATOM      8  N   UNL     1      -0.751   2.465  24.950  0.00  0.00    -0.212 NA
ATOM     25  C   UNL     1      -2.359   3.701  25.550  0.00  0.00    +0.039 A 
ATOM     26  C   UNL     1      -2.095   4.472  25.426  0.00  0.00    -0.001 A 
ENDBRANCH   9   7
BRANCH  12  13
ATOM     13  C   UNL     1      -1.515  -0.978  25.651  0.00  0.00    +0.099 C 
BRANCH  13  14
ATOM     14  C   UNL     1      -2.132  -1.376  25.274  0.00  0.00    -0.006 A 
ATOM     15  C   UNL     1      -1.966  -1.933  24.687  0.00  0.00    -0.003 A 
ATOM     16  C   UNL     1      -2.583  -2.331  24.311  0.00  0.00    +0.004 A 
ATOM     17  C   UNL     1      -3.365  -2.173  24.520  0.00  0.00    +0.071 A 
ATOM     18  C   UNL     1      -3.531  -1.617  25.107  0.00  0.00    +0.004 A 
ATOM     19  C   UNL     1      -2.914  -1.218  25.484  0.00  0.00    -0.003 A 
BRANCH  17  20
ATOM     20  C   UNL     1      -3.981  -2.572  24.144  0.00  0.00    +0.419 C 
ATOM     21  F   UNL     1      -4.597  -2.971  23.767  0.00  0.00    -0.166 F 
ATOM     22  F   UNL     1      -3.805  -3.253  24.576  0.00  0.00    -0.166 F 
ATOM     23  F   UNL     1      -4.156  -1.892  23.712  0.00  0.00    -0.166 F 
ENDBRANCH  17  20
ENDBRANCH  13  14
ENDBRANCH  12  13
TORSDOF 4
ENDMDL
MODEL 3
REMARK VINA RESULT:     -13.6      2.648      5.402
REMARK  Name = 
REMARK  4 active torsions:
REMARK  status: ('A' for Active; 'I' for Inactive)
REMARK    1  A    between atoms: C_7  and  C_9
REMARK    2  A    between atoms: N_12  and  C_13
REMARK    3  A    between atoms: C_13  and  C_14
REMARK    4  A    between atoms: C_17  and  C_20
REMARK                            x       y       z     vdW  Elec       q    Type
REMARK                         _______ _______ _______ _____ _____    ______ ____
ROOT
ATOM      9  C   UNL     1      -3.551   1.990  24.774  0.00  0.00    +0.094 C 
ATOM     10  C   UNL     1      -4.193   2.014  24.256  0.00  0.00    +0.028 C 
ATOM     11  C   UNL     1      -4.649   1.338  24.383  0.00  0.00    +0.073 C 
ATOM     12  N   UNL     1      -4.288   0.896  24.978  0.00  0.00    -0.268 NA
ATOM     24  C   UNL     1      -3.610   1.299  25.220  0.00  0.00    +0.082 C 
ENDROOT
BRANCH   9   7
ATOM      1  C   UNL     1      -1.060   5.502  25.075  0.00  0.00    +0.031 C 
ATOM      2  C   UNL     1      -1.292   4.713  25.027  0.00  0.00    -0.020 A 
ATOM      3  C   UNL     1      -2.091   4.520  24.971  0.00  0.00    +0.018 A 
ATOM      4  C   UNL     1      -2.324   3.730  24.923  0.00  0.00    +0.118 A 
ATOM      5  C   UNL     1      -1.755   3.132  24.930  0.00  0.00    +0.164 A 
ATOM      6  O   UNL     1      -2.146   2.408  24.876  0.00  0.00    -0.438 OA
ATOM      7  C   UNL     1      -2.956   2.557  24.834  0.00  0.00    +0.207 A 
ATOM      8  N   UNL     1      -3.065   3.374  24.863  0.00  0.00    -0.212 NA
ATOM     25  C   UNL     1      -0.954   3.324  24.986  0.00  0.00    +0.039 A 
ATOM     26  C   UNL     1      -0.723   4.115  25.035  0.00  0.00    -0.001 A 
ENDBRANCH   9   7
BRANCH  12  13
ATOM     13  C   UNL     1      -4.558   0.177  25.280  0.00  0.00    +0.099 C 
BRANCH  13  14
ATOM     14  C   UNL     1      -4.203  -0.530  25.043  0.00  0.00    -0.006 A 
ATOM     15  C   UNL     1      -4.387  -0.858  24.309  0.00  0.00    -0.003 A 
ATOM     16  C   UNL     1      -4.032  -1.564  24.073  0.00  0.00    +0.004 A 
ATOM     17  C   UNL     1      -3.494  -1.942  24.570  0.00  0.00    +0.071 A 
ATOM     18  C   UNL     1      -3.310  -1.614  25.305  0.00  0.00    +0.004 A 
ATOM     19  C   UNL     1      -3.664  -0.907  25.542  0.00  0.00    -0.003 A 
BRANCH  17  20
ATOM     20  C   UNL     1      -3.139  -2.648  24.334  0.00  0.00    +0.419 C 
ATOM     21  F   UNL     1      -2.783  -3.355  24.097  0.00  0.00    -0.166 F 
ATOM     22  F   UNL     1      -2.455  -2.236  24.128  0.00  0.00    -0.166 F 
ATOM     23  F   UNL     1      -3.823  -3.061  24.540  0.00  0.00    -0.166 F 
ENDBRANCH  17  20
ENDBRANCH  13  14
ENDBRANCH  12  13
TORSDOF 4
ENDMDL
MODEL 4
REMARK VINA RESULT:     -13.6      1.933      2.571
REMARK  Name = 
REMARK  4 active torsions:
REMARK  status: ('A' for Active; 'I' for Inactive)
REMARK    1  A    between atoms: C_7  and  C_9
REMARK    2  A    between atoms: N_12  and  C_13
REMARK    3  A    between atoms: C_13  and  C_14
REMARK    4  A    between atoms: C_17  and  C_20
REMARK                            x       y       z     vdW  Elec       q    Type
REMARK                         _______ _______ _______ _____ _____    ______ ____
ROOT
ATOM      9  C   UNL     1      -1.404   0.442  24.781  0.00  0.00    +0.094 C 
ATOM     10  C   UNL     1      -0.700   0.513  24.357  0.00  0.00    +0.028 C 
ATOM     11  C   UNL     1      -0.267   1.136  24.682  0.00  0.00    +0.073 C 
ATOM     12  N   UNL     1      -0.704   1.450  25.307  0.00  0.00    -0.268 NA
ATOM     24  C   UNL     1      -1.406   1.021  25.369  0.00  0.00    +0.082 C 
ENDROOT
BRANCH   9   7
ATOM      1  C   UNL     1      -3.950  -3.006  24.270  0.00  0.00    +0.031 C 
ATOM      2  C   UNL     1      -3.692  -2.223  24.289  0.00  0.00    -0.020 A 
ATOM      3  C   UNL     1      -2.918  -2.049  24.511  0.00  0.00    +0.018 A 
ATOM      4  C   UNL     1      -2.659  -1.266  24.530  0.00  0.00    +0.118 A 
ATOM      5  C   UNL     1      -3.177  -0.656  24.326  0.00  0.00    +0.164 A 
ATOM      6  O   UNL     1      -2.770   0.058  24.396  0.00  0.00    -0.438 OA
ATOM      7  C   UNL     1      -2.001  -0.110  24.642  0.00  0.00    +0.207 A 
ATOM      8  N   UNL     1      -1.933  -0.928  24.724  0.00  0.00    -0.212 NA
ATOM     25  C   UNL     1      -3.953  -0.830  24.104  0.00  0.00    +0.039 A 
ATOM     26  C   UNL     1      -4.210  -1.613  24.086  0.00  0.00    -0.001 A 
ENDBRANCH   9   7
BRANCH  12  13
ATOM     13  C   UNL     1      -0.478   2.081  25.788  0.00  0.00    +0.099 C 
BRANCH  13  14
ATOM     14  C   UNL     1      -0.724   2.848  25.605  0.00  0.00    -0.006 A 
ATOM     15  C   UNL     1      -1.396   3.163  25.967  0.00  0.00    -0.003 A 
ATOM     16  C   UNL     1      -1.641   3.929  25.784  0.00  0.00    +0.004 A 
ATOM     17  C   UNL     1      -1.215   4.380  25.240  0.00  0.00    +0.071 A 
ATOM     18  C   UNL     1      -0.543   4.065  24.879  0.00  0.00    +0.004 A 
ATOM     19  C   UNL     1      -0.297   3.298  25.061  0.00  0.00    -0.003 A 
BRANCH  17  20
ATOM     20  C   UNL     1      -1.461   5.146  25.058  0.00  0.00    +0.419 C 
ATOM     21  F   UNL     1      -1.706   5.913  24.875  0.00  0.00    -0.166 F 
ATOM     22  F   UNL     1      -0.676   5.400  25.070  0.00  0.00    -0.166 F 
ATOM     23  F   UNL     1      -2.245   4.891  25.045  0.00  0.00    -0.166 F 
ENDBRANCH  17  20
ENDBRANCH  13  14
ENDBRANCH  12  13
TORSDOF 4
ENDMDL
MODEL 5
REMARK VINA RESULT:     -11.8      2.089      2.652
REMARK  Name = 
REMARK  4 active torsions:
REMARK  status: ('A' for Active; 'I' for Inactive)
REMARK    1  A    between atoms: C_7  and  C_9
REMARK    2  A    between atoms: N_12  and  C_13
REMARK    3  A    between atoms: C_13  and  C_14
REMARK    4  A    between atoms: C_17  and  C_20
REMARK                            x       y       z     vdW  Elec       q    Type
REMARK                         _______ _______ _______ _____ _____    ______ ____
ROOT
ATOM      9  C   UNL     1      -1.873   0.835  24.949  0.00  0.00    +0.094 C 
ATOM     10  C   UNL     1      -1.244   1.160  25.373  0.00  0.00    +0.028 C 
ATOM     11  C   UNL     1      -1.298   1.982  25.322  0.00  0.00    +0.073 C 
ATOM     12  N   UNL     1      -1.960   2.165  24.866  0.00  0.00    -0.268 NA
ATOM     24  C   UNL     1      -2.315   1.456  24.635  0.00  0.00    +0.082 C 
ENDROOT
BRANCH   9   7
ATOM      1  C   UNL     1      -3.489  -3.149  24.569  0.00  0.00    +0.031 C 
ATOM      2  C   UNL     1      -2.950  -2.526  24.599  0.00  0.00    -0.020 A 
ATOM      3  C   UNL     1      -3.215  -1.757  24.732  0.00  0.00    +0.018 A 
ATOM      4  C   UNL     1      -2.676  -1.133  24.762  0.00  0.00    +0.118 A 
ATOM      5  C   UNL     1      -1.871  -1.279  24.659  0.00  0.00    +0.164 A 
ATOM      6  O   UNL     1      -1.472  -0.560  24.716  0.00  0.00    -0.438 OA
ATOM      7  C   UNL     1      -2.030   0.031  24.855  0.00  0.00    +0.207 A 
ATOM      8  N   UNL     1      -2.774  -0.324  24.883  0.00  0.00    -0.212 NA
ATOM     25  C   UNL     1      -1.605  -2.049  24.526  0.00  0.00    +0.039 A 
ATOM     26  C   UNL     1      -2.144  -2.672  24.496  0.00  0.00    -0.001 A 
ENDBRANCH   9   7
BRANCH  12  13
ATOM     13  C   UNL     1      -2.222   2.923  24.673  0.00  0.00    +0.099 C 
BRANCH  13  14
ATOM     14  C   UNL     1      -2.985   3.162  24.880  0.00  0.00    -0.006 A 
ATOM     15  C   UNL     1      -3.603   3.084  24.338  0.00  0.00    -0.003 A 
ATOM     16  C   UNL     1      -4.364   3.323  24.545  0.00  0.00    +0.004 A 
ATOM     17  C   UNL     1      -4.510   3.638  25.293  0.00  0.00    +0.071 A 
ATOM     18  C   UNL     1      -3.892   3.716  25.835  0.00  0.00    +0.004 A 
ATOM     19  C   UNL     1      -3.129   3.477  25.628  0.00  0.00    -0.003 A 
BRANCH  17  20
ATOM     20  C   UNL     1      -5.272   3.877  25.499  0.00  0.00    +0.419 C 
ATOM     21  F   UNL     1      -6.035   4.114  25.706  0.00  0.00    -0.166 F 
ATOM     22  F   UNL     1      -5.396   3.153  25.875  0.00  0.00    -0.166 F 
ATOM     23  F   UNL     1      -5.147   4.600  25.123  0.00  0.00    -0.166 F 
ENDBRANCH  17  20
ENDBRANCH  13  14
ENDBRANCH  12  13
TORSDOF 4
ENDMDL
