MODEL 1
REMARK VINA RESULT:     -10.6      0.000      0.000
REMARK  Name = 
REMARK  8 active torsions:
REMARK  status: ('A' for Active; 'I' for Inactive)
REMARK    1  A    between atoms: C_2  and  C_3
REMARK    2  A    between atoms: C_3  and  S_4
REMARK    3  A    between atoms: S_4  and  N_7
REMARK    4  A    between atoms: C_10  and  C_11
REMARK    5  A    between atoms: C_11  and  C_12
REMARK    6  A    between atoms: C_15  and  C_16
REMARK    7  A    between atoms: C_16  and  C_17
REMARK    8  A    between atoms: C_25  and  O_26
REMARK                            x       y       z     vdW  Elec       q    Type
REMARK                         _______ _______ _______ _____ _____    ______ ____
ROOT
ATOM      7  N   UNL     1      -1.563   0.022  25.087  0.00  0.00    -0.159 NA
ATOM      8  C   UNL     1      -1.435  -0.792  25.062  0.00  0.00    +0.095 C 
ATOM      9  C   UNL     1      -2.056  -1.301  24.871  0.00  0.00    +0.020 C 
ATOM     10  C   UNL     1      -2.803  -0.994  24.706  0.00  0.00    +0.014 C 
ATOM     15  C   UNL     1      -2.930  -0.180  24.731  0.00  0.00    +0.024 C 
ATOM     29  C   UNL     1      -2.310   0.329  24.921  0.00  0.00    +0.096 C 
ENDROOT
BRANCH   7   4
ATOM      4  S   UNL     1      -0.941   0.532  25.278  0.00  0.00    +0.044 S 
ATOM      5  O   UNL     1      -0.620   0.421  24.527  0.00  0.00    -0.157 OA
ATOM      6  O   UNL     1      -1.264   0.642  26.030  0.00  0.00    -0.157 OA
BRANCH   4   3
ATOM      3  C   UNL     1      -0.321   1.040  25.469  0.00  0.00    +0.169 C 
BRANCH   3   2
ATOM      1  C   UNL     1       0.143   2.349  25.809  0.00  0.00    +0.002 C 
ATOM      2  C   UNL     1      -0.479   1.821  25.684  0.00  0.00    +0.027 C 
ENDBRANCH   3   2
ENDBRANCH   4   3
ENDBRANCH   7   4
BRANCH  10  11
ATOM     11  C   UNL     1      -3.424  -1.504  24.515  0.00  0.00    +0.114 C 
BRANCH  11  12
ATOM     12  C   UNL     1      -3.351  -2.314  24.653  0.00  0.00    +0.365 C 
ATOM     13  O   UNL     1      -3.551  -2.625  25.390  0.00  0.00    -0.246 OA
ATOM     14  O   UNL     1      -3.078  -2.811  24.054  0.00  0.00    -0.246 OA
ENDBRANCH  11  12
ENDBRANCH  10  11
BRANCH  15  16
ATOM     16  C   UNL     1      -3.679   0.126  24.565  0.00  0.00    +0.047 C 
BRANCH  16  17
ATOM     17  C   UNL     1      -3.752   0.856  24.188  0.00  0.00    +0.053 C 
ATOM     18  N   UNL     1      -3.308   1.016  23.510  0.00  0.00    -0.274 NA
ATOM     19  C   UNL     1      -3.381   1.747  23.133  0.00  0.00    +0.130 C 
ATOM     20  C   UNL     1      -3.897   2.317  23.434  0.00  0.00    +0.053 C 
ATOM     21  C   UNL     1      -4.340   2.157  24.111  0.00  0.00    -0.016 A 
ATOM     22  C   UNL     1      -4.268   1.426  24.489  0.00  0.00    +0.009 A 
ATOM     23  C   UNL     1      -4.710   1.265  25.165  0.00  0.00    +0.004 A 
ATOM     24  C   UNL     1      -5.225   1.835  25.466  0.00  0.00    +0.037 A 
ATOM     25  C   UNL     1      -5.298   2.566  25.088  0.00  0.00    +0.138 A 
ATOM     28  C   UNL     1      -4.856   2.726  24.412  0.00  0.00    +0.033 A 
BRANCH  25  26
ATOM     26  O   UNL     1      -5.814   3.135  25.389  0.00  0.00    -0.471 OA
ATOM     27  C   UNL     1      -5.515   3.813  25.750  0.00  0.00    +0.252 C 
ENDBRANCH  25  26
ENDBRANCH  16  17
ENDBRANCH  15  16
TORSDOF 8
ENDMDL
MODEL 2
REMARK VINA RESULT:     -10.4      1.903      4.058
REMARK  Name = 
REMARK  8 active torsions:
REMARK  status: ('A' for Active; 'I' for Inactive)
REMARK    1  A    between atoms: C_2  and  C_3
REMARK    2  A    between atoms: C_3  and  S_4
REMARK    3  A    between atoms: S_4  and  N_7
REMARK    4  A    between atoms: C_10  and  C_11
REMARK    5  A    between atoms: C_11  and  C_12
REMARK    6  A    between atoms: C_15  and  C_16
REMARK    7  A    between atoms: C_16  and  C_17
REMARK    8  A    between atoms: C_25  and  O_26
REMARK                            x       y       z     vdW  Elec       q    Type
REMARK                         _______ _______ _______ _____ _____    ______ ____
ROOT
ATOM      7  N   UNL     1      -3.399   3.477  25.301  0.00  0.00    -0.159 NA
ATOM      8  C   UNL     1      -4.203   3.641  25.384  0.00  0.00    +0.095 C 
ATOM      9  C   UNL     1      -4.759   3.041  25.282  0.00  0.00    +0.020 C 
ATOM     10  C   UNL     1      -4.510   2.276  25.097  0.00  0.00    +0.014 C 
ATOM     15  C   UNL     1      -3.707   2.112  25.015  0.00  0.00    +0.024 C 
ATOM     29  C   UNL     1      -3.151   2.713  25.117  0.00  0.00    +0.096 C 
ENDROOT
BRANCH   7   4
ATOM      4  S   UNL     1      -2.843   4.078  25.404  0.00  0.00    +0.044 S 
ATOM      5  O   UNL     1      -3.028   4.376  24.657  0.00  0.00    -0.157 OA
ATOM      6  O   UNL     1      -2.658   3.779  26.150  0.00  0.00    -0.157 OA
BRANCH   4   3
ATOM      3  C   UNL     1      -2.287   4.679  25.505  0.00  0.00    +0.169 C 
BRANCH   3   2
ATOM      1  C   UNL     1      -1.080   5.310  25.072  0.00  0.00    +0.002 C 
ATOM      2  C   UNL     1      -1.564   4.643  25.107  0.00  0.00    +0.027 C 
ENDBRANCH   3   2
ENDBRANCH   4   3
ENDBRANCH   7   4
BRANCH  10  11
ATOM     11  C   UNL     1      -5.067   1.675  24.995  0.00  0.00    +0.114 C 
BRANCH  11  12
ATOM     12  C   UNL     1      -5.847   1.789  25.238  0.00  0.00    +0.365 C 
ATOM     13  O   UNL     1      -6.050   1.692  26.032  0.00  0.00    -0.246 OA
ATOM     14  O   UNL     1      -6.423   2.001  24.686  0.00  0.00    -0.246 OA
ENDBRANCH  11  12
ENDBRANCH  10  11
BRANCH  15  16
ATOM     16  C   UNL     1      -3.458   1.347  24.831  0.00  0.00    +0.047 C 
BRANCH  16  17
ATOM     17  C   UNL     1      -2.835   1.231  24.303  0.00  0.00    +0.053 C 
ATOM     18  N   UNL     1      -2.818   1.646  23.589  0.00  0.00    -0.274 NA
ATOM     19  C   UNL     1      -2.194   1.530  23.060  0.00  0.00    +0.130 C 
ATOM     20  C   UNL     1      -1.589   1.000  23.246  0.00  0.00    +0.053 C 
ATOM     21  C   UNL     1      -1.607   0.586  23.959  0.00  0.00    -0.016 A 
ATOM     22  C   UNL     1      -2.230   0.702  24.488  0.00  0.00    +0.009 A 
ATOM     23  C   UNL     1      -2.248   0.288  25.201  0.00  0.00    +0.004 A 
ATOM     24  C   UNL     1      -1.644  -0.241  25.386  0.00  0.00    +0.037 A 
ATOM     25  C   UNL     1      -1.020  -0.357  24.857  0.00  0.00    +0.138 A 
ATOM     28  C   UNL     1      -1.002   0.057  24.144  0.00  0.00    +0.033 A 
BRANCH  25  26
ATOM     26  O   UNL     1      -0.415  -0.886  25.043  0.00  0.00    -0.471 OA
ATOM     27  C   UNL     1      -0.597  -1.629  25.350  0.00  0.00    +0.252 C 
ENDBRANCH  25  26
ENDBRANCH  16  17
ENDBRANCH  15  16
TORSDOF 8
ENDMDL
MODEL 3
REMARK VINA RESULT:     -10.3      1.445      3.831
REMARK  Name = 
REMARK  8 active torsions:
REMARK  status: ('A' for Active; 'I' for Inactive)
REMARK    1  A    between atoms: C_2  and  C_3
REMARK    2  A    between atoms: C_3  and  S_4
REMARK    3  A    between atoms: S_4  and  N_7
REMARK    4  A    between atoms: C_10  and  C_11
REMARK    5  A    between atoms: C_11  and  C_12
REMARK    6  A    between atoms: C_15  and  C_16
REMARK    7  A    between atoms: C_16  and  C_17
REMARK    8  A    between atoms: C_25  and  O_26
REMARK                            x       y       z     vdW  Elec       q    Type
REMARK                         _______ _______ _______ _____ _____    ______ ____
ROOT
ATOM      7  N   UNL     1      -2.618   3.172  25.441  0.00  0.00    -0.159 NA
ATOM      8  C   UNL     1      -3.085   3.839  25.564  0.00  0.00    +0.095 C 
ATOM      9  C   UNL     1      -3.906   3.787  25.495  0.00  0.00    +0.020 C 
ATOM     10  C   UNL     1      -4.257   3.066  25.302  0.00  0.00    +0.014 C 
ATOM     15  C   UNL     1      -3.790   2.399  25.179  0.00  0.00    +0.024 C 
ATOM     29  C   UNL     1      -2.969   2.451  25.248  0.00  0.00    +0.096 C 
ENDROOT
BRANCH   7   4
ATOM      4  S   UNL     1      -1.797   3.225  25.510  0.00  0.00    +0.044 S 
ATOM      5  O   UNL     1      -1.829   2.797  26.214  0.00  0.00    -0.157 OA
ATOM      6  O   UNL     1      -1.766   3.653  24.805  0.00  0.00    -0.157 OA
BRANCH   4   3
ATOM      3  C   UNL     1      -0.976   3.277  25.579  0.00  0.00    +0.169 C 
BRANCH   3   2
ATOM      1  C   UNL     1       0.279   2.674  25.900  0.00  0.00    +0.002 C 
ATOM      2  C   UNL     1      -0.543   2.626  25.844  0.00  0.00    +0.027 C 
ENDBRANCH   3   2
ENDBRANCH   4   3
ENDBRANCH   7   4
BRANCH  10  11
ATOM     11  C   UNL     1      -5.078   3.014  25.233  0.00  0.00    +0.114 C 
BRANCH  11  12
ATOM     12  C   UNL     1      -5.564   3.432  25.752  0.00  0.00    +0.365 C 
ATOM     13  O   UNL     1      -5.808   3.085  26.460  0.00  0.00    -0.246 OA
ATOM     14  O   UNL     1      -5.805   4.199  25.563  0.00  0.00    -0.246 OA
ENDBRANCH  11  12
ENDBRANCH  10  11
BRANCH  15  16
ATOM     16  C   UNL     1      -4.142   1.678  24.987  0.00  0.00    +0.047 C 
BRANCH  16  17
ATOM     17  C   UNL     1      -3.833   1.217  24.376  0.00  0.00    +0.053 C 
ATOM     18  N   UNL     1      -3.536   1.580  23.696  0.00  0.00    -0.274 NA
ATOM     19  C   UNL     1      -3.226   1.119  23.085  0.00  0.00    +0.130 C 
ATOM     20  C   UNL     1      -3.214   0.297  23.154  0.00  0.00    +0.053 C 
ATOM     21  C   UNL     1      -3.511  -0.066  23.833  0.00  0.00    -0.016 A 
ATOM     22  C   UNL     1      -3.820   0.395  24.445  0.00  0.00    +0.009 A 
ATOM     23  C   UNL     1      -4.117   0.033  25.124  0.00  0.00    +0.004 A 
ATOM     24  C   UNL     1      -4.105  -0.788  25.192  0.00  0.00    +0.037 A 
ATOM     25  C   UNL     1      -3.795  -1.249  24.581  0.00  0.00    +0.138 A 
ATOM     28  C   UNL     1      -3.498  -0.887  23.902  0.00  0.00    +0.033 A 
BRANCH  25  26
ATOM     26  O   UNL     1      -3.783  -2.071  24.650  0.00  0.00    -0.471 OA
ATOM     27  C   UNL     1      -3.357  -2.428  25.259  0.00  0.00    +0.252 C 
ENDBRANCH  25  26
ENDBRANCH  16  17
ENDBRANCH  15  16
TORSDOF 8
ENDMDL
MODEL 4
REMARK VINA RESULT:     -10.2      1.265      3.024
REMARK  Name = 
REMARK  8 active torsions:
REMARK  status: ('A' for Active; 'I' for Inactive)
REMARK    1  A    between atoms: C_2  and  C_3
REMARK    2  A    between atoms: C_3  and  S_4
REMARK    3  A    between atoms: S_4  and  N_7
REMARK    4  A    between atoms: C_10  and  C_11
REMARK    5  A    between atoms: C_11  and  C_12
REMARK    6  A    between atoms: C_15  and  C_16
REMARK    7  A    between atoms: C_16  and  C_17
REMARK    8  A    between atoms: C_25  and  O_26
REMARK                            x       y       z     vdW  Elec       q    Type
REMARK                         _______ _______ _______ _____ _____    ______ ____
ROOT
ATOM      7  N   UNL     1      -1.658  -0.038  24.957  0.00  0.00    -0.159 NA
ATOM      8  C   UNL     1      -0.838  -0.052  24.882  0.00  0.00    +0.095 C 
ATOM      9  C   UNL     1      -0.416   0.655  24.826  0.00  0.00    +0.020 C 
ATOM     10  C   UNL     1      -0.817   1.375  24.845  0.00  0.00    +0.014 C 
ATOM     15  C   UNL     1      -1.638   1.389  24.921  0.00  0.00    +0.024 C 
ATOM     29  C   UNL     1      -2.059   0.683  24.977  0.00  0.00    +0.096 C 
ENDROOT
BRANCH   7   4
ATOM      4  S   UNL     1      -2.080  -0.746  25.013  0.00  0.00    +0.044 S 
ATOM      5  O   UNL     1      -2.296  -0.555  25.786  0.00  0.00    -0.157 OA
ATOM      6  O   UNL     1      -1.863  -0.935  24.240  0.00  0.00    -0.157 OA
BRANCH   4   3
ATOM      3  C   UNL     1      -2.501  -1.453  25.070  0.00  0.00    +0.169 C 
BRANCH   3   2
ATOM      1  C   UNL     1      -3.631  -2.251  24.709  0.00  0.00    +0.002 C 
ATOM      2  C   UNL     1      -3.227  -1.532  24.684  0.00  0.00    +0.027 C 
ENDBRANCH   3   2
ENDBRANCH   4   3
ENDBRANCH   7   4
BRANCH  10  11
ATOM     11  C   UNL     1      -0.396   2.083  24.789  0.00  0.00    +0.114 C 
BRANCH  11  12
ATOM     12  C   UNL     1       0.416   2.093  24.937  0.00  0.00    +0.365 C 
ATOM     13  O   UNL     1       0.694   2.252  25.697  0.00  0.00    -0.246 OA
ATOM     14  O   UNL     1       0.948   1.944  24.324  0.00  0.00    -0.246 OA
ENDBRANCH  11  12
ENDBRANCH  10  11
BRANCH  15  16
ATOM     16  C   UNL     1      -2.038   2.111  24.940  0.00  0.00    +0.047 C 
BRANCH  16  17
ATOM     17  C   UNL     1      -2.642   2.263  24.398  0.00  0.00    +0.053 C 
ATOM     18  N   UNL     1      -2.560   2.023  23.613  0.00  0.00    -0.274 NA
ATOM     19  C   UNL     1      -3.163   2.175  23.070  0.00  0.00    +0.130 C 
ATOM     20  C   UNL     1      -3.848   2.567  23.314  0.00  0.00    +0.053 C 
ATOM     21  C   UNL     1      -3.930   2.806  24.099  0.00  0.00    -0.016 A 
ATOM     22  C   UNL     1      -3.326   2.654  24.642  0.00  0.00    +0.009 A 
ATOM     23  C   UNL     1      -3.407   2.893  25.427  0.00  0.00    +0.004 A 
ATOM     24  C   UNL     1      -4.091   3.284  25.670  0.00  0.00    +0.037 A 
ATOM     25  C   UNL     1      -4.695   3.436  25.127  0.00  0.00    +0.138 A 
ATOM     28  C   UNL     1      -4.613   3.197  24.342  0.00  0.00    +0.033 A 
BRANCH  25  26
ATOM     26  O   UNL     1      -5.379   3.828  25.371  0.00  0.00    -0.471 OA
ATOM     27  C   UNL     1      -5.973   3.414  25.767  0.00  0.00    +0.252 C 
ENDBRANCH  25  26
ENDBRANCH  16  17
ENDBRANCH  15  16
TORSDOF 8
ENDMDL
MODEL 5
REMARK VINA RESULT:     -10.1      1.446      3.555
REMARK  Name = 
REMARK  8 active torsions:
REMARK  status: ('A' for Active; 'I' for Inactive)
REMARK    1  A    between atoms: C_2  and  C_3
REMARK    2  A    between atoms: C_3  and  S_4
REMARK    3  A    between atoms: S_4  and  N_7
REMARK    4  A    between atoms: C_10  and  C_11
REMARK    5  A    between atoms: C_11  and  C_12
REMARK    6  A    between atoms: C_15  and  C_16
REMARK    7  A    between atoms: C_16  and  C_17
REMARK    8  A    between atoms: C_25  and  O_26
REMARK                            x       y       z     vdW  Elec       q    Type
REMARK                         _______ _______ _______ _____ _____    ______ ____
ROOT
ATOM      7  N   UNL     1      -4.661   1.028  24.868  0.00  0.00    -0.159 NA
ATOM      8  C   UNL     1      -5.079   0.342  24.684  0.00  0.00    +0.095 C 
ATOM      9  C   UNL     1      -4.673  -0.345  24.477  0.00  0.00    +0.020 C 
ATOM     10  C   UNL     1      -3.848  -0.345  24.454  0.00  0.00    +0.014 C 
ATOM     15  C   UNL     1      -3.431   0.342  24.638  0.00  0.00    +0.024 C 
ATOM     29  C   UNL     1      -3.837   1.029  24.846  0.00  0.00    +0.096 C 
ENDROOT
BRANCH   7   4
ATOM      4  S   UNL     1      -5.069   1.716  25.076  0.00  0.00    +0.044 S 
ATOM      5  O   UNL     1      -5.235   1.857  24.281  0.00  0.00    -0.157 OA
ATOM      6  O   UNL     1      -4.901   1.574  25.872  0.00  0.00    -0.157 OA
BRANCH   4   3
ATOM      3  C   UNL     1      -5.475   2.403  25.283  0.00  0.00    +0.169 C 
BRANCH   3   2
ATOM      1  C   UNL     1      -5.473   3.804  25.564  0.00  0.00    +0.002 C 
ATOM      2  C   UNL     1      -5.063   3.112  25.381  0.00  0.00    +0.027 C 
ENDBRANCH   3   2
ENDBRANCH   4   3
ENDBRANCH   7   4
BRANCH  10  11
ATOM     11  C   UNL     1      -3.441  -1.032  24.247  0.00  0.00    +0.114 C 
BRANCH  11  12
ATOM     12  C   UNL     1      -3.815  -1.766  24.302  0.00  0.00    +0.365 C 
ATOM     13  O   UNL     1      -3.750  -2.210  24.995  0.00  0.00    -0.246 OA
ATOM     14  O   UNL     1      -4.253  -2.054  23.665  0.00  0.00    -0.246 OA
ENDBRANCH  11  12
ENDBRANCH  10  11
BRANCH  15  16
ATOM     16  C   UNL     1      -2.605   0.342  24.615  0.00  0.00    +0.047 C 
BRANCH  16  17
ATOM     17  C   UNL     1      -2.203   0.964  24.253  0.00  0.00    +0.053 C 
ATOM     18  N   UNL     1      -2.452   1.242  23.517  0.00  0.00    -0.274 NA
ATOM     19  C   UNL     1      -2.048   1.865  23.154  0.00  0.00    +0.130 C 
ATOM     20  C   UNL     1      -1.397   2.208  23.527  0.00  0.00    +0.053 C 
ATOM     21  C   UNL     1      -1.149   1.930  24.263  0.00  0.00    -0.016 A 
ATOM     22  C   UNL     1      -1.552   1.307  24.626  0.00  0.00    +0.009 A 
ATOM     23  C   UNL     1      -1.304   1.028  25.362  0.00  0.00    +0.004 A 
ATOM     24  C   UNL     1      -0.653   1.371  25.734  0.00  0.00    +0.037 A 
ATOM     25  C   UNL     1      -0.250   1.994  25.371  0.00  0.00    +0.138 A 
ATOM     28  C   UNL     1      -0.498   2.272  24.636  0.00  0.00    +0.033 A 
BRANCH  25  26
ATOM     26  O   UNL     1       0.401   2.337  25.745  0.00  0.00    -0.471 OA
ATOM     27  C   UNL     1       0.335   2.611  26.519  0.00  0.00    +0.252 C 
ENDBRANCH  25  26
ENDBRANCH  16  17
ENDBRANCH  15  16
TORSDOF 8
ENDMDL
MODEL 6
REMARK VINA RESULT:     -10.1      1.532      4.110
REMARK  Name = 
REMARK  8 active torsions:
REMARK  status: ('A' for Active; 'I' for Inactive)
REMARK    1  A    between atoms: C_2  and  C_3
REMARK    2  A    between atoms: C_3  and  S_4
REMARK    3  A    between atoms: S_4  and  N_7
REMARK    4  A    between atoms: C_10  and  C_11
REMARK    5  A    between atoms: C_11  and  C_12
REMARK    6  A    between atoms: C_15  and  C_16
REMARK    7  A    between atoms: C_16  and  C_17
REMARK    8  A    between atoms: C_25  and  O_26
REMARK                            x       y       z     vdW  Elec       q    Type
REMARK                         _______ _______ _______ _____ _____    ______ ____
ROOT
ATOM      7  N   UNL     1      -4.179   0.098  24.935  0.00  0.00    -0.159 NA
ATOM      8  C   UNL     1      -4.975   0.309  24.960  0.00  0.00    +0.095 C 
ATOM      9  C   UNL     1      -5.191   1.104  24.990  0.00  0.00    +0.020 C 
ATOM     10  C   UNL     1      -4.608   1.689  24.995  0.00  0.00    +0.014 C 
ATOM     15  C   UNL     1      -3.812   1.478  24.970  0.00  0.00    +0.024 C 
ATOM     29  C   UNL     1      -3.596   0.682  24.940  0.00  0.00    +0.096 C 
ENDROOT
BRANCH   7   4
ATOM      4  S   UNL     1      -3.963  -0.699  24.905  0.00  0.00    +0.044 S 
ATOM      5  O   UNL     1      -3.695  -0.655  25.684  0.00  0.00    -0.157 OA
ATOM      6  O   UNL     1      -4.232  -0.741  24.126  0.00  0.00    -0.157 OA
BRANCH   4   3
ATOM      3  C   UNL     1      -3.748  -1.494  24.876  0.00  0.00    +0.169 C 
BRANCH   3   2
ATOM      1  C   UNL     1      -3.614  -2.713  24.142  0.00  0.00    +0.002 C 
ATOM      2  C   UNL     1      -3.807  -1.911  24.166  0.00  0.00    +0.027 C 
ENDBRANCH   3   2
ENDBRANCH   4   3
ENDBRANCH   7   4
BRANCH  10  11
ATOM     11  C   UNL     1      -4.824   2.485  25.025  0.00  0.00    +0.114 C 
BRANCH  11  12
ATOM     12  C   UNL     1      -5.532   2.708  25.385  0.00  0.00    +0.365 C 
ATOM     13  O   UNL     1      -5.533   2.959  26.171  0.00  0.00    -0.246 OA
ATOM     14  O   UNL     1      -6.238   2.679  24.958  0.00  0.00    -0.246 OA
ENDBRANCH  11  12
ENDBRANCH  10  11
BRANCH  15  16
ATOM     16  C   UNL     1      -3.229   2.063  24.976  0.00  0.00    +0.047 C 
BRANCH  16  17
ATOM     17  C   UNL     1      -2.573   1.996  24.480  0.00  0.00    +0.053 C 
ATOM     18  N   UNL     1      -2.676   1.806  23.684  0.00  0.00    -0.274 NA
ATOM     19  C   UNL     1      -2.018   1.739  23.188  0.00  0.00    +0.130 C 
ATOM     20  C   UNL     1      -1.260   1.862  23.490  0.00  0.00    +0.053 C 
ATOM     21  C   UNL     1      -1.158   2.052  24.286  0.00  0.00    -0.016 A 
ATOM     22  C   UNL     1      -1.815   2.119  24.782  0.00  0.00    +0.009 A 
ATOM     23  C   UNL     1      -1.713   2.309  25.578  0.00  0.00    +0.004 A 
ATOM     24  C   UNL     1      -0.955   2.432  25.879  0.00  0.00    +0.037 A 
ATOM     25  C   UNL     1      -0.298   2.365  25.383  0.00  0.00    +0.138 A 
ATOM     28  C   UNL     1      -0.400   2.175  24.587  0.00  0.00    +0.033 A 
BRANCH  25  26
ATOM     26  O   UNL     1       0.460   2.488  25.684  0.00  0.00    -0.471 OA
ATOM     27  C   UNL     1       0.568   2.613  26.492  0.00  0.00    +0.252 C 
ENDBRANCH  25  26
ENDBRANCH  16  17
ENDBRANCH  15  16
TORSDOF 8
ENDMDL
MODEL 7
REMARK VINA RESULT:     -10.0      1.594      4.169
REMARK  Name = 
REMARK  8 active torsions:
REMARK  status: ('A' for Active; 'I' for Inactive)
REMARK    1  A    between atoms: C_2  and  C_3
REMARK    2  A    between atoms: C_3  and  S_4
REMARK    3  A    between atoms: S_4  and  N_7
REMARK    4  A    between atoms: C_10  and  C_11
REMARK    5  A    between atoms: C_11  and  C_12
REMARK    6  A    between atoms: C_15  and  C_16
REMARK    7  A    between atoms: C_16  and  C_17
REMARK    8  A    between atoms: C_25  and  O_26
REMARK                            x       y       z     vdW  Elec       q    Type
REMARK                         _______ _______ _______ _____ _____    ______ ____
ROOT
ATOM      7  N   UNL     1      -2.698   3.087  25.332  0.00  0.00    -0.159 NA
ATOM      8  C   UNL     1      -1.986   3.502  25.358  0.00  0.00    +0.095 C 
ATOM      9  C   UNL     1      -1.270   3.099  25.278  0.00  0.00    +0.020 C 
ATOM     10  C   UNL     1      -1.268   2.281  25.173  0.00  0.00    +0.014 C 
ATOM     15  C   UNL     1      -1.980   1.867  25.147  0.00  0.00    +0.024 C 
ATOM     29  C   UNL     1      -2.696   2.269  25.227  0.00  0.00    +0.096 C 
ENDROOT
BRANCH   7   4
ATOM      4  S   UNL     1      -3.413   3.491  25.412  0.00  0.00    +0.044 S 
ATOM      5  O   UNL     1      -3.505   3.177  26.169  0.00  0.00    -0.157 OA
ATOM      6  O   UNL     1      -3.320   3.804  24.654  0.00  0.00    -0.157 OA
BRANCH   4   3
ATOM      3  C   UNL     1      -4.129   3.894  25.492  0.00  0.00    +0.169 C 
BRANCH   3   2
ATOM      1  C   UNL     1      -5.557   3.883  25.525  0.00  0.00    +0.002 C 
ATOM      2  C   UNL     1      -4.841   3.476  25.480  0.00  0.00    +0.027 C 
ENDBRANCH   3   2
ENDBRANCH   4   3
ENDBRANCH   7   4
BRANCH  10  11
ATOM     11  C   UNL     1      -0.553   1.877  25.093  0.00  0.00    +0.114 C 
BRANCH  11  12
ATOM     12  C   UNL     1       0.161   2.289  25.137  0.00  0.00    +0.365 C 
ATOM     13  O   UNL     1       0.514   2.424  25.871  0.00  0.00    -0.246 OA
ATOM     14  O   UNL     1       0.520   2.567  24.448  0.00  0.00    -0.246 OA
ENDBRANCH  11  12
ENDBRANCH  10  11
BRANCH  15  16
ATOM     16  C   UNL     1      -1.978   1.048  25.042  0.00  0.00    +0.047 C 
BRANCH  16  17
ATOM     17  C   UNL     1      -2.517   0.696  24.526  0.00  0.00    +0.053 C 
ATOM     18  N   UNL     1      -2.728   1.081  23.826  0.00  0.00    -0.274 NA
ATOM     19  C   UNL     1      -3.268   0.729  23.309  0.00  0.00    +0.130 C 
ATOM     20  C   UNL     1      -3.595  -0.006  23.492  0.00  0.00    +0.053 C 
ATOM     21  C   UNL     1      -3.384  -0.390  24.192  0.00  0.00    -0.016 A 
ATOM     22  C   UNL     1      -2.844  -0.039  24.709  0.00  0.00    +0.009 A 
ATOM     23  C   UNL     1      -2.633  -0.422  25.407  0.00  0.00    +0.004 A 
ATOM     24  C   UNL     1      -2.960  -1.156  25.590  0.00  0.00    +0.037 A 
ATOM     25  C   UNL     1      -3.500  -1.508  25.073  0.00  0.00    +0.138 A 
ATOM     28  C   UNL     1      -3.711  -1.124  24.374  0.00  0.00    +0.033 A 
BRANCH  25  26
ATOM     26  O   UNL     1      -3.827  -2.243  25.256  0.00  0.00    -0.471 OA
ATOM     27  C   UNL     1      -3.443  -2.935  25.027  0.00  0.00    +0.252 C 
ENDBRANCH  25  26
ENDBRANCH  16  17
ENDBRANCH  15  16
TORSDOF 8
ENDMDL
MODEL 8
REMARK VINA RESULT:      -9.9      1.623      2.159
REMARK  Name = 
REMARK  8 active torsions:
REMARK  status: ('A' for Active; 'I' for Inactive)
REMARK    1  A    between atoms: C_2  and  C_3
REMARK    2  A    between atoms: C_3  and  S_4
REMARK    3  A    between atoms: S_4  and  N_7
REMARK    4  A    between atoms: C_10  and  C_11
REMARK    5  A    between atoms: C_11  and  C_12
REMARK    6  A    between atoms: C_15  and  C_16
REMARK    7  A    between atoms: C_16  and  C_17
REMARK    8  A    between atoms: C_25  and  O_26
REMARK                            x       y       z     vdW  Elec       q    Type
REMARK                         _______ _______ _______ _____ _____    ______ ____
ROOT
ATOM      7  N   UNL     1      -0.794   2.250  24.950  0.00  0.00    -0.159 NA
ATOM      8  C   UNL     1      -0.172   1.710  24.943  0.00  0.00    +0.095 C 
ATOM      9  C   UNL     1      -0.319   0.911  24.797  0.00  0.00    +0.020 C 
ATOM     10  C   UNL     1      -1.091   0.654  24.659  0.00  0.00    +0.014 C 
ATOM     15  C   UNL     1      -1.713   1.194  24.667  0.00  0.00    +0.024 C 
ATOM     29  C   UNL     1      -1.566   1.993  24.812  0.00  0.00    +0.096 C 
ENDROOT
BRANCH   7   4
ATOM      4  S   UNL     1      -0.646   3.049  25.096  0.00  0.00    +0.044 S 
ATOM      5  O   UNL     1      -0.968   2.971  25.851  0.00  0.00    -0.157 OA
ATOM      6  O   UNL     1      -0.323   3.126  24.340  0.00  0.00    -0.157 OA
BRANCH   4   3
ATOM      3  C   UNL     1      -0.497   3.847  25.242  0.00  0.00    +0.169 C 
BRANCH   3   2
ATOM      1  C   UNL     1      -0.889   5.205  25.033  0.00  0.00    +0.002 C 
ATOM      2  C   UNL     1      -1.087   4.408  25.102  0.00  0.00    +0.027 C 
ENDBRANCH   3   2
ENDBRANCH   4   3
ENDBRANCH   7   4
BRANCH  10  11
ATOM     11  C   UNL     1      -1.239  -0.145  24.514  0.00  0.00    +0.114 C 
BRANCH  11  12
ATOM     12  C   UNL     1      -0.636  -0.700  24.605  0.00  0.00    +0.365 C 
ATOM     13  O   UNL     1      -0.542  -1.092  25.325  0.00  0.00    -0.246 OA
ATOM     14  O   UNL     1      -0.127  -0.862  23.976  0.00  0.00    -0.246 OA
ENDBRANCH  11  12
ENDBRANCH  10  11
BRANCH  15  16
ATOM     16  C   UNL     1      -2.486   0.937  24.529  0.00  0.00    +0.047 C 
BRANCH  16  17
ATOM     17  C   UNL     1      -3.012   1.416  24.112  0.00  0.00    +0.053 C 
ATOM     18  N   UNL     1      -2.776   1.770  23.405  0.00  0.00    -0.274 NA
ATOM     19  C   UNL     1      -3.303   2.250  22.988  0.00  0.00    +0.130 C 
ATOM     20  C   UNL     1      -4.065   2.374  23.278  0.00  0.00    +0.053 C 
ATOM     21  C   UNL     1      -4.301   2.020  23.986  0.00  0.00    -0.016 A 
ATOM     22  C   UNL     1      -3.774   1.541  24.403  0.00  0.00    +0.009 A 
ATOM     23  C   UNL     1      -4.010   1.187  25.109  0.00  0.00    +0.004 A 
ATOM     24  C   UNL     1      -4.771   1.312  25.399  0.00  0.00    +0.037 A 
ATOM     25  C   UNL     1      -5.298   1.792  24.982  0.00  0.00    +0.138 A 
ATOM     28  C   UNL     1      -5.063   2.145  24.276  0.00  0.00    +0.033 A 
BRANCH  25  26
ATOM     26  O   UNL     1      -6.060   1.916  25.273  0.00  0.00    -0.471 OA
ATOM     27  C   UNL     1      -6.168   2.218  26.032  0.00  0.00    +0.252 C 
ENDBRANCH  25  26
ENDBRANCH  16  17
ENDBRANCH  15  16
TORSDOF 8
ENDMDL
MODEL 9
REMARK VINA RESULT:      -9.8      1.739      4.514
REMARK  Name = 
REMARK  8 active torsions:
REMARK  status: ('A' for Active; 'I' for Inactive)
REMARK    1  A    between atoms: C_2  and  C_3
REMARK    2  A    between atoms: C_3  and  S_4
REMARK    3  A    between atoms: S_4  and  N_7
REMARK    4  A    between atoms: C_10  and  C_11
REMARK    5  A    between atoms: C_11  and  C_12
REMARK    6  A    between atoms: C_15  and  C_16
REMARK    7  A    between atoms: C_16  and  C_17
REMARK    8  A    between atoms: C_25  and  O_26
REMARK                            x       y       z     vdW  Elec       q    Type
REMARK                         _______ _______ _______ _____ _____    ______ ____
ROOT
ATOM      7  N   UNL     1      -4.417   2.202  24.542  0.00  0.00    -0.159 NA
ATOM      8  C   UNL     1      -4.061   2.798  24.097  0.00  0.00    +0.095 C 
ATOM      9  C   UNL     1      -3.475   2.609  23.548  0.00  0.00    +0.020 C 
ATOM     10  C   UNL     1      -3.245   1.824  23.446  0.00  0.00    +0.014 C 
ATOM     15  C   UNL     1      -3.600   1.228  23.891  0.00  0.00    +0.024 C 
ATOM     29  C   UNL     1      -4.186   1.417  24.439  0.00  0.00    +0.096 C 
ENDROOT
BRANCH   7   4
ATOM      4  S   UNL     1      -5.003   2.391  25.091  0.00  0.00    +0.044 S 
ATOM      5  O   UNL     1      -4.446   2.794  25.547  0.00  0.00    -0.157 OA
ATOM      6  O   UNL     1      -5.560   1.989  24.634  0.00  0.00    -0.157 OA
BRANCH   4   3
ATOM      3  C   UNL     1      -5.589   2.581  25.640  0.00  0.00    +0.169 C 
BRANCH   3   2
ATOM      1  C   UNL     1      -6.477   2.115  26.659  0.00  0.00    +0.002 C 
ATOM      2  C   UNL     1      -6.067   1.985  25.955  0.00  0.00    +0.027 C 
ENDBRANCH   3   2
ENDBRANCH   4   3
ENDBRANCH   7   4
BRANCH  10  11
ATOM     11  C   UNL     1      -2.658   1.635  22.896  0.00  0.00    +0.114 C 
BRANCH  11  12
ATOM     12  C   UNL     1      -2.345   2.221  22.408  0.00  0.00    +0.365 C 
ATOM     13  O   UNL     1      -1.717   2.687  22.673  0.00  0.00    -0.246 OA
ATOM     14  O   UNL     1      -2.661   2.342  21.655  0.00  0.00    -0.246 OA
ENDBRANCH  11  12
ENDBRANCH  10  11
BRANCH  15  16
ATOM     16  C   UNL     1      -3.369   0.442  23.788  0.00  0.00    +0.047 C 
BRANCH  16  17
ATOM     17  C   UNL     1      -3.091   0.006  24.431  0.00  0.00    +0.053 C 
ATOM     18  N   UNL     1      -2.624   0.371  25.005  0.00  0.00    -0.274 NA
ATOM     19  C   UNL     1      -2.346  -0.066  25.648  0.00  0.00    +0.130 C 
ATOM     20  C   UNL     1      -2.535  -0.866  25.716  0.00  0.00    +0.053 C 
ATOM     21  C   UNL     1      -3.003  -1.231  25.142  0.00  0.00    -0.016 A 
ATOM     22  C   UNL     1      -3.281  -0.794  24.499  0.00  0.00    +0.009 A 
ATOM     23  C   UNL     1      -3.748  -1.158  23.925  0.00  0.00    +0.004 A 
ATOM     24  C   UNL     1      -3.937  -1.957  23.993  0.00  0.00    +0.037 A 
ATOM     25  C   UNL     1      -3.659  -2.394  24.637  0.00  0.00    +0.138 A 
ATOM     28  C   UNL     1      -3.192  -2.030  25.211  0.00  0.00    +0.033 A 
BRANCH  25  26
ATOM     26  O   UNL     1      -3.848  -3.194  24.705  0.00  0.00    -0.471 OA
ATOM     27  C   UNL     1      -3.869  -3.672  24.033  0.00  0.00    +0.252 C 
ENDBRANCH  25  26
ENDBRANCH  16  17
ENDBRANCH  15  16
TORSDOF 8
ENDMDL
