MODEL 1
REMARK VINA RESULT:      -8.4      0.000      0.000
REMARK  Name = 
REMARK  5 active torsions:
REMARK  status: ('A' for Active; 'I' for Inactive)
REMARK    1  A    between atoms: N_2  and  C_4
REMARK    2  A    between atoms: C_7  and  C_10
REMARK    3  A    between atoms: N_15  and  C_16
REMARK    4  A    between atoms: C_20  and  N_24
REMARK    5  A    between atoms: C_25  and  C_27
REMARK                            x       y       z     vdW  Elec       q    Type
REMARK                         _______ _______ _______ _____ _____    ______ ____
ROOT
ATOM     10  C   UNL     1      -2.974   2.455  24.825  0.00  0.00    +0.086 A 
ATOM     11  C   UNL     1      -2.678   3.218  24.721  0.00  0.00    +0.040 A 
ATOM     12  C   UNL     1      -1.872   3.332  24.583  0.00  0.00    +0.103 A 
ATOM     13  N   UNL     1      -1.363   2.684  24.549  0.00  0.00    -0.211 NA
ATOM     14  C   UNL     1      -1.660   1.921  24.652  0.00  0.00    +0.237 A 
ATOM     15  N   UNL     1      -1.151   1.273  24.617  0.00  0.00    -0.200 NA
ATOM     32  N   UNL     1      -2.465   1.807  24.790  0.00  0.00    -0.212 NA
ENDROOT
BRANCH  15  16
ATOM     16  C   UNL     1      -0.345   1.387  24.479  0.00  0.00    +0.154 C 
ATOM     17  C   UNL     1       0.128   1.967  24.825  0.00  0.00    +0.166 C 
ATOM     18  O   UNL     1       0.894   1.880  24.531  0.00  0.00    -0.350 OA
ATOM     19  C   UNL     1       0.894   1.247  24.003  0.00  0.00    +0.166 C 
ATOM     20  C   UNL     1       1.366   0.800  23.495  0.00  0.00    +0.155 C 
ATOM     21  C   UNL     1       0.893   0.220  23.149  0.00  0.00    +0.166 C 
ATOM     22  O   UNL     1       0.128   0.308  23.444  0.00  0.00    -0.350 OA
ATOM     23  C   UNL     1       0.128   0.942  23.972  0.00  0.00    +0.166 C 
BRANCH  20  24
ATOM     24  N   UNL     1       2.172   0.915  23.357  0.00  0.00    -0.198 NA
ATOM     25  C   UNL     1       2.615   0.325  22.988  0.00  0.00    +0.271 C 
ATOM     26  O   UNL     1       2.254  -0.380  22.758  0.00  0.00    -0.268 OA
BRANCH  25  27
ATOM     27  C   UNL     1       3.421   0.440  22.850  0.00  0.00    +0.084 A 
ATOM     28  C   UNL     1       3.749   0.897  22.247  0.00  0.00    +0.012 A 
ATOM     29  C   UNL     1       4.571   0.857  22.316  0.00  0.00    +0.008 A 
ATOM     30  C   UNL     1       4.749   0.375  22.960  0.00  0.00    +0.036 A 
ATOM     31  S   UNL     1       4.039   0.117  23.291  0.00  0.00    -0.082 S 
ENDBRANCH  25  27
ENDBRANCH  20  24
ENDBRANCH  15  16
BRANCH  10   7
ATOM      4  C   UNL     1      -5.390   2.112  25.238  0.00  0.00    +0.048 A 
ATOM      5  C   UNL     1      -5.027   2.816  25.469  0.00  0.00    +0.015 A 
ATOM      6  C   UNL     1      -4.222   2.931  25.331  0.00  0.00    +0.003 A 
ATOM      7  C   UNL     1      -3.779   2.341  24.963  0.00  0.00    +0.018 A 
ATOM      8  C   UNL     1      -4.141   1.637  24.731  0.00  0.00    +0.003 A 
ATOM      9  C   UNL     1      -4.946   1.522  24.869  0.00  0.00    +0.015 A 
BRANCH   4   2
ATOM      1  C   UNL     1      -6.481   1.974  26.149  0.00  0.00    +0.112 C 
ATOM      2  N   UNL     1      -6.195   1.998  25.376  0.00  0.00    -0.304 N 
ATOM      3  C   UNL     1      -6.714   1.907  24.741  0.00  0.00    +0.112 C 
ENDBRANCH   4   2
ENDBRANCH  10   7
TORSDOF 5
ENDMDL
MODEL 2
REMARK VINA RESULT:      -7.3      2.158      7.320
REMARK  Name = 
REMARK  5 active torsions:
REMARK  status: ('A' for Active; 'I' for Inactive)
REMARK    1  A    between atoms: N_2  and  C_4
REMARK    2  A    between atoms: C_7  and  C_10
REMARK    3  A    between atoms: N_15  and  C_16
REMARK    4  A    between atoms: C_20  and  N_24
REMARK    5  A    between atoms: C_25  and  C_27
REMARK                            x       y       z     vdW  Elec       q    Type
REMARK                         _______ _______ _______ _____ _____    ______ ____
ROOT
ATOM     10  C   UNL     1       1.981   0.231  23.077  0.00  0.00    +0.086 A 
ATOM     11  C   UNL     1       1.573  -0.166  22.480  0.00  0.00    +0.040 A 
ATOM     12  C   UNL     1       0.748  -0.161  22.469  0.00  0.00    +0.103 A 
ATOM     13  N   UNL     1       0.331   0.242  23.057  0.00  0.00    -0.211 NA
ATOM     14  C   UNL     1       0.739   0.639  23.654  0.00  0.00    +0.237 A 
ATOM     15  N   UNL     1       0.322   1.041  24.241  0.00  0.00    -0.200 NA
ATOM     32  N   UNL     1       1.564   0.633  23.664  0.00  0.00    -0.212 NA
ENDROOT
BRANCH  15  16
ATOM     16  C   UNL     1      -0.504   1.046  24.231  0.00  0.00    +0.154 C 
ATOM     17  C   UNL     1      -0.990   0.403  24.060  0.00  0.00    +0.166 C 
ATOM     18  O   UNL     1      -1.774   0.655  24.113  0.00  0.00    -0.350 OA
ATOM     19  C   UNL     1      -1.771   1.454  24.317  0.00  0.00    +0.166 C 
ATOM     20  C   UNL     1      -2.253   2.105  24.476  0.00  0.00    +0.155 C 
ATOM     21  C   UNL     1      -1.767   2.748  24.647  0.00  0.00    +0.166 C 
ATOM     22  O   UNL     1      -0.983   2.496  24.594  0.00  0.00    -0.350 OA
ATOM     23  C   UNL     1      -0.986   1.696  24.390  0.00  0.00    +0.166 C 
BRANCH  20  24
ATOM     24  N   UNL     1      -3.079   2.110  24.466  0.00  0.00    -0.198 NA
ATOM     25  C   UNL     1      -3.495   2.553  25.024  0.00  0.00    +0.271 C 
ATOM     26  O   UNL     1      -3.087   2.990  25.592  0.00  0.00    -0.268 OA
BRANCH  25  27
ATOM     27  C   UNL     1      -4.320   2.558  25.013  0.00  0.00    +0.084 A 
ATOM     28  C   UNL     1      -4.804   2.013  24.627  0.00  0.00    +0.012 A 
ATOM     29  C   UNL     1      -5.589   2.228  24.763  0.00  0.00    +0.008 A 
ATOM     30  C   UNL     1      -5.590   2.905  25.232  0.00  0.00    +0.036 A 
ATOM     31  S   UNL     1      -4.806   3.109  25.387  0.00  0.00    -0.082 S 
ENDBRANCH  25  27
ENDBRANCH  20  24
ENDBRANCH  15  16
BRANCH  10   7
ATOM      4  C   UNL     1       4.456   0.214  23.107  0.00  0.00    +0.048 A 
ATOM      5  C   UNL     1       4.035  -0.442  23.379  0.00  0.00    +0.015 A 
ATOM      6  C   UNL     1       3.211  -0.436  23.369  0.00  0.00    +0.003 A 
ATOM      7  C   UNL     1       2.806   0.225  23.087  0.00  0.00    +0.018 A 
ATOM      8  C   UNL     1       3.226   0.881  22.815  0.00  0.00    +0.003 A 
ATOM      9  C   UNL     1       4.051   0.876  22.825  0.00  0.00    +0.015 A 
BRANCH   4   2
ATOM      1  C   UNL     1       5.687   0.529  23.759  0.00  0.00    +0.112 C 
ATOM      2  N   UNL     1       5.280   0.209  23.117  0.00  0.00    -0.304 N 
ATOM      3  C   UNL     1       5.699  -0.117  22.484  0.00  0.00    +0.112 C 
ENDBRANCH   4   2
ENDBRANCH  10   7
TORSDOF 5
ENDMDL
MODEL 3
REMARK VINA RESULT:      -7.1     15.437     16.238
REMARK  Name = 
REMARK  5 active torsions:
REMARK  status: ('A' for Active; 'I' for Inactive)
REMARK    1  A    between atoms: N_2  and  C_4
REMARK    2  A    between atoms: C_7  and  C_10
REMARK    3  A    between atoms: N_15  and  C_16
REMARK    4  A    between atoms: C_20  and  N_24
REMARK    5  A    between atoms: C_25  and  C_27
REMARK                            x       y       z     vdW  Elec       q    Type
REMARK                         _______ _______ _______ _____ _____    ______ ____
ROOT
ATOM     10  C   UNL     1      -7.465  -9.921  16.658  0.00  0.00    +0.086 A 
ATOM     11  C   UNL     1      -6.720  -9.680  16.917  0.00  0.00    +0.040 A 
ATOM     12  C   UNL     1      -6.087  -9.655  16.387  0.00  0.00    +0.103 A 
ATOM     13  N   UNL     1      -6.200  -9.871  15.599  0.00  0.00    -0.211 NA
ATOM     14  C   UNL     1      -6.946 -10.113  15.341  0.00  0.00    +0.237 A 
ATOM     15  N   UNL     1      -7.058 -10.329  14.552  0.00  0.00    -0.200 NA
ATOM     32  N   UNL     1      -7.578 -10.138  15.870  0.00  0.00    -0.212 NA
ENDROOT
BRANCH  15  16
ATOM     16  C   UNL     1      -6.426 -10.304  14.023  0.00  0.00    +0.154 C 
ATOM     17  C   UNL     1      -5.690 -10.663  14.129  0.00  0.00    +0.166 C 
ATOM     18  O   UNL     1      -5.228 -10.496  13.466  0.00  0.00    -0.350 OA
ATOM     19  C   UNL     1      -5.677 -10.035  12.951  0.00  0.00    +0.166 C 
ATOM     20  C   UNL     1      -5.670  -9.647  12.223  0.00  0.00    +0.155 C 
ATOM     21  C   UNL     1      -6.405  -9.288  12.117  0.00  0.00    +0.166 C 
ATOM     22  O   UNL     1      -6.867  -9.455  12.780  0.00  0.00    -0.350 OA
ATOM     23  C   UNL     1      -6.417  -9.917  13.295  0.00  0.00    +0.166 C 
BRANCH  20  24
ATOM     24  N   UNL     1      -5.038  -9.622  11.694  0.00  0.00    -0.198 NA
ATOM     25  C   UNL     1      -5.069  -9.125  11.036  0.00  0.00    +0.271 C 
ATOM     26  O   UNL     1      -5.733  -8.652  10.908  0.00  0.00    -0.268 OA
BRANCH  25  27
ATOM     27  C   UNL     1      -4.437  -9.100  10.507  0.00  0.00    +0.084 A 
ATOM     28  C   UNL     1      -3.650  -9.273  10.683  0.00  0.00    +0.012 A 
ATOM     29  C   UNL     1      -3.207  -9.177   9.993  0.00  0.00    +0.008 A 
ATOM     30  C   UNL     1      -3.720  -8.945   9.392  0.00  0.00    +0.036 A 
ATOM     31  S   UNL     1      -4.480  -8.897   9.709  0.00  0.00    -0.082 S 
ENDBRANCH  25  27
ENDBRANCH  20  24
ENDBRANCH  15  16
BRANCH  10   7
ATOM      4  C   UNL     1      -9.362  -9.997  18.247  0.00  0.00    +0.048 A 
ATOM      5  C   UNL     1      -9.212  -9.310  17.814  0.00  0.00    +0.015 A 
ATOM      6  C   UNL     1      -8.581  -9.285  17.285  0.00  0.00    +0.003 A 
ATOM      7  C   UNL     1      -8.097  -9.946  17.187  0.00  0.00    +0.018 A 
ATOM      8  C   UNL     1      -8.246 -10.633  17.619  0.00  0.00    +0.003 A 
ATOM      9  C   UNL     1      -8.878 -10.658  18.149  0.00  0.00    +0.015 A 
BRANCH   4   2
ATOM      1  C   UNL     1     -10.707  -9.656  18.583  0.00  0.00    +0.112 C 
ATOM      2  N   UNL     1      -9.993 -10.022  18.776  0.00  0.00    -0.304 N 
ATOM      3  C   UNL     1      -9.912 -10.413  19.498  0.00  0.00    +0.112 C 
ENDBRANCH   4   2
ENDBRANCH  10   7
TORSDOF 5
ENDMDL
MODEL 4
REMARK VINA RESULT:      -7.0     15.613     16.545
REMARK  Name = 
REMARK  5 active torsions:
REMARK  status: ('A' for Active; 'I' for Inactive)
REMARK    1  A    between atoms: N_2  and  C_4
REMARK    2  A    between atoms: C_7  and  C_10
REMARK    3  A    between atoms: N_15  and  C_16
REMARK    4  A    between atoms: C_20  and  N_24
REMARK    5  A    between atoms: C_25  and  C_27
REMARK                            x       y       z     vdW  Elec       q    Type
REMARK                         _______ _______ _______ _____ _____    ______ ____
ROOT
ATOM     10  C   UNL     1      -4.930 -10.638  16.547  0.00  0.00    +0.086 A 
ATOM     11  C   UNL     1      -4.116 -10.738  16.459  0.00  0.00    +0.040 A 
ATOM     12  C   UNL     1      -3.776 -10.713  15.708  0.00  0.00    +0.103 A 
ATOM     13  N   UNL     1      -4.251 -10.589  15.044  0.00  0.00    -0.211 NA
ATOM     14  C   UNL     1      -5.065 -10.489  15.133  0.00  0.00    +0.237 A 
ATOM     15  N   UNL     1      -5.540 -10.365  14.469  0.00  0.00    -0.200 NA
ATOM     32  N   UNL     1      -5.405 -10.514  15.884  0.00  0.00    -0.212 NA
ENDROOT
BRANCH  15  16
ATOM     16  C   UNL     1      -5.200 -10.340  13.717  0.00  0.00    +0.154 C 
ATOM     17  C   UNL     1      -4.533 -10.760  13.473  0.00  0.00    +0.166 C 
ATOM     18  O   UNL     1      -4.389 -10.570  12.683  0.00  0.00    -0.350 OA
ATOM     19  C   UNL     1      -4.965 -10.034  12.440  0.00  0.00    +0.166 C 
ATOM     20  C   UNL     1      -5.233  -9.584  11.802  0.00  0.00    +0.155 C 
ATOM     21  C   UNL     1      -5.899  -9.165  12.046  0.00  0.00    +0.166 C 
ATOM     22  O   UNL     1      -6.044  -9.354  12.836  0.00  0.00    -0.350 OA
ATOM     23  C   UNL     1      -5.466  -9.891  13.079  0.00  0.00    +0.166 C 
BRANCH  20  24
ATOM     24  N   UNL     1      -4.893  -9.560  11.050  0.00  0.00    -0.198 NA
ATOM     25  C   UNL     1      -5.374  -9.560  10.380  0.00  0.00    +0.271 C 
ATOM     26  O   UNL     1      -6.194  -9.585  10.460  0.00  0.00    -0.268 OA
BRANCH  25  27
ATOM     27  C   UNL     1      -5.034  -9.535   9.628  0.00  0.00    +0.084 A 
ATOM     28  C   UNL     1      -5.074 -10.130   9.058  0.00  0.00    +0.012 A 
ATOM     29  C   UNL     1      -4.659  -9.874   8.392  0.00  0.00    +0.008 A 
ATOM     30  C   UNL     1      -4.363  -9.121   8.551  0.00  0.00    +0.036 A 
ATOM     31  S   UNL     1      -4.594  -8.912   9.315  0.00  0.00    -0.082 S 
ENDBRANCH  25  27
ENDBRANCH  20  24
ENDBRANCH  15  16
BRANCH  10   7
ATOM      4  C   UNL     1      -5.950 -10.713  18.802  0.00  0.00    +0.048 A 
ATOM      5  C   UNL     1      -5.131 -10.780  18.716  0.00  0.00    +0.015 A 
ATOM      6  C   UNL     1      -4.792 -10.755  17.965  0.00  0.00    +0.003 A 
ATOM      7  C   UNL     1      -5.270 -10.663  17.298  0.00  0.00    +0.018 A 
ATOM      8  C   UNL     1      -6.088 -10.596  17.384  0.00  0.00    +0.003 A 
ATOM      9  C   UNL     1      -6.427 -10.620  18.135  0.00  0.00    +0.015 A 
BRANCH   4   2
ATOM      1  C   UNL     1      -7.109 -10.781  19.633  0.00  0.00    +0.112 C 
ATOM      2  N   UNL     1      -6.289 -10.737  19.553  0.00  0.00    -0.304 N 
ATOM      3  C   UNL     1      -5.809 -10.718  20.224  0.00  0.00    +0.112 C 
ENDBRANCH   4   2
ENDBRANCH  10   7
TORSDOF 5
ENDMDL
MODEL 5
REMARK VINA RESULT:      -6.6     16.571     17.468
REMARK  Name = 
REMARK  5 active torsions:
REMARK  status: ('A' for Active; 'I' for Inactive)
REMARK    1  A    between atoms: N_2  and  C_4
REMARK    2  A    between atoms: C_7  and  C_10
REMARK    3  A    between atoms: N_15  and  C_16
REMARK    4  A    between atoms: C_20  and  N_24
REMARK    5  A    between atoms: C_25  and  C_27
REMARK                            x       y       z     vdW  Elec       q    Type
REMARK                         _______ _______ _______ _____ _____    ______ ____
ROOT
ATOM     10  C   UNL     1      -6.097  -9.019  10.243  0.00  0.00    +0.086 A 
ATOM     11  C   UNL     1      -5.600  -8.361  10.218  0.00  0.00    +0.040 A 
ATOM     12  C   UNL     1      -4.893  -8.361  10.644  0.00  0.00    +0.103 A 
ATOM     13  N   UNL     1      -4.684  -9.019  11.095  0.00  0.00    -0.211 NA
ATOM     14  C   UNL     1      -5.182  -9.677  11.121  0.00  0.00    +0.237 A 
ATOM     15  N   UNL     1      -4.972 -10.335  11.572  0.00  0.00    -0.200 NA
ATOM     32  N   UNL     1      -5.888  -9.677  10.695  0.00  0.00    -0.212 NA
ENDROOT
BRANCH  15  16
ATOM     16  C   UNL     1      -4.265 -10.335  11.998  0.00  0.00    +0.154 C 
ATOM     17  C   UNL     1      -3.516 -10.167  11.695  0.00  0.00    +0.166 C 
ATOM     18  O   UNL     1      -2.972 -10.231  12.312  0.00  0.00    -0.350 OA
ATOM     19  C   UNL     1      -3.383 -10.439  12.995  0.00  0.00    +0.166 C 
ATOM     20  C   UNL     1      -3.302 -10.607  13.799  0.00  0.00    +0.155 C 
ATOM     21  C   UNL     1      -4.051 -10.775  14.102  0.00  0.00    +0.166 C 
ATOM     22  O   UNL     1      -4.595 -10.711  13.485  0.00  0.00    -0.350 OA
ATOM     23  C   UNL     1      -4.183 -10.503  12.801  0.00  0.00    +0.166 C 
BRANCH  20  24
ATOM     24  N   UNL     1      -2.596 -10.607  14.225  0.00  0.00    -0.198 NA
ATOM     25  C   UNL     1      -2.605 -10.484  15.040  0.00  0.00    +0.271 C 
ATOM     26  O   UNL     1      -3.322 -10.360  15.431  0.00  0.00    -0.268 OA
BRANCH  25  27
ATOM     27  C   UNL     1      -1.899 -10.484  15.466  0.00  0.00    +0.084 A 
ATOM     28  C   UNL     1      -1.792 -10.780  16.228  0.00  0.00    +0.012 A 
ATOM     29  C   UNL     1      -1.002 -10.667  16.438  0.00  0.00    +0.008 A 
ATOM     30  C   UNL     1      -0.621 -10.300  15.805  0.00  0.00    +0.036 A 
ATOM     31  S   UNL     1      -1.175 -10.187  15.205  0.00  0.00    -0.082 S 
ENDBRANCH  25  27
ENDBRANCH  20  24
ENDBRANCH  15  16
BRANCH  10   7
ATOM      4  C   UNL     1      -8.217  -9.018   8.965  0.00  0.00    +0.048 A 
ATOM      5  C   UNL     1      -8.208  -9.274   9.750  0.00  0.00    +0.015 A 
ATOM      6  C   UNL     1      -7.502  -9.275  10.175  0.00  0.00    +0.003 A 
ATOM      7  C   UNL     1      -6.803  -9.019   9.818  0.00  0.00    +0.018 A 
ATOM      8  C   UNL     1      -6.812  -8.762   9.034  0.00  0.00    +0.003 A 
ATOM      9  C   UNL     1      -7.519  -8.762   8.607  0.00  0.00    +0.015 A 
BRANCH   4   2
ATOM      1  C   UNL     1      -9.157  -8.341   8.129  0.00  0.00    +0.112 C 
ATOM      2  N   UNL     1      -8.923  -9.017   8.539  0.00  0.00    -0.304 N 
ATOM      3  C   UNL     1      -9.396  -9.693   8.523  0.00  0.00    +0.112 C 
ENDBRANCH   4   2
ENDBRANCH  10   7
TORSDOF 5
ENDMDL
MODEL 6
REMARK VINA RESULT:      -6.4     15.689     17.373
REMARK  Name = 
REMARK  5 active torsions:
REMARK  status: ('A' for Active; 'I' for Inactive)
REMARK    1  A    between atoms: N_2  and  C_4
REMARK    2  A    between atoms: C_7  and  C_10
REMARK    3  A    between atoms: N_15  and  C_16
REMARK    4  A    between atoms: C_20  and  N_24
REMARK    5  A    between atoms: C_25  and  C_27
REMARK                            x       y       z     vdW  Elec       q    Type
REMARK                         _______ _______ _______ _____ _____    ______ ____
ROOT
ATOM     10  C   UNL     1      -6.158  -9.407  12.247  0.00  0.00    +0.086 A 
ATOM     11  C   UNL     1      -6.912  -9.148  12.035  0.00  0.00    +0.040 A 
ATOM     12  C   UNL     1      -7.540  -9.223  12.565  0.00  0.00    +0.103 A 
ATOM     13  N   UNL     1      -7.413  -9.557  13.309  0.00  0.00    -0.211 NA
ATOM     14  C   UNL     1      -6.659  -9.816  13.522  0.00  0.00    +0.237 A 
ATOM     15  N   UNL     1      -6.533 -10.151  14.265  0.00  0.00    -0.200 NA
ATOM     32  N   UNL     1      -6.032  -9.741  12.991  0.00  0.00    -0.212 NA
ENDROOT
BRANCH  15  16
ATOM     16  C   UNL     1      -7.160 -10.226  14.796  0.00  0.00    +0.154 C 
ATOM     17  C   UNL     1      -7.918 -10.496  14.615  0.00  0.00    +0.166 C 
ATOM     18  O   UNL     1      -8.365 -10.481  15.308  0.00  0.00    -0.350 OA
ATOM     19  C   UNL     1      -7.885 -10.203  15.917  0.00  0.00    +0.166 C 
ATOM     20  C   UNL     1      -7.863 -10.021  16.721  0.00  0.00    +0.155 C 
ATOM     21  C   UNL     1      -7.105  -9.751  16.902  0.00  0.00    +0.166 C 
ATOM     22  O   UNL     1      -6.657  -9.766  16.209  0.00  0.00    -0.350 OA
ATOM     23  C   UNL     1      -7.139 -10.045  15.600  0.00  0.00    +0.166 C 
BRANCH  20  24
ATOM     24  N   UNL     1      -8.490 -10.096  17.252  0.00  0.00    -0.198 NA
ATOM     25  C   UNL     1      -8.354 -10.381  18.014  0.00  0.00    +0.271 C 
ATOM     26  O   UNL     1      -7.590 -10.590  18.247  0.00  0.00    -0.268 OA
BRANCH  25  27
ATOM     27  C   UNL     1      -8.981 -10.456  18.545  0.00  0.00    +0.084 A 
ATOM     28  C   UNL     1      -9.767 -10.252  18.399  0.00  0.00    +0.012 A 
ATOM     29  C   UNL     1     -10.204 -10.418  19.079  0.00  0.00    +0.008 A 
ATOM     30  C   UNL     1      -9.689 -10.725  19.644  0.00  0.00    +0.036 A 
ATOM     31  S   UNL     1      -8.933 -10.749  19.314  0.00  0.00    -0.082 S 
ENDBRANCH  25  27
ENDBRANCH  20  24
ENDBRANCH  15  16
BRANCH  10   7
ATOM      4  C   UNL     1      -4.277  -9.181  10.655  0.00  0.00    +0.048 A 
ATOM      5  C   UNL     1      -4.880  -8.618  10.664  0.00  0.00    +0.015 A 
ATOM      6  C   UNL     1      -5.507  -8.693  11.195  0.00  0.00    +0.003 A 
ATOM      7  C   UNL     1      -5.532  -9.331  11.717  0.00  0.00    +0.018 A 
ATOM      8  C   UNL     1      -4.929  -9.894  11.708  0.00  0.00    +0.003 A 
ATOM      9  C   UNL     1      -4.301  -9.819  11.177  0.00  0.00    +0.015 A 
BRANCH   4   2
ATOM      1  C   UNL     1      -2.873  -9.187  10.390  0.00  0.00    +0.112 C 
ATOM      2  N   UNL     1      -3.650  -9.105  10.125  0.00  0.00    -0.304 N 
ATOM      3  C   UNL     1      -3.799  -8.948   9.329  0.00  0.00    +0.112 C 
ENDBRANCH   4   2
ENDBRANCH  10   7
TORSDOF 5
ENDMDL
MODEL 7
REMARK VINA RESULT:      -6.1     16.124     18.085
REMARK  Name = 
REMARK  5 active torsions:
REMARK  status: ('A' for Active; 'I' for Inactive)
REMARK    1  A    between atoms: N_2  and  C_4
REMARK    2  A    between atoms: C_7  and  C_10
REMARK    3  A    between atoms: N_15  and  C_16
REMARK    4  A    between atoms: C_20  and  N_24
REMARK    5  A    between atoms: C_25  and  C_27
REMARK                            x       y       z     vdW  Elec       q    Type
REMARK                         _______ _______ _______ _____ _____    ______ ____
ROOT
ATOM     10  C   UNL     1      13.346  -5.880  31.310  0.00  0.00    +0.086 A 
ATOM     11  C   UNL     1      13.240  -6.133  30.532  0.00  0.00    +0.040 A 
ATOM     12  C   UNL     1      12.704  -6.738  30.364  0.00  0.00    +0.103 A 
ATOM     13  N   UNL     1      12.275  -7.090  30.973  0.00  0.00    -0.211 NA
ATOM     14  C   UNL     1      12.381  -6.837  31.752  0.00  0.00    +0.237 A 
ATOM     15  N   UNL     1      11.952  -7.190  32.362  0.00  0.00    -0.200 NA
ATOM     32  N   UNL     1      12.916  -6.233  31.920  0.00  0.00    -0.212 NA
ENDROOT
BRANCH  15  16
ATOM     16  C   UNL     1      11.416  -7.795  32.194  0.00  0.00    +0.154 C 
ATOM     17  C   UNL     1      11.586  -8.494  31.791  0.00  0.00    +0.166 C 
ATOM     18  O   UNL     1      10.892  -8.937  31.748  0.00  0.00    -0.350 OA
ATOM     19  C   UNL     1      10.293  -8.513  32.123  0.00  0.00    +0.166 C 
ATOM     20  C   UNL     1       9.494  -8.523  32.328  0.00  0.00    +0.155 C 
ATOM     21  C   UNL     1       9.324  -7.823  32.731  0.00  0.00    +0.166 C 
ATOM     22  O   UNL     1      10.019  -7.380  32.774  0.00  0.00    -0.350 OA
ATOM     23  C   UNL     1      10.617  -7.806  32.399  0.00  0.00    +0.166 C 
BRANCH  20  24
ATOM     24  N   UNL     1       8.958  -9.128  32.160  0.00  0.00    -0.198 NA
ATOM     25  C   UNL     1       8.182  -8.944  31.952  0.00  0.00    +0.271 C 
ATOM     26  O   UNL     1       7.940  -8.157  31.911  0.00  0.00    -0.268 OA
BRANCH  25  27
ATOM     27  C   UNL     1       7.646  -9.549  31.784  0.00  0.00    +0.084 A 
ATOM     28  C   UNL     1       7.351  -9.742  31.038  0.00  0.00    +0.012 A 
ATOM     29  C   UNL     1       6.834 -10.380  31.125  0.00  0.00    +0.008 A 
ATOM     30  C   UNL     1       6.810 -10.580  31.925  0.00  0.00    +0.036 A 
ATOM     31  S   UNL     1       7.311 -10.067  32.332  0.00  0.00    -0.082 S 
ENDBRANCH  25  27
ENDBRANCH  20  24
ENDBRANCH  15  16
BRANCH  10   7
ATOM      4  C   UNL     1      14.952  -4.066  31.813  0.00  0.00    +0.048 A 
ATOM      5  C   UNL     1      15.180  -4.699  31.334  0.00  0.00    +0.015 A 
ATOM      6  C   UNL     1      14.645  -5.303  31.167  0.00  0.00    +0.003 A 
ATOM      7  C   UNL     1      13.881  -5.276  31.477  0.00  0.00    +0.018 A 
ATOM      8  C   UNL     1      13.653  -4.644  31.956  0.00  0.00    +0.003 A 
ATOM      9  C   UNL     1      14.188  -4.039  32.124  0.00  0.00    +0.015 A 
BRANCH   4   2
ATOM      1  C   UNL     1      15.733  -3.332  32.758  0.00  0.00    +0.112 C 
ATOM      2  N   UNL     1      15.487  -3.462  31.981  0.00  0.00    -0.304 N 
ATOM      3  C   UNL     1      15.778  -2.986  31.372  0.00  0.00    +0.112 C 
ENDBRANCH   4   2
ENDBRANCH  10   7
TORSDOF 5
ENDMDL
MODEL 8
REMARK VINA RESULT:      -5.6     15.711     16.918
REMARK  Name = 
REMARK  5 active torsions:
REMARK  status: ('A' for Active; 'I' for Inactive)
REMARK    1  A    between atoms: N_2  and  C_4
REMARK    2  A    between atoms: C_7  and  C_10
REMARK    3  A    between atoms: N_15  and  C_16
REMARK    4  A    between atoms: C_20  and  N_24
REMARK    5  A    between atoms: C_25  and  C_27
REMARK                            x       y       z     vdW  Elec       q    Type
REMARK                         _______ _______ _______ _____ _____    ______ ____
ROOT
ATOM     10  C   UNL     1      -5.814  -9.655  12.163  0.00  0.00    +0.086 A 
ATOM     11  C   UNL     1      -5.054  -9.957  12.273  0.00  0.00    +0.040 A 
ATOM     12  C   UNL     1      -4.812 -10.200  13.024  0.00  0.00    +0.103 A 
ATOM     13  N   UNL     1      -5.329 -10.142  13.664  0.00  0.00    -0.211 NA
ATOM     14  C   UNL     1      -6.090  -9.840  13.552  0.00  0.00    +0.237 A 
ATOM     15  N   UNL     1      -6.607  -9.782  14.192  0.00  0.00    -0.200 NA
ATOM     32  N   UNL     1      -6.331  -9.597  12.803  0.00  0.00    -0.212 NA
ENDROOT
BRANCH  15  16
ATOM     16  C   UNL     1      -6.365 -10.025  14.943  0.00  0.00    +0.154 C 
ATOM     17  C   UNL     1      -5.629 -10.343  15.135  0.00  0.00    +0.166 C 
ATOM     18  O   UNL     1      -5.626 -10.507  15.943  0.00  0.00    -0.350 OA
ATOM     19  C   UNL     1      -6.359 -10.290  16.251  0.00  0.00    +0.166 C 
ATOM     20  C   UNL     1      -6.812 -10.257  16.940  0.00  0.00    +0.155 C 
ATOM     21  C   UNL     1      -7.548  -9.938  16.748  0.00  0.00    +0.166 C 
ATOM     22  O   UNL     1      -7.551  -9.774  15.940  0.00  0.00    -0.350 OA
ATOM     23  C   UNL     1      -6.816  -9.992  15.632  0.00  0.00    +0.166 C 
BRANCH  20  24
ATOM     24  N   UNL     1      -6.569 -10.500  17.691  0.00  0.00    -0.198 NA
ATOM     25  C   UNL     1      -6.904 -10.159  18.363  0.00  0.00    +0.271 C 
ATOM     26  O   UNL     1      -7.482  -9.575  18.285  0.00  0.00    -0.268 OA
BRANCH  25  27
ATOM     27  C   UNL     1      -6.662 -10.402  19.114  0.00  0.00    +0.084 A 
ATOM     28  C   UNL     1      -5.884 -10.540  19.351  0.00  0.00    +0.012 A 
ATOM     29  C   UNL     1      -5.897 -10.773  20.142  0.00  0.00    +0.008 A 
ATOM     30  C   UNL     1      -6.682 -10.779  20.394  0.00  0.00    +0.036 A 
ATOM     31  S   UNL     1      -7.155 -10.549  19.758  0.00  0.00    -0.082 S 
ENDBRANCH  25  27
ENDBRANCH  20  24
ENDBRANCH  15  16
BRANCH  10   7
ATOM      4  C   UNL     1      -6.539  -8.926   9.911  0.00  0.00    +0.048 A 
ATOM      5  C   UNL     1      -6.907  -9.569  10.276  0.00  0.00    +0.015 A 
ATOM      6  C   UNL     1      -6.665  -9.812  11.026  0.00  0.00    +0.003 A 
ATOM      7  C   UNL     1      -6.056  -9.413  11.413  0.00  0.00    +0.018 A 
ATOM      8  C   UNL     1      -5.688  -8.770  11.049  0.00  0.00    +0.003 A 
ATOM      9  C   UNL     1      -5.930  -8.527  10.298  0.00  0.00    +0.015 A 
BRANCH   4   2
ATOM      1  C   UNL     1      -6.582  -9.132   8.499  0.00  0.00    +0.112 C 
ATOM      2  N   UNL     1      -6.781  -8.683   9.161  0.00  0.00    -0.304 N 
ATOM      3  C   UNL     1      -7.222  -7.992   9.073  0.00  0.00    +0.112 C 
ENDBRANCH   4   2
ENDBRANCH  10   7
TORSDOF 5
ENDMDL
MODEL 9
REMARK VINA RESULT:      -5.2     16.658     18.290
REMARK  Name = 
REMARK  5 active torsions:
REMARK  status: ('A' for Active; 'I' for Inactive)
REMARK    1  A    between atoms: N_2  and  C_4
REMARK    2  A    between atoms: C_7  and  C_10
REMARK    3  A    between atoms: N_15  and  C_16
REMARK    4  A    between atoms: C_20  and  N_24
REMARK    5  A    between atoms: C_25  and  C_27
REMARK                            x       y       z     vdW  Elec       q    Type
REMARK                         _______ _______ _______ _____ _____    ______ ____
ROOT
ATOM     10  C   UNL     1      -2.832 -10.150  13.021  0.00  0.00    +0.086 A 
ATOM     11  C   UNL     1      -2.433 -10.206  12.301  0.00  0.00    +0.040 A 
ATOM     12  C   UNL     1      -2.852 -10.157  11.592  0.00  0.00    +0.103 A 
ATOM     13  N   UNL     1      -3.671 -10.052  11.602  0.00  0.00    -0.211 NA
ATOM     14  C   UNL     1      -4.070  -9.996  12.323  0.00  0.00    +0.237 A 
ATOM     15  N   UNL     1      -4.888  -9.891  12.333  0.00  0.00    -0.200 NA
ATOM     32  N   UNL     1      -3.651 -10.045  13.031  0.00  0.00    -0.212 NA
ENDROOT
BRANCH  15  16
ATOM     16  C   UNL     1      -5.307  -9.842  11.624  0.00  0.00    +0.154 C 
ATOM     17  C   UNL     1      -5.049 -10.112  10.889  0.00  0.00    +0.166 C 
ATOM     18  O   UNL     1      -5.640  -9.952  10.337  0.00  0.00    -0.350 OA
ATOM     19  C   UNL     1      -6.263  -9.583  10.730  0.00  0.00    +0.166 C 
ATOM     20  C   UNL     1      -7.014  -9.255  10.633  0.00  0.00    +0.155 C 
ATOM     21  C   UNL     1      -7.273  -8.985  11.368  0.00  0.00    +0.166 C 
ATOM     22  O   UNL     1      -6.682  -9.146  11.920  0.00  0.00    -0.350 OA
ATOM     23  C   UNL     1      -6.058  -9.515  11.526  0.00  0.00    +0.166 C 
BRANCH  20  24
ATOM     24  N   UNL     1      -7.434  -9.206   9.924  0.00  0.00    -0.198 NA
ATOM     25  C   UNL     1      -8.258  -9.220   9.931  0.00  0.00    +0.271 C 
ATOM     26  O   UNL     1      -8.665  -9.282  10.646  0.00  0.00    -0.268 OA
BRANCH  25  27
ATOM     27  C   UNL     1      -8.678  -9.171   9.221  0.00  0.00    +0.084 A 
ATOM     28  C   UNL     1      -8.988  -9.806   8.797  0.00  0.00    +0.012 A 
ATOM     29  C   UNL     1      -9.362  -9.506   8.125  0.00  0.00    +0.008 A 
ATOM     30  C   UNL     1      -9.283  -8.686   8.135  0.00  0.00    +0.036 A 
ATOM     31  S   UNL     1      -8.860  -8.478   8.813  0.00  0.00    -0.082 S 
ENDBRANCH  25  27
ENDBRANCH  20  24
ENDBRANCH  15  16
BRANCH  10   7
ATOM      4  C   UNL     1      -1.575 -10.297  15.148  0.00  0.00    +0.048 A 
ATOM      5  C   UNL     1      -1.338  -9.763  14.564  0.00  0.00    +0.015 A 
ATOM      6  C   UNL     1      -1.757  -9.714  13.855  0.00  0.00    +0.003 A 
ATOM      7  C   UNL     1      -2.413 -10.199  13.729  0.00  0.00    +0.018 A 
ATOM      8  C   UNL     1      -2.650 -10.732  14.312  0.00  0.00    +0.003 A 
ATOM      9  C   UNL     1      -2.231 -10.781  15.021  0.00  0.00    +0.015 A 
BRANCH   4   2
ATOM      1  C   UNL     1      -0.405 -10.008  15.915  0.00  0.00    +0.112 C 
ATOM      2  N   UNL     1      -1.155 -10.346  15.856  0.00  0.00    -0.304 N 
ATOM      3  C   UNL     1      -1.486 -10.732  16.506  0.00  0.00    +0.112 C 
ENDBRANCH   4   2
ENDBRANCH  10   7
TORSDOF 5
ENDMDL
MODEL 10
REMARK VINA RESULT:      -4.9     17.947     19.762
REMARK  Name = 
REMARK  5 active torsions:
REMARK  status: ('A' for Active; 'I' for Inactive)
REMARK    1  A    between atoms: N_2  and  C_4
REMARK    2  A    between atoms: C_7  and  C_10
REMARK    3  A    between atoms: N_15  and  C_16
REMARK    4  A    between atoms: C_20  and  N_24
REMARK    5  A    between atoms: C_25  and  C_27
REMARK                            x       y       z     vdW  Elec       q    Type
REMARK                         _______ _______ _______ _____ _____    ______ ____
ROOT
ATOM     10  C   UNL     1      -2.989  -9.764  10.557  0.00  0.00    +0.086 A 
ATOM     11  C   UNL     1      -3.287 -10.465  10.875  0.00  0.00    +0.040 A 
ATOM     12  C   UNL     1      -4.035 -10.733  10.654  0.00  0.00    +0.103 A 
ATOM     13  N   UNL     1      -4.486 -10.302  10.114  0.00  0.00    -0.211 NA
ATOM     14  C   UNL     1      -4.187  -9.601   9.796  0.00  0.00    +0.237 A 
ATOM     15  N   UNL     1      -4.637  -9.169   9.256  0.00  0.00    -0.200 NA
ATOM     32  N   UNL     1      -3.439  -9.333  10.017  0.00  0.00    -0.212 NA
ENDROOT
BRANCH  15  16
ATOM     16  C   UNL     1      -5.386  -9.438   9.034  0.00  0.00    +0.154 C 
ATOM     17  C   UNL     1      -5.563 -10.184   8.732  0.00  0.00    +0.166 C 
ATOM     18  O   UNL     1      -6.374 -10.214   8.587  0.00  0.00    -0.350 OA
ATOM     19  C   UNL     1      -6.699  -9.487   8.800  0.00  0.00    +0.166 C 
ATOM     20  C   UNL     1      -7.400  -9.055   8.842  0.00  0.00    +0.155 C 
ATOM     21  C   UNL     1      -7.223  -8.309   9.144  0.00  0.00    +0.166 C 
ATOM     22  O   UNL     1      -6.412  -8.279   9.289  0.00  0.00    -0.350 OA
ATOM     23  C   UNL     1      -6.087  -9.007   9.076  0.00  0.00    +0.166 C 
BRANCH  20  24
ATOM     24  N   UNL     1      -8.148  -9.324   8.620  0.00  0.00    -0.198 NA
ATOM     25  C   UNL     1      -8.820  -9.037   9.004  0.00  0.00    +0.271 C 
ATOM     26  O   UNL     1      -8.744  -8.481   9.609  0.00  0.00    -0.268 OA
BRANCH  25  27
ATOM     27  C   UNL     1      -9.568  -9.306   8.782  0.00  0.00    +0.084 A 
ATOM     28  C   UNL     1     -10.007  -9.889   9.166  0.00  0.00    +0.012 A 
ATOM     29  C   UNL     1     -10.719  -9.982   8.759  0.00  0.00    +0.008 A 
ATOM     30  C   UNL     1     -10.720  -9.456   8.124  0.00  0.00    +0.036 A 
ATOM     31  S   UNL     1     -10.008  -9.038   8.138  0.00  0.00    -0.082 S 
ENDBRANCH  25  27
ENDBRANCH  20  24
ENDBRANCH  15  16
BRANCH  10   7
ATOM      4  C   UNL     1      -0.745  -8.960  11.223  0.00  0.00    +0.048 A 
ATOM      5  C   UNL     1      -1.140  -8.606  10.590  0.00  0.00    +0.015 A 
ATOM      6  C   UNL     1      -1.887  -8.875  10.368  0.00  0.00    +0.003 A 
ATOM      7  C   UNL     1      -2.241  -9.496  10.779  0.00  0.00    +0.018 A 
ATOM      8  C   UNL     1      -1.847  -9.850  11.411  0.00  0.00    +0.003 A 
ATOM      9  C   UNL     1      -1.099  -9.582  11.633  0.00  0.00    +0.015 A 
BRANCH   4   2
ATOM      1  C   UNL     1       0.669  -8.936  11.025  0.00  0.00    +0.112 C 
ATOM      2  N   UNL     1       0.003  -8.692  11.444  0.00  0.00    -0.304 N 
ATOM      3  C   UNL     1       0.085  -8.179  12.086  0.00  0.00    +0.112 C 
ENDBRANCH   4   2
ENDBRANCH  10   7
TORSDOF 5
ENDMDL
