MODEL 1
REMARK VINA RESULT:     -10.6      0.000      0.000
REMARK  Name = 
REMARK  3 active torsions:
REMARK  status: ('A' for Active; 'I' for Inactive)
REMARK    1  A    between atoms: C_2  and  C_19
REMARK    2  A    between atoms: C_6  and  C_8
REMARK    3  A    between atoms: C_11  and  C_13
REMARK                            x       y       z     vdW  Elec       q    Type
REMARK                         _______ _______ _______ _____ _____    ______ ____
ROOT
ATOM      1  O   UNL     1      -1.200   2.533  26.057  0.00  0.00    -0.268 OA
ATOM      2  C   UNL     1      -1.616   2.923  25.461  0.00  0.00    +0.268 C 
ATOM      3  N   UNL     1      -2.242   2.545  25.080  0.00  0.00    -0.274 N 
ATOM      4  C   UNL     1      -2.707   2.864  24.477  0.00  0.00    +0.094 C 
ATOM      5  C   UNL     1      -3.266   2.297  24.259  0.00  0.00    +0.033 C 
ATOM      6  C   UNL     1      -3.147   1.628  24.727  0.00  0.00    +0.100 C 
ATOM      7  C   UNL     1      -2.514   1.781  25.235  0.00  0.00    +0.103 C 
ENDROOT
BRANCH   2  19
ATOM     19  C   UNL     1      -1.406   3.691  25.247  0.00  0.00    +0.154 A 
ATOM     20  C   UNL     1      -0.762   3.818  24.747  0.00  0.00    +0.123 A 
ATOM     21  N   UNL     1      -0.552   4.587  24.532  0.00  0.00    -0.239 NA
ATOM     22  C   UNL     1      -0.986   5.228  24.817  0.00  0.00    +0.120 A 
ATOM     23  C   UNL     1      -1.630   5.101  25.317  0.00  0.00    +0.120 A 
ATOM     24  N   UNL     1      -1.840   4.333  25.531  0.00  0.00    -0.236 NA
ENDBRANCH   2  19
BRANCH   6   8
ATOM      8  C   UNL     1      -3.583   0.929  24.694  0.00  0.00    +0.228 A 
ATOM      9  N   UNL     1      -4.406   0.869  24.720  0.00  0.00    -0.111 NA
ATOM     10  N   UNL     1      -4.605   0.071  24.671  0.00  0.00    -0.107 NA
ATOM     11  C   UNL     1      -3.906  -0.364  24.614  0.00  0.00    +0.251 A 
ATOM     12  O   UNL     1      -3.274   0.167  24.628  0.00  0.00    -0.419 OA
BRANCH  11  13
ATOM     13  C   UNL     1      -3.848  -1.184  24.554  0.00  0.00    +0.074 A 
ATOM     14  C   UNL     1      -3.476  -1.617  25.149  0.00  0.00    +0.104 A 
ATOM     15  N   UNL     1      -3.419  -2.437  25.089  0.00  0.00    -0.242 NA
ATOM     16  C   UNL     1      -3.734  -2.826  24.431  0.00  0.00    +0.099 A 
ATOM     17  C   UNL     1      -4.106  -2.393  23.836  0.00  0.00    +0.021 A 
ATOM     18  C   UNL     1      -4.163  -1.572  23.897  0.00  0.00    +0.008 A 
ENDBRANCH  11  13
ENDBRANCH   6   8
TORSDOF 3
ENDMDL
MODEL 2
REMARK VINA RESULT:     -10.4      1.063      5.543
REMARK  Name = 
REMARK  3 active torsions:
REMARK  status: ('A' for Active; 'I' for Inactive)
REMARK    1  A    between atoms: C_2  and  C_19
REMARK    2  A    between atoms: C_6  and  C_8
REMARK    3  A    between atoms: C_11  and  C_13
REMARK                            x       y       z     vdW  Elec       q    Type
REMARK                         _______ _______ _______ _____ _____    ______ ____
ROOT
ATOM      1  O   UNL     1      -4.280  -0.110  25.386  0.00  0.00    -0.268 OA
ATOM      2  C   UNL     1      -3.636  -0.496  25.044  0.00  0.00    +0.268 C 
ATOM      3  N   UNL     1      -2.908  -0.112  24.988  0.00  0.00    -0.274 N 
ATOM      4  C   UNL     1      -2.218  -0.425  24.663  0.00  0.00    +0.094 C 
ATOM      5  C   UNL     1      -1.625   0.146  24.722  0.00  0.00    +0.033 C 
ATOM      6  C   UNL     1      -1.949   0.813  25.084  0.00  0.00    +0.100 C 
ATOM      7  C   UNL     1      -2.742   0.654  25.249  0.00  0.00    +0.103 C 
ENDROOT
BRANCH   2  19
ATOM     19  C   UNL     1      -3.719  -1.265  24.759  0.00  0.00    +0.154 A 
ATOM     20  C   UNL     1      -4.078  -1.398  24.028  0.00  0.00    +0.123 A 
ATOM     21  N   UNL     1      -4.161  -2.168  23.742  0.00  0.00    -0.239 NA
ATOM     22  C   UNL     1      -3.885  -2.804  24.188  0.00  0.00    +0.120 A 
ATOM     23  C   UNL     1      -3.525  -2.672  24.918  0.00  0.00    +0.120 A 
ATOM     24  N   UNL     1      -3.442  -1.903  25.204  0.00  0.00    -0.236 NA
ENDBRANCH   2  19
BRANCH   6   8
ATOM      8  C   UNL     1      -1.552   1.516  25.251  0.00  0.00    +0.228 A 
ATOM      9  N   UNL     1      -0.839   1.583  25.662  0.00  0.00    -0.111 NA
ATOM     10  N   UNL     1      -0.642   2.383  25.703  0.00  0.00    -0.107 NA
ATOM     11  C   UNL     1      -1.234   2.811  25.317  0.00  0.00    +0.251 A 
ATOM     12  O   UNL     1      -1.796   2.274  25.038  0.00  0.00    -0.419 OA
BRANCH  11  13
ATOM     13  C   UNL     1      -1.259   3.630  25.226  0.00  0.00    +0.074 A 
ATOM     14  C   UNL     1      -0.634   4.024  24.859  0.00  0.00    +0.104 A 
ATOM     15  N   UNL     1      -0.659   4.843  24.769  0.00  0.00    -0.242 NA
ATOM     16  C   UNL     1      -1.310   5.270  25.045  0.00  0.00    +0.099 A 
ATOM     17  C   UNL     1      -1.935   4.876  25.412  0.00  0.00    +0.021 A 
ATOM     18  C   UNL     1      -1.909   4.056  25.502  0.00  0.00    +0.008 A 
ENDBRANCH  11  13
ENDBRANCH   6   8
TORSDOF 3
ENDMDL
MODEL 3
REMARK VINA RESULT:      -7.0     17.354     19.542
REMARK  Name = 
REMARK  3 active torsions:
REMARK  status: ('A' for Active; 'I' for Inactive)
REMARK    1  A    between atoms: C_2  and  C_19
REMARK    2  A    between atoms: C_6  and  C_8
REMARK    3  A    between atoms: C_11  and  C_13
REMARK                            x       y       z     vdW  Elec       q    Type
REMARK                         _______ _______ _______ _____ _____    ______ ____
ROOT
ATOM      1  O   UNL     1      11.903   8.819  18.797  0.00  0.00    -0.268 OA
ATOM      2  C   UNL     1      12.184   8.509  18.085  0.00  0.00    +0.268 C 
ATOM      3  N   UNL     1      12.908   8.116  18.064  0.00  0.00    -0.274 N 
ATOM      4  C   UNL     1      13.259   7.779  17.398  0.00  0.00    +0.094 C 
ATOM      5  C   UNL     1      13.977   7.445  17.629  0.00  0.00    +0.033 C 
ATOM      6  C   UNL     1      14.071   7.575  18.438  0.00  0.00    +0.100 C 
ATOM      7  C   UNL     1      13.410   7.990  18.708  0.00  0.00    +0.103 C 
ENDROOT
BRANCH   2  19
ATOM     19  C   UNL     1      11.740   8.593  17.395  0.00  0.00    +0.154 A 
ATOM     20  C   UNL     1      12.051   9.010  16.754  0.00  0.00    +0.123 A 
ATOM     21  N   UNL     1      11.607   9.094  16.062  0.00  0.00    -0.239 NA
ATOM     22  C   UNL     1      10.854   8.761  16.013  0.00  0.00    +0.120 A 
ATOM     23  C   UNL     1      10.544   8.344  16.654  0.00  0.00    +0.120 A 
ATOM     24  N   UNL     1      10.987   8.260  17.344  0.00  0.00    -0.236 NA
ENDBRANCH   2  19
BRANCH   6   8
ATOM      8  C   UNL     1      14.712   7.333  18.897  0.00  0.00    +0.228 A 
ATOM      9  N   UNL     1      15.044   6.578  18.907  0.00  0.00    -0.111 NA
ATOM     10  N   UNL     1      15.671   6.582  19.443  0.00  0.00    -0.107 NA
ATOM     11  C   UNL     1      15.727   7.340  19.764  0.00  0.00    +0.251 A 
ATOM     12  O   UNL     1      15.134   7.804  19.427  0.00  0.00    -0.419 OA
BRANCH  11  13
ATOM     13  C   UNL     1      16.278   7.589  20.324  0.00  0.00    +0.074 A 
ATOM     14  C   UNL     1      16.256   8.363  20.611  0.00  0.00    +0.104 A 
ATOM     15  N   UNL     1      16.807   8.612  21.171  0.00  0.00    -0.242 NA
ATOM     16  C   UNL     1      17.383   8.087  21.446  0.00  0.00    +0.099 A 
ATOM     17  C   UNL     1      17.405   7.314  21.160  0.00  0.00    +0.021 A 
ATOM     18  C   UNL     1      16.853   7.065  20.599  0.00  0.00    +0.008 A 
ENDBRANCH  11  13
ENDBRANCH   6   8
TORSDOF 3
ENDMDL
