MODEL 1
REMARK VINA RESULT:      -8.7      0.000      0.000
REMARK  Name = 
REMARK  3 active torsions:
REMARK  status: ('A' for Active; 'I' for Inactive)
REMARK    1  A    between atoms: O_2  and  C_3
REMARK    2  A    between atoms: C_7  and  C_8
REMARK    3  A    between atoms: C_8  and  N_9
REMARK                            x       y       z     vdW  Elec       q    Type
REMARK                         _______ _______ _______ _____ _____    ______ ____
ROOT
ATOM      8  C   UNL     1      -4.059  -0.136  25.397  0.00  0.00    +0.099 C 
ENDROOT
BRANCH   8   9
ATOM      9  N   UNL     1      -3.954   0.605  25.050  0.00  0.00    -0.265 NA
ATOM     10  C   UNL     1      -3.175   0.811  24.875  0.00  0.00    +0.105 C 
ATOM     11  C   UNL     1      -2.891   1.505  24.531  0.00  0.00    +0.160 C 
ATOM     12  O   UNL     1      -3.316   2.165  24.277  0.00  0.00    -0.350 OA
ATOM     13  C   UNL     1      -4.130   2.292  24.304  0.00  0.00    +0.176 C 
ATOM     14  C   UNL     1      -4.720   1.794  24.592  0.00  0.00    +0.197 C 
ATOM     15  O   UNL     1      -5.492   2.083  24.541  0.00  0.00    -0.219 OA
ATOM     16  C   UNL     1      -4.642   1.042  24.924  0.00  0.00    +0.108 C 
ENDBRANCH   8   9
BRANCH   8   7
ATOM      3  C   UNL     1      -3.117  -1.982  24.712  0.00  0.00    +0.138 A 
ATOM      4  C   UNL     1      -3.613  -2.187  24.086  0.00  0.00    +0.037 A 
ATOM      5  C   UNL     1      -4.257  -1.709  23.897  0.00  0.00    +0.003 A 
ATOM      6  C   UNL     1      -4.406  -1.025  24.333  0.00  0.00    -0.003 A 
ATOM      7  C   UNL     1      -3.910  -0.820  24.960  0.00  0.00    -0.003 A 
ATOM     17  C   UNL     1      -3.266  -1.298  25.149  0.00  0.00    +0.034 A 
BRANCH   3   2
ATOM      1  C   UNL     1      -1.827  -2.503  24.391  0.00  0.00    +0.252 C 
ATOM      2  O   UNL     1      -2.472  -2.461  24.902  0.00  0.00    -0.471 OA
ENDBRANCH   3   2
ENDBRANCH   8   7
TORSDOF 3
ENDMDL
MODEL 2
REMARK VINA RESULT:      -8.5      1.378      2.068
REMARK  Name = 
REMARK  3 active torsions:
REMARK  status: ('A' for Active; 'I' for Inactive)
REMARK    1  A    between atoms: O_2  and  C_3
REMARK    2  A    between atoms: C_7  and  C_8
REMARK    3  A    between atoms: C_8  and  N_9
REMARK                            x       y       z     vdW  Elec       q    Type
REMARK                         _______ _______ _______ _____ _____    ______ ____
ROOT
ATOM      8  C   UNL     1      -4.131   1.217  24.265  0.00  0.00    +0.099 C 
ENDROOT
BRANCH   8   9
ATOM      9  N   UNL     1      -4.475   1.807  24.727  0.00  0.00    -0.265 NA
ATOM     10  C   UNL     1      -5.234   1.643  25.010  0.00  0.00    +0.105 C 
ATOM     11  C   UNL     1      -5.720   2.114  25.480  0.00  0.00    +0.160 C 
ATOM     12  O   UNL     1      -5.569   2.865  25.786  0.00  0.00    -0.350 OA
ATOM     13  C   UNL     1      -4.894   3.331  25.695  0.00  0.00    +0.176 C 
ATOM     14  C   UNL     1      -4.204   3.160  25.277  0.00  0.00    +0.197 C 
ATOM     15  O   UNL     1      -3.622   3.746  25.291  0.00  0.00    -0.219 OA
ATOM     16  C   UNL     1      -4.018   2.482  24.846  0.00  0.00    +0.108 C 
ENDBRANCH   8   9
BRANCH   8   7
ATOM      3  C   UNL     1      -2.596  -0.062  25.145  0.00  0.00    +0.138 A 
ATOM      4  C   UNL     1      -3.044  -0.724  25.348  0.00  0.00    +0.037 A 
ATOM      5  C   UNL     1      -3.852  -0.740  25.191  0.00  0.00    +0.003 A 
ATOM      6  C   UNL     1      -4.215  -0.093  24.830  0.00  0.00    -0.003 A 
ATOM      7  C   UNL     1      -3.768   0.569  24.626  0.00  0.00    -0.003 A 
ATOM     17  C   UNL     1      -2.959   0.585  24.784  0.00  0.00    +0.034 A 
BRANCH   3   2
ATOM      1  C   UNL     1      -1.456  -0.599  25.817  0.00  0.00    +0.252 C 
ATOM      2  O   UNL     1      -1.787  -0.046  25.303  0.00  0.00    -0.471 OA
ENDBRANCH   3   2
ENDBRANCH   8   7
TORSDOF 3
ENDMDL
MODEL 3
REMARK VINA RESULT:      -8.4      3.195      5.162
REMARK  Name = 
REMARK  3 active torsions:
REMARK  status: ('A' for Active; 'I' for Inactive)
REMARK    1  A    between atoms: O_2  and  C_3
REMARK    2  A    between atoms: C_7  and  C_8
REMARK    3  A    between atoms: C_8  and  N_9
REMARK                            x       y       z     vdW  Elec       q    Type
REMARK                         _______ _______ _______ _____ _____    ______ ____
ROOT
ATOM      8  C   UNL     1      -0.436   2.676  25.867  0.00  0.00    +0.099 C 
ENDROOT
BRANCH   8   9
ATOM      9  N   UNL     1      -0.398   2.011  25.381  0.00  0.00    -0.265 NA
ATOM     10  C   UNL     1       0.065   2.090  24.702  0.00  0.00    +0.105 C 
ATOM     11  C   UNL     1       0.212   1.533  24.112  0.00  0.00    +0.160 C 
ATOM     12  O   UNL     1      -0.066   0.758  24.055  0.00  0.00    -0.350 OA
ATOM     13  C   UNL     1      -0.561   0.351  24.574  0.00  0.00    +0.176 C 
ATOM     14  C   UNL     1      -0.899   0.616  25.277  0.00  0.00    +0.197 C 
ATOM     15  O   UNL     1      -1.374   0.070  25.675  0.00  0.00    -0.219 OA
ATOM     16  C   UNL     1      -0.827   1.355  25.636  0.00  0.00    +0.108 C 
ENDBRANCH   8   9
BRANCH   8   7
ATOM      3  C   UNL     1      -2.226   3.920  25.757  0.00  0.00    +0.138 A 
ATOM      4  C   UNL     1      -1.954   4.543  25.290  0.00  0.00    +0.037 A 
ATOM      5  C   UNL     1      -1.177   4.544  25.016  0.00  0.00    +0.003 A 
ATOM      6  C   UNL     1      -0.671   3.922  25.208  0.00  0.00    -0.003 A 
ATOM      7  C   UNL     1      -0.943   3.299  25.675  0.00  0.00    -0.003 A 
ATOM     17  C   UNL     1      -1.720   3.298  25.949  0.00  0.00    +0.034 A 
BRANCH   3   2
ATOM      1  C   UNL     1      -3.626   3.780  25.509  0.00  0.00    +0.252 C 
ATOM      2  O   UNL     1      -3.004   3.919  26.032  0.00  0.00    -0.471 OA
ENDBRANCH   3   2
ENDBRANCH   8   7
TORSDOF 3
ENDMDL
MODEL 4
REMARK VINA RESULT:      -8.3      2.844      4.116
REMARK  Name = 
REMARK  3 active torsions:
REMARK  status: ('A' for Active; 'I' for Inactive)
REMARK    1  A    between atoms: O_2  and  C_3
REMARK    2  A    between atoms: C_7  and  C_8
REMARK    3  A    between atoms: C_8  and  N_9
REMARK                            x       y       z     vdW  Elec       q    Type
REMARK                         _______ _______ _______ _____ _____    ______ ____
ROOT
ATOM      8  C   UNL     1      -3.436   3.228  24.348  0.00  0.00    +0.099 C 
ENDROOT
BRANCH   8   9
ATOM      9  N   UNL     1      -4.100   2.932  24.738  0.00  0.00    -0.265 NA
ATOM     10  C   UNL     1      -4.542   3.486  25.161  0.00  0.00    +0.105 C 
ATOM     11  C   UNL     1      -5.228   3.367  25.604  0.00  0.00    +0.160 C 
ATOM     12  O   UNL     1      -5.640   2.665  25.735  0.00  0.00    -0.350 OA
ATOM     13  C   UNL     1      -5.469   1.908  25.454  0.00  0.00    +0.176 C 
ATOM     14  C   UNL     1      -4.843   1.667  24.974  0.00  0.00    +0.197 C 
ATOM     15  O   UNL     1      -4.824   0.863  24.788  0.00  0.00    -0.219 OA
ATOM     16  C   UNL     1      -4.234   2.123  24.656  0.00  0.00    +0.108 C 
ENDBRANCH   8   9
BRANCH   8   7
ATOM      3  C   UNL     1      -1.491   2.959  25.302  0.00  0.00    +0.138 A 
ATOM      4  C   UNL     1      -1.369   3.711  25.619  0.00  0.00    +0.037 A 
ATOM      5  C   UNL     1      -1.934   4.301  25.512  0.00  0.00    +0.003 A 
ATOM      6  C   UNL     1      -2.624   4.140  25.088  0.00  0.00    -0.003 A 
ATOM      7  C   UNL     1      -2.746   3.389  24.772  0.00  0.00    -0.003 A 
ATOM     17  C   UNL     1      -2.181   2.799  24.879  0.00  0.00    +0.034 A 
BRANCH   3   2
ATOM      1  C   UNL     1      -0.436   2.382  26.073  0.00  0.00    +0.252 C 
ATOM      2  O   UNL     1      -0.925   2.369  25.409  0.00  0.00    -0.471 OA
ENDBRANCH   3   2
ENDBRANCH   8   7
TORSDOF 3
ENDMDL
MODEL 5
REMARK VINA RESULT:      -8.2      1.847      3.368
REMARK  Name = 
REMARK  3 active torsions:
REMARK  status: ('A' for Active; 'I' for Inactive)
REMARK    1  A    between atoms: O_2  and  C_3
REMARK    2  A    between atoms: C_7  and  C_8
REMARK    3  A    between atoms: C_8  and  N_9
REMARK                            x       y       z     vdW  Elec       q    Type
REMARK                         _______ _______ _______ _____ _____    ______ ____
ROOT
ATOM      8  C   UNL     1      -3.607   2.941  24.121  0.00  0.00    +0.099 C 
ENDROOT
BRANCH   8   9
ATOM      9  N   UNL     1      -2.964   3.207  24.563  0.00  0.00    -0.265 NA
ATOM     10  C   UNL     1      -3.144   3.722  25.183  0.00  0.00    +0.105 C 
ATOM     11  C   UNL     1      -2.630   4.080  25.720  0.00  0.00    +0.160 C 
ATOM     12  O   UNL     1      -1.809   4.012  25.771  0.00  0.00    -0.350 OA
ATOM     13  C   UNL     1      -1.300   3.569  25.296  0.00  0.00    +0.176 C 
ATOM     14  C   UNL     1      -1.485   3.085  24.655  0.00  0.00    +0.197 C 
ATOM     15  O   UNL     1      -0.845   2.712  24.291  0.00  0.00    -0.219 OA
ATOM     16  C   UNL     1      -2.226   2.924  24.329  0.00  0.00    +0.108 C 
ENDBRANCH   8   9
BRANCH   8   7
ATOM      3  C   UNL     1      -4.402   0.973  24.632  0.00  0.00    +0.138 A 
ATOM      4  C   UNL     1      -5.091   1.183  25.034  0.00  0.00    +0.037 A 
ATOM      5  C   UNL     1      -5.285   1.978  25.131  0.00  0.00    +0.003 A 
ATOM      6  C   UNL     1      -4.791   2.564  24.827  0.00  0.00    -0.003 A 
ATOM      7  C   UNL     1      -4.102   2.354  24.426  0.00  0.00    -0.003 A 
ATOM     17  C   UNL     1      -3.908   1.559  24.328  0.00  0.00    +0.034 A 
BRANCH   3   2
ATOM      1  C   UNL     1      -4.020  -0.285  25.191  0.00  0.00    +0.252 C 
ATOM      2  O   UNL     1      -4.207   0.177  24.534  0.00  0.00    -0.471 OA
ENDBRANCH   3   2
ENDBRANCH   8   7
TORSDOF 3
ENDMDL
MODEL 6
REMARK VINA RESULT:      -8.2      1.319      3.847
REMARK  Name = 
REMARK  3 active torsions:
REMARK  status: ('A' for Active; 'I' for Inactive)
REMARK    1  A    between atoms: O_2  and  C_3
REMARK    2  A    between atoms: C_7  and  C_8
REMARK    3  A    between atoms: C_8  and  N_9
REMARK                            x       y       z     vdW  Elec       q    Type
REMARK                         _______ _______ _______ _____ _____    ______ ____
ROOT
ATOM      8  C   UNL     1      -3.998   0.786  24.247  0.00  0.00    +0.099 C 
ENDROOT
BRANCH   8   9
ATOM      9  N   UNL     1      -3.518   0.272  24.676  0.00  0.00    -0.265 NA
ATOM     10  C   UNL     1      -3.913  -0.314  25.103  0.00  0.00    +0.105 C 
ATOM     11  C   UNL     1      -3.595  -0.906  25.581  0.00  0.00    +0.160 C 
ATOM     12  O   UNL     1      -2.802  -1.058  25.752  0.00  0.00    -0.350 OA
ATOM     13  C   UNL     1      -2.133  -0.656  25.486  0.00  0.00    +0.176 C 
ATOM     14  C   UNL     1      -2.090  -0.003  24.984  0.00  0.00    +0.197 C 
ATOM     15  O   UNL     1      -1.330   0.274  24.820  0.00  0.00    -0.219 OA
ATOM     16  C   UNL     1      -2.707   0.410  24.624  0.00  0.00    +0.108 C 
ENDBRANCH   8   9
BRANCH   8   7
ATOM      3  C   UNL     1      -4.350   2.799  25.016  0.00  0.00    +0.138 A 
ATOM      4  C   UNL     1      -5.083   2.700  25.380  0.00  0.00    +0.037 A 
ATOM      5  C   UNL     1      -5.455   1.964  25.367  0.00  0.00    +0.003 A 
ATOM      6  C   UNL     1      -5.094   1.326  24.989  0.00  0.00    -0.003 A 
ATOM      7  C   UNL     1      -4.360   1.425  24.625  0.00  0.00    -0.003 A 
ATOM     17  C   UNL     1      -3.989   2.160  24.638  0.00  0.00    +0.034 A 
BRANCH   3   2
ATOM      1  C   UNL     1      -3.701   3.844  25.742  0.00  0.00    +0.252 C 
ATOM      2  O   UNL     1      -3.978   3.535  25.029  0.00  0.00    -0.471 OA
ENDBRANCH   3   2
ENDBRANCH   8   7
TORSDOF 3
ENDMDL
