MODEL 1
REMARK VINA RESULT:      -8.8      0.000      0.000
REMARK  Name = 
REMARK  7 active torsions:
REMARK  status: ('A' for Active; 'I' for Inactive)
REMARK    1  A    between atoms: N_6  and  C_7
REMARK    2  A    between atoms: C_7  and  C_8
REMARK    3  A    between atoms: C_18  and  C_19
REMARK    4  A    between atoms: C_19  and  C_20
REMARK    5  A    between atoms: C_20  and  C_21
REMARK    6  A    between atoms: N_23  and  C_24
REMARK    7  A    between atoms: C_24  and  C_25
REMARK                            x       y       z     vdW  Elec       q    Type
REMARK                         _______ _______ _______ _____ _____    ______ ____
ROOT
ATOM      1  C   UNL     1      -1.484  -0.264  24.407  0.00  0.00    +0.090 C 
ATOM      2  N   UNL     1      -1.567   0.544  24.267  0.00  0.00    -0.271 NA
ATOM      3  C   UNL     1      -2.295   0.872  24.477  0.00  0.00    +0.083 C 
ATOM      4  C   UNL     1      -2.912   0.434  24.806  0.00  0.00    +0.035 C 
ATOM      5  C   UNL     1      -3.544   0.947  24.941  0.00  0.00    +0.074 C 
ATOM      6  N   UNL     1      -3.318   1.701  24.694  0.00  0.00    -0.260 NA
ATOM     13  C   UNL     1      -2.546   1.655  24.407  0.00  0.00    +0.152 C 
ATOM     14  C   UNL     1      -2.132   2.303  24.111  0.00  0.00    +0.257 C 
ATOM     15  O   UNL     1      -2.539   3.021  24.115  0.00  0.00    -0.272 OA
ATOM     16  N   UNL     1      -1.364   2.330  23.811  0.00  0.00    -0.203 NA
ATOM     17  C   UNL     1      -0.821   1.713  23.733  0.00  0.00    +0.131 C 
ATOM     18  C   UNL     1      -0.911   0.920  23.936  0.00  0.00    +0.080 C 
ENDROOT
BRANCH   6   7
ATOM      7  C   UNL     1      -3.783   2.382  24.728  0.00  0.00    +0.121 C 
BRANCH   7   8
ATOM      8  C   UNL     1      -4.573   2.330  24.960  0.00  0.00    +0.105 A 
ATOM      9  C   UNL     1      -4.896   2.633  25.655  0.00  0.00    +0.074 A 
ATOM     10  S   UNL     1      -5.701   2.455  25.661  0.00  0.00    +0.038 S 
ATOM     11  N   UNL     1      -5.877   2.043  24.968  0.00  0.00    -0.110 NA
ATOM     12  N   UNL     1      -5.179   1.965  24.535  0.00  0.00    -0.143 NA
ENDBRANCH   7   8
ENDBRANCH   6   7
BRANCH  18  19
ATOM     19  C   UNL     1      -0.259   0.435  23.788  0.00  0.00    +0.027 C 
BRANCH  19  20
ATOM     20  C   UNL     1       0.434   0.758  23.480  0.00  0.00    +0.088 C 
BRANCH  20  21
ATOM     21  C   UNL     1       0.995   0.269  23.125  0.00  0.00    +0.242 C 
ATOM     22  O   UNL     1       0.758  -0.431  22.757  0.00  0.00    -0.273 OA
ATOM     23  N   UNL     1       1.793   0.479  23.136  0.00  0.00    -0.201 NA
BRANCH  23  24
ATOM     24  C   UNL     1       2.354  -0.011  22.780  0.00  0.00    +0.141 C 
BRANCH  24  25
ATOM     25  C   UNL     1       3.158   0.133  22.893  0.00  0.00    -0.000 A 
ATOM     26  C   UNL     1       3.627  -0.427  23.276  0.00  0.00    -0.000 A 
ATOM     27  C   UNL     1       4.432  -0.283  23.389  0.00  0.00    +0.029 A 
ATOM     28  C   UNL     1       4.767   0.421  23.119  0.00  0.00    +0.140 A 
ATOM     29  F   UNL     1       5.571   0.565  23.232  0.00  0.00    -0.204 F 
ATOM     30  C   UNL     1       4.297   0.982  22.736  0.00  0.00    +0.029 A 
ATOM     31  C   UNL     1       3.493   0.837  22.624  0.00  0.00    -0.000 A 
ENDBRANCH  24  25
ENDBRANCH  23  24
ENDBRANCH  20  21
ENDBRANCH  19  20
ENDBRANCH  18  19
TORSDOF 7
ENDMDL
MODEL 2
REMARK VINA RESULT:      -7.7      3.825      5.208
REMARK  Name = 
REMARK  7 active torsions:
REMARK  status: ('A' for Active; 'I' for Inactive)
REMARK    1  A    between atoms: N_6  and  C_7
REMARK    2  A    between atoms: C_7  and  C_8
REMARK    3  A    between atoms: C_18  and  C_19
REMARK    4  A    between atoms: C_19  and  C_20
REMARK    5  A    between atoms: C_20  and  C_21
REMARK    6  A    between atoms: N_23  and  C_24
REMARK    7  A    between atoms: C_24  and  C_25
REMARK                            x       y       z     vdW  Elec       q    Type
REMARK                         _______ _______ _______ _____ _____    ______ ____
ROOT
ATOM      1  C   UNL     1      -0.678   0.860  23.641  0.00  0.00    +0.090 C 
ATOM      2  N   UNL     1      -0.654   1.153  24.412  0.00  0.00    -0.271 NA
ATOM      3  C   UNL     1      -0.689   1.974  24.485  0.00  0.00    +0.083 C 
ATOM      4  C   UNL     1      -0.745   2.486  23.840  0.00  0.00    +0.035 C 
ATOM      5  C   UNL     1      -0.766   3.258  24.129  0.00  0.00    +0.074 C 
ATOM      6  N   UNL     1      -0.724   3.224  24.952  0.00  0.00    -0.260 NA
ATOM     13  C   UNL     1      -0.676   2.431  25.172  0.00  0.00    +0.152 C 
ATOM     14  C   UNL     1      -0.625   2.179  25.956  0.00  0.00    +0.257 C 
ATOM     15  O   UNL     1      -0.625   2.776  26.525  0.00  0.00    -0.272 OA
ATOM     16  N   UNL     1      -0.575   1.409  26.246  0.00  0.00    -0.203 NA
ATOM     17  C   UNL     1      -0.563   0.699  25.824  0.00  0.00    +0.131 C 
ATOM     18  C   UNL     1      -0.598   0.586  25.009  0.00  0.00    +0.080 C 
ENDROOT
BRANCH   6   7
ATOM      7  C   UNL     1      -0.729   3.870  25.465  0.00  0.00    +0.121 C 
BRANCH   7   8
ATOM      8  C   UNL     1      -1.029   4.596  25.211  0.00  0.00    +0.105 A 
ATOM      9  C   UNL     1      -1.807   4.855  25.295  0.00  0.00    +0.074 A 
ATOM     10  S   UNL     1      -1.862   5.608  24.964  0.00  0.00    +0.038 S 
ATOM     11  N   UNL     1      -1.117   5.815  24.675  0.00  0.00    -0.110 NA
ATOM     12  N   UNL     1      -0.602   5.189  24.827  0.00  0.00    -0.143 NA
ENDBRANCH   7   8
ENDBRANCH   6   7
BRANCH  18  19
ATOM     19  C   UNL     1      -0.574  -0.199  24.754  0.00  0.00    +0.027 C 
BRANCH  19  20
ATOM     20  C   UNL     1      -0.742  -0.810  25.282  0.00  0.00    +0.088 C 
BRANCH  20  21
ATOM     21  C   UNL     1      -1.054  -1.521  25.005  0.00  0.00    +0.242 C 
ATOM     22  O   UNL     1      -0.553  -2.155  24.841  0.00  0.00    -0.273 OA
ATOM     23  N   UNL     1      -1.867  -1.599  24.891  0.00  0.00    -0.201 NA
BRANCH  23  24
ATOM     24  C   UNL     1      -2.180  -2.311  24.614  0.00  0.00    +0.141 C 
BRANCH  24  25
ATOM     25  C   UNL     1      -2.963  -2.347  24.361  0.00  0.00    -0.000 A 
ATOM     26  C   UNL     1      -3.379  -1.652  24.204  0.00  0.00    -0.000 A 
ATOM     27  C   UNL     1      -4.163  -1.687  23.950  0.00  0.00    +0.029 A 
ATOM     28  C   UNL     1      -4.532  -2.419  23.854  0.00  0.00    +0.140 A 
ATOM     29  F   UNL     1      -5.316  -2.456  23.601  0.00  0.00    -0.204 F 
ATOM     30  C   UNL     1      -4.117  -3.115  24.011  0.00  0.00    +0.029 A 
ATOM     31  C   UNL     1      -3.332  -3.078  24.265  0.00  0.00    -0.000 A 
ENDBRANCH  24  25
ENDBRANCH  23  24
ENDBRANCH  20  21
ENDBRANCH  19  20
ENDBRANCH  18  19
TORSDOF 7
ENDMDL
MODEL 3
REMARK VINA RESULT:      -7.3      3.190      6.868
REMARK  Name = 
REMARK  7 active torsions:
REMARK  status: ('A' for Active; 'I' for Inactive)
REMARK    1  A    between atoms: N_6  and  C_7
REMARK    2  A    between atoms: C_7  and  C_8
REMARK    3  A    between atoms: C_18  and  C_19
REMARK    4  A    between atoms: C_19  and  C_20
REMARK    5  A    between atoms: C_20  and  C_21
REMARK    6  A    between atoms: N_23  and  C_24
REMARK    7  A    between atoms: C_24  and  C_25
REMARK                            x       y       z     vdW  Elec       q    Type
REMARK                         _______ _______ _______ _____ _____    ______ ____
ROOT
ATOM      1  C   UNL     1      -0.634  -0.784  23.590  0.00  0.00    +0.090 C 
ATOM      2  N   UNL     1      -0.287  -0.056  23.765  0.00  0.00    -0.271 NA
ATOM      3  C   UNL     1       0.482   0.051  23.487  0.00  0.00    +0.083 C 
ATOM      4  C   UNL     1       0.895  -0.523  23.061  0.00  0.00    +0.035 C 
ATOM      5  C   UNL     1       1.640  -0.219  22.880  0.00  0.00    +0.074 C 
ATOM      6  N   UNL     1       1.689   0.542  23.195  0.00  0.00    -0.260 NA
ATOM     13  C   UNL     1       0.973   0.709  23.570  0.00  0.00    +0.152 C 
ATOM     14  C   UNL     1       0.815   1.423  23.951  0.00  0.00    +0.257 C 
ATOM     15  O   UNL     1       1.425   1.978  23.938  0.00  0.00    -0.272 OA
ATOM     16  N   UNL     1       0.128   1.656  24.343  0.00  0.00    -0.203 NA
ATOM     17  C   UNL     1      -0.572   1.231  24.451  0.00  0.00    +0.131 C 
ATOM     18  C   UNL     1      -0.756   0.470  24.194  0.00  0.00    +0.080 C 
ENDROOT
BRANCH   6   7
ATOM      7  C   UNL     1       2.338   1.048  23.144  0.00  0.00    +0.121 C 
BRANCH   7   8
ATOM      8  C   UNL     1       3.052   0.772  22.834  0.00  0.00    +0.105 A 
ATOM      9  C   UNL     1       3.749   0.647  23.256  0.00  0.00    +0.074 A 
ATOM     10  S   UNL     1       4.320   0.370  22.730  0.00  0.00    +0.038 S 
ATOM     11  N   UNL     1       3.975   0.323  21.981  0.00  0.00    -0.110 NA
ATOM     12  N   UNL     1       3.191   0.571  22.045  0.00  0.00    -0.143 NA
ENDBRANCH   7   8
ENDBRANCH   6   7
BRANCH  18  19
ATOM     19  C   UNL     1      -1.510   0.198  24.392  0.00  0.00    +0.027 C 
BRANCH  19  20
ATOM     20  C   UNL     1      -1.988   0.638  24.899  0.00  0.00    +0.088 C 
BRANCH  20  21
ATOM     21  C   UNL     1      -2.808   0.540  24.882  0.00  0.00    +0.242 C 
ATOM     22  O   UNL     1      -3.132  -0.217  24.839  0.00  0.00    -0.273 OA
ATOM     23  N   UNL     1      -3.302   1.199  24.909  0.00  0.00    -0.201 NA
BRANCH  23  24
ATOM     24  C   UNL     1      -4.122   1.102  24.892  0.00  0.00    +0.141 C 
BRANCH  24  25
ATOM     25  C   UNL     1      -4.617   1.737  25.069  0.00  0.00    -0.000 A 
ATOM     26  C   UNL     1      -5.357   1.602  25.404  0.00  0.00    -0.000 A 
ATOM     27  C   UNL     1      -5.853   2.237  25.581  0.00  0.00    +0.029 A 
ATOM     28  C   UNL     1      -5.607   3.009  25.422  0.00  0.00    +0.140 A 
ATOM     29  F   UNL     1      -6.102   3.645  25.599  0.00  0.00    -0.204 F 
ATOM     30  C   UNL     1      -4.865   3.144  25.087  0.00  0.00    +0.029 A 
ATOM     31  C   UNL     1      -4.370   2.508  24.910  0.00  0.00    -0.000 A 
ENDBRANCH  24  25
ENDBRANCH  23  24
ENDBRANCH  20  21
ENDBRANCH  19  20
ENDBRANCH  18  19
TORSDOF 7
ENDMDL
MODEL 4
REMARK VINA RESULT:      -6.5     16.592     17.202
REMARK  Name = 
REMARK  7 active torsions:
REMARK  status: ('A' for Active; 'I' for Inactive)
REMARK    1  A    between atoms: N_6  and  C_7
REMARK    2  A    between atoms: C_7  and  C_8
REMARK    3  A    between atoms: C_18  and  C_19
REMARK    4  A    between atoms: C_19  and  C_20
REMARK    5  A    between atoms: C_20  and  C_21
REMARK    6  A    between atoms: N_23  and  C_24
REMARK    7  A    between atoms: C_24  and  C_25
REMARK                            x       y       z     vdW  Elec       q    Type
REMARK                         _______ _______ _______ _____ _____    ______ ____
ROOT
ATOM      1  C   UNL     1      -5.383 -10.591  11.483  0.00  0.00    +0.090 C 
ATOM      2  N   UNL     1      -5.181  -9.986  10.960  0.00  0.00    -0.271 NA
ATOM      3  C   UNL     1      -5.805  -9.659  10.531  0.00  0.00    +0.083 C 
ATOM      4  C   UNL     1      -6.588  -9.908  10.607  0.00  0.00    +0.035 C 
ATOM      5  C   UNL     1      -7.050  -9.456  10.094  0.00  0.00    +0.074 C 
ATOM      6  N   UNL     1      -6.553  -8.927   9.702  0.00  0.00    -0.260 NA
ATOM     13  C   UNL     1      -5.784  -9.053   9.972  0.00  0.00    +0.152 C 
ATOM     14  C   UNL     1      -5.133  -8.624   9.704  0.00  0.00    +0.257 C 
ATOM     15  O   UNL     1      -5.293  -8.047   9.136  0.00  0.00    -0.272 OA
ATOM     16  N   UNL     1      -4.342  -8.695   9.928  0.00  0.00    -0.203 NA
ATOM     17  C   UNL     1      -4.008  -9.213  10.477  0.00  0.00    +0.131 C 
ATOM     18  C   UNL     1      -4.381  -9.787  10.936  0.00  0.00    +0.080 C 
ENDROOT
BRANCH   6   7
ATOM      7  C   UNL     1      -6.785  -8.371   9.138  0.00  0.00    +0.121 C 
BRANCH   7   8
ATOM      8  C   UNL     1      -7.586  -8.256   8.978  0.00  0.00    +0.105 A 
ATOM      9  C   UNL     1      -7.982  -8.486   8.293  0.00  0.00    +0.074 A 
ATOM     10  S   UNL     1      -8.773  -8.262   8.368  0.00  0.00    +0.038 S 
ATOM     11  N   UNL     1      -8.865  -7.893   9.101  0.00  0.00    -0.110 NA
ATOM     12  N   UNL     1      -8.131  -7.889   9.478  0.00  0.00    -0.143 NA
ENDBRANCH   7   8
ENDBRANCH   6   7
BRANCH  18  19
ATOM     19  C   UNL     1      -3.889 -10.221  11.437  0.00  0.00    +0.027 C 
BRANCH  19  20
ATOM     20  C   UNL     1      -3.223  -9.867  11.769  0.00  0.00    +0.088 C 
BRANCH  20  21
ATOM     21  C   UNL     1      -2.700 -10.316  12.224  0.00  0.00    +0.242 C 
ATOM     22  O   UNL     1      -2.117 -10.767  11.854  0.00  0.00    -0.273 OA
ATOM     23  N   UNL     1      -2.760 -10.313  13.046  0.00  0.00    -0.201 NA
BRANCH  23  24
ATOM     24  C   UNL     1      -2.237 -10.762  13.500  0.00  0.00    +0.141 C 
BRANCH  24  25
ATOM     25  C   UNL     1      -2.206 -10.658  14.317  0.00  0.00    -0.000 A 
ATOM     26  C   UNL     1      -1.500 -10.432  14.678  0.00  0.00    -0.000 A 
ATOM     27  C   UNL     1      -1.469 -10.328  15.496  0.00  0.00    +0.029 A 
ATOM     28  C   UNL     1      -2.145 -10.450  15.953  0.00  0.00    +0.140 A 
ATOM     29  F   UNL     1      -2.114 -10.346  16.771  0.00  0.00    -0.204 F 
ATOM     30  C   UNL     1      -2.852 -10.676  15.592  0.00  0.00    +0.029 A 
ATOM     31  C   UNL     1      -2.882 -10.780  14.774  0.00  0.00    -0.000 A 
ENDBRANCH  24  25
ENDBRANCH  23  24
ENDBRANCH  20  21
ENDBRANCH  19  20
ENDBRANCH  18  19
TORSDOF 7
ENDMDL
MODEL 5
REMARK VINA RESULT:      -6.2     15.519     16.793
REMARK  Name = 
REMARK  7 active torsions:
REMARK  status: ('A' for Active; 'I' for Inactive)
REMARK    1  A    between atoms: N_6  and  C_7
REMARK    2  A    between atoms: C_7  and  C_8
REMARK    3  A    between atoms: C_18  and  C_19
REMARK    4  A    between atoms: C_19  and  C_20
REMARK    5  A    between atoms: C_20  and  C_21
REMARK    6  A    between atoms: N_23  and  C_24
REMARK    7  A    between atoms: C_24  and  C_25
REMARK                            x       y       z     vdW  Elec       q    Type
REMARK                         _______ _______ _______ _____ _____    ______ ____
ROOT
ATOM      1  C   UNL     1      -7.132  -9.615  13.065  0.00  0.00    +0.090 C 
ATOM      2  N   UNL     1      -6.327  -9.795  13.050  0.00  0.00    -0.271 NA
ATOM      3  C   UNL     1      -5.957  -9.726  12.316  0.00  0.00    +0.083 C 
ATOM      4  C   UNL     1      -6.351  -9.494  11.629  0.00  0.00    +0.035 C 
ATOM      5  C   UNL     1      -5.805  -9.489  11.011  0.00  0.00    +0.074 C 
ATOM      6  N   UNL     1      -5.074  -9.719  11.315  0.00  0.00    -0.260 NA
ATOM     13  C   UNL     1      -5.168  -9.865  12.122  0.00  0.00    +0.152 C 
ATOM     14  C   UNL     1      -4.552 -10.107  12.614  0.00  0.00    +0.257 C 
ATOM     15  O   UNL     1      -3.817 -10.198  12.251  0.00  0.00    -0.272 OA
ATOM     16  N   UNL     1      -4.574 -10.270  13.423  0.00  0.00    -0.203 NA
ATOM     17  C   UNL     1      -5.218 -10.231  13.938  0.00  0.00    +0.131 C 
ATOM     18  C   UNL     1      -5.997 -10.020  13.773  0.00  0.00    +0.080 C 
ENDROOT
BRANCH   6   7
ATOM      7  C   UNL     1      -4.371  -9.789  10.888  0.00  0.00    +0.121 C 
BRANCH   7   8
ATOM      8  C   UNL     1      -4.367  -9.648  10.075  0.00  0.00    +0.105 A 
ATOM      9  C   UNL     1      -4.530 -10.200   9.485  0.00  0.00    +0.074 A 
ATOM     10  S   UNL     1      -4.463  -9.821   8.756  0.00  0.00    +0.038 S 
ATOM     11  N   UNL     1      -4.259  -9.034   8.895  0.00  0.00    -0.110 NA
ATOM     12  N   UNL     1      -4.200  -8.926   9.711  0.00  0.00    -0.143 NA
ENDBRANCH   7   8
ENDBRANCH   6   7
BRANCH  18  19
ATOM     19  C   UNL     1      -6.517 -10.035  14.413  0.00  0.00    +0.027 C 
BRANCH  19  20
ATOM     20  C   UNL     1      -6.247 -10.264  15.158  0.00  0.00    +0.088 C 
BRANCH  20  21
ATOM     21  C   UNL     1      -6.753 -10.230  15.809  0.00  0.00    +0.242 C 
ATOM     22  O   UNL     1      -7.557 -10.081  15.698  0.00  0.00    -0.273 OA
ATOM     23  N   UNL     1      -6.456 -10.344  16.569  0.00  0.00    -0.201 NA
BRANCH  23  24
ATOM     24  C   UNL     1      -6.962 -10.310  17.220  0.00  0.00    +0.141 C 
BRANCH  24  25
ATOM     25  C   UNL     1      -6.666 -10.427  17.981  0.00  0.00    -0.000 A 
ATOM     26  C   UNL     1      -7.177 -10.425  18.628  0.00  0.00    -0.000 A 
ATOM     27  C   UNL     1      -6.880 -10.542  19.389  0.00  0.00    +0.029 A 
ATOM     28  C   UNL     1      -6.072 -10.661  19.502  0.00  0.00    +0.140 A 
ATOM     29  F   UNL     1      -5.774 -10.778  20.262  0.00  0.00    -0.204 F 
ATOM     30  C   UNL     1      -5.560 -10.662  18.854  0.00  0.00    +0.029 A 
ATOM     31  C   UNL     1      -5.857 -10.545  18.094  0.00  0.00    -0.000 A 
ENDBRANCH  24  25
ENDBRANCH  23  24
ENDBRANCH  20  21
ENDBRANCH  19  20
ENDBRANCH  18  19
TORSDOF 7
ENDMDL
MODEL 6
REMARK VINA RESULT:      -5.9     14.803     16.219
REMARK  Name = 
REMARK  7 active torsions:
REMARK  status: ('A' for Active; 'I' for Inactive)
REMARK    1  A    between atoms: N_6  and  C_7
REMARK    2  A    between atoms: C_7  and  C_8
REMARK    3  A    between atoms: C_18  and  C_19
REMARK    4  A    between atoms: C_19  and  C_20
REMARK    5  A    between atoms: C_20  and  C_21
REMARK    6  A    between atoms: N_23  and  C_24
REMARK    7  A    between atoms: C_24  and  C_25
REMARK                            x       y       z     vdW  Elec       q    Type
REMARK                         _______ _______ _______ _____ _____    ______ ____
ROOT
ATOM      1  C   UNL     1      -4.981 -10.675  14.559  0.00  0.00    +0.090 C 
ATOM      2  N   UNL     1      -4.183 -10.619  14.358  0.00  0.00    -0.271 NA
ATOM      3  C   UNL     1      -4.022 -10.513  13.556  0.00  0.00    +0.083 C 
ATOM      4  C   UNL     1      -4.609 -10.465  12.977  0.00  0.00    +0.035 C 
ATOM      5  C   UNL     1      -4.239 -10.360  12.247  0.00  0.00    +0.074 C 
ATOM      6  N   UNL     1      -3.424 -10.344  12.374  0.00  0.00    -0.260 NA
ATOM     13  C   UNL     1      -3.290 -10.438  13.183  0.00  0.00    +0.152 C 
ATOM     14  C   UNL     1      -2.538 -10.450  13.520  0.00  0.00    +0.257 C 
ATOM     15  O   UNL     1      -1.908 -10.361  12.995  0.00  0.00    -0.272 OA
ATOM     16  N   UNL     1      -2.331 -10.540  14.314  0.00  0.00    -0.203 NA
ATOM     17  C   UNL     1      -2.827 -10.641  14.966  0.00  0.00    +0.131 C 
ATOM     18  C   UNL     1      -3.650 -10.676  14.986  0.00  0.00    +0.080 C 
ENDROOT
BRANCH   6   7
ATOM      7  C   UNL     1      -2.844 -10.249  11.795  0.00  0.00    +0.121 C 
BRANCH   7   8
ATOM      8  C   UNL     1      -3.055  -9.989  11.040  0.00  0.00    +0.105 A 
ATOM      9  C   UNL     1      -3.583 -10.361  10.528  0.00  0.00    +0.074 A 
ATOM     10  S   UNL     1      -3.629  -9.913   9.838  0.00  0.00    +0.038 S 
ATOM     11  N   UNL     1      -3.128  -9.262   9.923  0.00  0.00    -0.110 NA
ATOM     12  N   UNL     1      -2.773  -9.309  10.666  0.00  0.00    -0.143 NA
ENDBRANCH   7   8
ENDBRANCH   6   7
BRANCH  18  19
ATOM     19  C   UNL     1      -3.987 -10.781  15.732  0.00  0.00    +0.027 C 
BRANCH  19  20
ATOM     20  C   UNL     1      -3.778 -10.282  16.354  0.00  0.00    +0.088 C 
BRANCH  20  21
ATOM     21  C   UNL     1      -3.890 -10.525  17.134  0.00  0.00    +0.242 C 
ATOM     22  O   UNL     1      -3.246 -10.781  17.582  0.00  0.00    -0.273 OA
ATOM     23  N   UNL     1      -4.644 -10.513  17.467  0.00  0.00    -0.201 NA
BRANCH  23  24
ATOM     24  C   UNL     1      -4.756 -10.757  18.247  0.00  0.00    +0.141 C 
BRANCH  24  25
ATOM     25  C   UNL     1      -5.506 -10.720  18.588  0.00  0.00    -0.000 A 
ATOM     26  C   UNL     1      -5.584 -10.652  19.406  0.00  0.00    -0.000 A 
ATOM     27  C   UNL     1      -6.335 -10.616  19.747  0.00  0.00    +0.029 A 
ATOM     28  C   UNL     1      -7.007 -10.648  19.269  0.00  0.00    +0.140 A 
ATOM     29  F   UNL     1      -7.757 -10.612  19.610  0.00  0.00    -0.204 F 
ATOM     30  C   UNL     1      -6.928 -10.716  18.450  0.00  0.00    +0.029 A 
ATOM     31  C   UNL     1      -6.177 -10.752  18.110  0.00  0.00    -0.000 A 
ENDBRANCH  24  25
ENDBRANCH  23  24
ENDBRANCH  20  21
ENDBRANCH  19  20
ENDBRANCH  18  19
TORSDOF 7
ENDMDL
MODEL 7
REMARK VINA RESULT:      -5.9     15.282     16.804
REMARK  Name = 
REMARK  7 active torsions:
REMARK  status: ('A' for Active; 'I' for Inactive)
REMARK    1  A    between atoms: N_6  and  C_7
REMARK    2  A    between atoms: C_7  and  C_8
REMARK    3  A    between atoms: C_18  and  C_19
REMARK    4  A    between atoms: C_19  and  C_20
REMARK    5  A    between atoms: C_20  and  C_21
REMARK    6  A    between atoms: N_23  and  C_24
REMARK    7  A    between atoms: C_24  and  C_25
REMARK                            x       y       z     vdW  Elec       q    Type
REMARK                         _______ _______ _______ _____ _____    ______ ____
ROOT
ATOM      1  C   UNL     1      -6.772 -10.054  13.866  0.00  0.00    +0.090 C 
ATOM      2  N   UNL     1      -5.959 -10.176  13.940  0.00  0.00    -0.271 NA
ATOM      3  C   UNL     1      -5.530 -10.165  13.235  0.00  0.00    +0.083 C 
ATOM      4  C   UNL     1      -5.874 -10.041  12.495  0.00  0.00    +0.035 C 
ATOM      5  C   UNL     1      -5.276 -10.068  11.928  0.00  0.00    +0.074 C 
ATOM      6  N   UNL     1      -4.561 -10.208  12.317  0.00  0.00    -0.260 NA
ATOM     13  C   UNL     1      -4.719 -10.268  13.125  0.00  0.00    +0.152 C 
ATOM     14  C   UNL     1      -4.137 -10.407  13.692  0.00  0.00    +0.257 C 
ATOM     15  O   UNL     1      -3.367 -10.486  13.404  0.00  0.00    -0.272 OA
ATOM     16  N   UNL     1      -4.221 -10.478  14.509  0.00  0.00    -0.203 NA
ATOM     17  C   UNL     1      -4.910 -10.428  14.962  0.00  0.00    +0.131 C 
ATOM     18  C   UNL     1      -5.682 -10.293  14.708  0.00  0.00    +0.080 C 
ENDROOT
BRANCH   6   7
ATOM      7  C   UNL     1      -3.820 -10.276  11.961  0.00  0.00    +0.121 C 
BRANCH   7   8
ATOM      8  C   UNL     1      -3.744 -10.176  11.146  0.00  0.00    +0.105 A 
ATOM      9  C   UNL     1      -3.538  -9.477  10.759  0.00  0.00    +0.074 A 
ATOM     10  S   UNL     1      -3.528  -9.628   9.948  0.00  0.00    +0.038 S 
ATOM     11  N   UNL     1      -3.729 -10.420   9.833  0.00  0.00    -0.110 NA
ATOM     12  N   UNL     1      -3.863 -10.759  10.574  0.00  0.00    -0.143 NA
ENDBRANCH   7   8
ENDBRANCH   6   7
BRANCH  18  19
ATOM     19  C   UNL     1      -6.256 -10.273  15.301  0.00  0.00    +0.027 C 
BRANCH  19  20
ATOM     20  C   UNL     1      -6.112  -9.861  16.001  0.00  0.00    +0.088 C 
BRANCH  20  21
ATOM     21  C   UNL     1      -6.607  -9.968  16.653  0.00  0.00    +0.242 C 
ATOM     22  O   UNL     1      -6.429 -10.544  17.215  0.00  0.00    -0.273 OA
ATOM     23  N   UNL     1      -7.280  -9.500  16.742  0.00  0.00    -0.201 NA
BRANCH  23  24
ATOM     24  C   UNL     1      -7.775  -9.607  17.393  0.00  0.00    +0.141 C 
BRANCH  24  25
ATOM     25  C   UNL     1      -8.510  -9.235  17.418  0.00  0.00    -0.000 A 
ATOM     26  C   UNL     1      -8.584  -8.449  17.183  0.00  0.00    -0.000 A 
ATOM     27  C   UNL     1      -9.320  -8.076  17.208  0.00  0.00    +0.029 A 
ATOM     28  C   UNL     1      -9.983  -8.492  17.469  0.00  0.00    +0.140 A 
ATOM     29  F   UNL     1     -10.719  -8.122  17.494  0.00  0.00    -0.204 F 
ATOM     30  C   UNL     1      -9.910  -9.280  17.704  0.00  0.00    +0.029 A 
ATOM     31  C   UNL     1      -9.173  -9.651  17.679  0.00  0.00    -0.000 A 
ENDBRANCH  24  25
ENDBRANCH  23  24
ENDBRANCH  20  21
ENDBRANCH  19  20
ENDBRANCH  18  19
TORSDOF 7
ENDMDL
MODEL 8
REMARK VINA RESULT:      -5.8     16.922     17.448
REMARK  Name = 
REMARK  7 active torsions:
REMARK  status: ('A' for Active; 'I' for Inactive)
REMARK    1  A    between atoms: N_6  and  C_7
REMARK    2  A    between atoms: C_7  and  C_8
REMARK    3  A    between atoms: C_18  and  C_19
REMARK    4  A    between atoms: C_19  and  C_20
REMARK    5  A    between atoms: C_20  and  C_21
REMARK    6  A    between atoms: N_23  and  C_24
REMARK    7  A    between atoms: C_24  and  C_25
REMARK                            x       y       z     vdW  Elec       q    Type
REMARK                         _______ _______ _______ _____ _____    ______ ____
ROOT
ATOM      1  C   UNL     1      -5.323  -9.282  11.462  0.00  0.00    +0.090 C 
ATOM      2  N   UNL     1      -5.393  -9.197  10.644  0.00  0.00    -0.271 NA
ATOM      3  C   UNL     1      -6.152  -9.033  10.365  0.00  0.00    +0.083 C 
ATOM      4  C   UNL     1      -6.810  -8.955  10.856  0.00  0.00    +0.035 C 
ATOM      5  C   UNL     1      -7.465  -8.793  10.381  0.00  0.00    +0.074 C 
ATOM      6  N   UNL     1      -7.211  -8.770   9.596  0.00  0.00    -0.260 NA
ATOM     13  C   UNL     1      -6.400  -8.918   9.586  0.00  0.00    +0.152 C 
ATOM     14  C   UNL     1      -5.950  -8.939   8.895  0.00  0.00    +0.257 C 
ATOM     15  O   UNL     1      -6.363  -8.801   8.194  0.00  0.00    -0.272 OA
ATOM     16  N   UNL     1      -5.142  -9.081   8.811  0.00  0.00    -0.203 NA
ATOM     17  C   UNL     1      -4.583  -9.235   9.399  0.00  0.00    +0.131 C 
ATOM     18  C   UNL     1      -4.695  -9.287  10.214  0.00  0.00    +0.080 C 
ENDROOT
BRANCH   6   7
ATOM      7  C   UNL     1      -7.686  -8.624   8.937  0.00  0.00    +0.121 C 
BRANCH   7   8
ATOM      8  C   UNL     1      -8.471  -8.393   9.038  0.00  0.00    +0.105 A 
ATOM      9  C   UNL     1      -9.129  -8.890   9.026  0.00  0.00    +0.074 A 
ATOM     10  S   UNL     1      -9.801  -8.427   9.149  0.00  0.00    +0.038 S 
ATOM     11  N   UNL     1      -9.557  -7.643   9.239  0.00  0.00    -0.110 NA
ATOM     12  N   UNL     1      -8.736  -7.622   9.170  0.00  0.00    -0.143 NA
ENDBRANCH   7   8
ENDBRANCH   6   7
BRANCH  18  19
ATOM     19  C   UNL     1      -4.020  -9.451  10.659  0.00  0.00    +0.027 C 
BRANCH  19  20
ATOM     20  C   UNL     1      -3.279  -9.461  10.297  0.00  0.00    +0.088 C 
BRANCH  20  21
ATOM     21  C   UNL     1      -2.621  -9.738  10.711  0.00  0.00    +0.242 C 
ATOM     22  O   UNL     1      -2.608 -10.512  10.995  0.00  0.00    -0.273 OA
ATOM     23  N   UNL     1      -1.976  -9.241  10.840  0.00  0.00    -0.201 NA
BRANCH  23  24
ATOM     24  C   UNL     1      -1.317  -9.518  11.254  0.00  0.00    +0.141 C 
BRANCH  24  25
ATOM     25  C   UNL     1      -0.688  -9.010  11.416  0.00  0.00    -0.000 A 
ATOM     26  C   UNL     1      -0.698  -8.546  12.097  0.00  0.00    -0.000 A 
ATOM     27  C   UNL     1      -0.068  -8.038  12.260  0.00  0.00    +0.029 A 
ATOM     28  C   UNL     1       0.571  -7.994  11.740  0.00  0.00    +0.140 A 
ATOM     29  F   UNL     1       1.200  -7.486  11.902  0.00  0.00    -0.204 F 
ATOM     30  C   UNL     1       0.580  -8.458  11.057  0.00  0.00    +0.029 A 
ATOM     31  C   UNL     1      -0.049  -8.966  10.896  0.00  0.00    -0.000 A 
ENDBRANCH  24  25
ENDBRANCH  23  24
ENDBRANCH  20  21
ENDBRANCH  19  20
ENDBRANCH  18  19
TORSDOF 7
ENDMDL
MODEL 9
REMARK VINA RESULT:      -5.5     16.301     17.139
REMARK  Name = 
REMARK  7 active torsions:
REMARK  status: ('A' for Active; 'I' for Inactive)
REMARK    1  A    between atoms: N_6  and  C_7
REMARK    2  A    between atoms: C_7  and  C_8
REMARK    3  A    between atoms: C_18  and  C_19
REMARK    4  A    between atoms: C_19  and  C_20
REMARK    5  A    between atoms: C_20  and  C_21
REMARK    6  A    between atoms: N_23  and  C_24
REMARK    7  A    between atoms: C_24  and  C_25
REMARK                            x       y       z     vdW  Elec       q    Type
REMARK                         _______ _______ _______ _____ _____    ______ ____
ROOT
ATOM      1  C   UNL     1      -7.449 -10.399  12.612  0.00  0.00    +0.090 C 
ATOM      2  N   UNL     1      -6.975  -9.915  12.141  0.00  0.00    -0.271 NA
ATOM      3  C   UNL     1      -7.332  -9.618  11.460  0.00  0.00    +0.083 C 
ATOM      4  C   UNL     1      -8.112  -9.783  11.246  0.00  0.00    +0.035 C 
ATOM      5  C   UNL     1      -8.271  -9.392  10.538  0.00  0.00    +0.074 C 
ATOM      6  N   UNL     1      -7.589  -8.984  10.313  0.00  0.00    -0.260 NA
ATOM     13  C   UNL     1      -7.009  -9.124  10.883  0.00  0.00    +0.152 C 
ATOM     14  C   UNL     1      -6.249  -8.806  10.845  0.00  0.00    +0.257 C 
ATOM     15  O   UNL     1      -6.093  -8.328  10.191  0.00  0.00    -0.272 OA
ATOM     16  N   UNL     1      -5.624  -8.903  11.375  0.00  0.00    -0.203 NA
ATOM     17  C   UNL     1      -5.606  -9.342  12.074  0.00  0.00    +0.131 C 
ATOM     18  C   UNL     1      -6.206  -9.792  12.414  0.00  0.00    +0.080 C 
ENDROOT
BRANCH   6   7
ATOM      7  C   UNL     1      -7.503  -8.519   9.637  0.00  0.00    +0.121 C 
BRANCH   7   8
ATOM      8  C   UNL     1      -8.128  -8.448   9.104  0.00  0.00    +0.105 A 
ATOM      9  C   UNL     1      -8.644  -7.808   9.043  0.00  0.00    +0.074 A 
ATOM     10  S   UNL     1      -9.182  -7.970   8.439  0.00  0.00    +0.038 S 
ATOM     11  N   UNL     1      -8.998  -8.711   8.126  0.00  0.00    -0.110 NA
ATOM     12  N   UNL     1      -8.346  -9.007   8.536  0.00  0.00    -0.143 NA
ENDBRANCH   7   8
ENDBRANCH   6   7
BRANCH  18  19
ATOM     19  C   UNL     1      -6.013 -10.170  13.122  0.00  0.00    +0.027 C 
BRANCH  19  20
ATOM     20  C   UNL     1      -5.493  -9.813  13.653  0.00  0.00    +0.088 C 
BRANCH  20  21
ATOM     21  C   UNL     1      -5.095 -10.270  14.213  0.00  0.00    +0.242 C 
ATOM     22  O   UNL     1      -4.493 -10.781  13.974  0.00  0.00    -0.273 OA
ATOM     23  N   UNL     1      -5.299 -10.216  15.010  0.00  0.00    -0.201 NA
BRANCH  23  24
ATOM     24  C   UNL     1      -4.901 -10.674  15.570  0.00  0.00    +0.141 C 
BRANCH  24  25
ATOM     25  C   UNL     1      -5.067 -10.582  16.372  0.00  0.00    -0.000 A 
ATOM     26  C   UNL     1      -4.453 -10.556  16.921  0.00  0.00    -0.000 A 
ATOM     27  C   UNL     1      -4.619 -10.464  17.724  0.00  0.00    +0.029 A 
ATOM     28  C   UNL     1      -5.402 -10.399  17.977  0.00  0.00    +0.140 A 
ATOM     29  F   UNL     1      -5.570 -10.307  18.780  0.00  0.00    -0.204 F 
ATOM     30  C   UNL     1      -6.018 -10.425  17.428  0.00  0.00    +0.029 A 
ATOM     31  C   UNL     1      -5.850 -10.516  16.625  0.00  0.00    -0.000 A 
ENDBRANCH  24  25
ENDBRANCH  23  24
ENDBRANCH  20  21
ENDBRANCH  19  20
ENDBRANCH  18  19
TORSDOF 7
ENDMDL
