MODEL 1
REMARK VINA RESULT:     -18.9      0.000      0.000
REMARK  Name = 
REMARK  2 active torsions:
REMARK  status: ('A' for Active; 'I' for Inactive)
REMARK    1  A    between atoms: C_7  and  N_10
REMARK    2  A    between atoms: C_19  and  C_24
REMARK                            x       y       z     vdW  Elec       q    Type
REMARK                         _______ _______ _______ _____ _____    ______ ____
ROOT
ATOM     10  N   UNL     1      -2.942   2.664  24.634  0.00  0.00    -0.273 NA
ATOM     11  C   UNL     1      -3.010   3.495  24.579  0.00  0.00    +0.074 C 
ATOM     12  C   UNL     1      -3.982   3.592  24.730  0.00  0.00    +0.039 C 
ATOM     13  C   UNL     1      -4.751   3.837  24.836  0.00  0.00    +0.011 C 
ATOM     14  C   UNL     1      -4.397   3.232  24.826  0.00  0.00    +0.054 C 
ATOM     15  C   UNL     1      -3.457   3.155  24.679  0.00  0.00    +0.078 C 
ATOM     16  C   UNL     1      -4.516   2.325  24.917  0.00  0.00    +0.041 A 
ATOM     17  C   UNL     1      -5.108   1.768  25.058  0.00  0.00    +0.013 A 
ATOM     18  C   UNL     1      -4.919   0.966  25.091  0.00  0.00    +0.006 A 
ATOM     19  C   UNL     1      -4.139   0.720  24.983  0.00  0.00    +0.056 A 
ATOM     20  C   UNL     1      -3.547   1.277  24.842  0.00  0.00    +0.261 A 
ATOM     21  O   UNL     1      -3.053   0.618  24.814  0.00  0.00    -0.267 OA
ATOM     22  N   UNL     1      -3.736   2.080  24.809  0.00  0.00    -0.299 N 
ATOM     23  C   UNL     1      -4.097   2.643  24.824  0.00  0.00    +0.110 C 
ENDROOT
BRANCH  19  24
ATOM     24  C   UNL     1      -3.951  -0.082  25.016  0.00  0.00    +0.005 A 
ATOM     25  C   UNL     1      -3.563  -0.388  25.677  0.00  0.00    +0.000 A 
ATOM     26  C   UNL     1      -3.375  -1.190  25.710  0.00  0.00    +0.000 A 
ATOM     27  C   UNL     1      -3.575  -1.687  25.083  0.00  0.00    +0.000 A 
ATOM     28  C   UNL     1      -3.386  -2.490  25.117  0.00  0.00    +0.000 A 
ATOM     29  C   UNL     1      -3.587  -2.987  24.489  0.00  0.00    +0.000 A 
ATOM     30  C   UNL     1      -3.975  -2.682  23.829  0.00  0.00    +0.000 A 
ATOM     31  C   UNL     1      -4.163  -1.879  23.795  0.00  0.00    +0.000 A 
ATOM     32  C   UNL     1      -3.963  -1.382  24.422  0.00  0.00    +0.000 A 
ATOM     33  C   UNL     1      -4.151  -0.579  24.389  0.00  0.00    +0.000 A 
ENDBRANCH  19  24
BRANCH  10   7
ATOM      1  C   UNL     1      -1.216  -0.625  25.337  0.00  0.00    +0.095 C 
ATOM      2  C   UNL     1      -1.519  -0.313  24.637  0.00  0.00    +0.226 C 
ATOM      3  O   UNL     1      -1.466  -0.746  23.936  0.00  0.00    -0.275 OA
ATOM      4  N   UNL     1      -1.875   0.431  24.635  0.00  0.00    -0.279 N 
ATOM      5  C   UNL     1      -2.178   0.743  23.935  0.00  0.00    +0.095 C 
ATOM      6  C   UNL     1      -2.533   1.487  23.933  0.00  0.00    +0.038 C 
ATOM      7  C   UNL     1      -2.586   1.920  24.634  0.00  0.00    +0.061 C 
ATOM      8  C   UNL     1      -2.283   1.608  25.335  0.00  0.00    +0.038 C 
ATOM      9  C   UNL     1      -1.927   0.863  25.336  0.00  0.00    +0.095 C 
ENDBRANCH  10   7
TORSDOF 2
ENDMDL
MODEL 2
REMARK VINA RESULT:     -17.8      0.978      3.976
REMARK  Name = 
REMARK  2 active torsions:
REMARK  status: ('A' for Active; 'I' for Inactive)
REMARK    1  A    between atoms: C_7  and  N_10
REMARK    2  A    between atoms: C_19  and  C_24
REMARK                            x       y       z     vdW  Elec       q    Type
REMARK                         _______ _______ _______ _____ _____    ______ ____
ROOT
ATOM     10  N   UNL     1      -2.067  -1.483  24.789  0.00  0.00    -0.273 NA
ATOM     11  C   UNL     1      -1.923  -2.302  24.868  0.00  0.00    +0.074 C 
ATOM     12  C   UNL     1      -2.816  -2.651  24.630  0.00  0.00    +0.039 C 
ATOM     13  C   UNL     1      -3.481  -3.090  24.461  0.00  0.00    +0.011 C 
ATOM     14  C   UNL     1      -3.298  -2.413  24.481  0.00  0.00    +0.054 C 
ATOM     15  C   UNL     1      -2.429  -2.091  24.714  0.00  0.00    +0.078 C 
ATOM     16  C   UNL     1      -3.638  -1.570  24.345  0.00  0.00    +0.041 A 
ATOM     17  C   UNL     1      -4.336  -1.188  24.128  0.00  0.00    +0.013 A 
ATOM     18  C   UNL     1      -4.359  -0.365  24.083  0.00  0.00    +0.006 A 
ATOM     19  C   UNL     1      -3.684   0.077  24.255  0.00  0.00    +0.056 A 
ATOM     20  C   UNL     1      -2.986  -0.305  24.472  0.00  0.00    +0.261 A 
ATOM     21  O   UNL     1      -2.684   0.461  24.522  0.00  0.00    -0.267 OA
ATOM     22  N   UNL     1      -2.963  -1.128  24.517  0.00  0.00    -0.299 N 
ATOM     23  C   UNL     1      -3.162  -1.766  24.490  0.00  0.00    +0.110 C 
ENDROOT
BRANCH  19  24
ATOM     24  C   UNL     1      -3.708   0.900  24.210  0.00  0.00    +0.005 A 
ATOM     25  C   UNL     1      -3.343   1.289  23.580  0.00  0.00    +0.000 A 
ATOM     26  C   UNL     1      -3.366   2.112  23.534  0.00  0.00    +0.000 A 
ATOM     27  C   UNL     1      -3.754   2.546  24.118  0.00  0.00    +0.000 A 
ATOM     28  C   UNL     1      -3.778   3.371  24.072  0.00  0.00    +0.000 A 
ATOM     29  C   UNL     1      -4.167   3.805  24.656  0.00  0.00    +0.000 A 
ATOM     30  C   UNL     1      -4.531   3.416  25.285  0.00  0.00    +0.000 A 
ATOM     31  C   UNL     1      -4.508   2.593  25.331  0.00  0.00    +0.000 A 
ATOM     32  C   UNL     1      -4.120   2.159  24.747  0.00  0.00    +0.000 A 
ATOM     33  C   UNL     1      -4.096   1.334  24.793  0.00  0.00    +0.000 A 
ENDBRANCH  19  24
BRANCH  10   7
ATOM      1  C   UNL     1      -1.193   2.136  24.127  0.00  0.00    +0.095 C 
ATOM      2  C   UNL     1      -1.469   1.763  24.808  0.00  0.00    +0.226 C 
ATOM      3  O   UNL     1      -1.596   2.202  25.496  0.00  0.00    -0.275 OA
ATOM      4  N   UNL     1      -1.619   0.952  24.804  0.00  0.00    -0.279 N 
ATOM      5  C   UNL     1      -1.895   0.579  25.485  0.00  0.00    +0.095 C 
ATOM      6  C   UNL     1      -2.044  -0.232  25.481  0.00  0.00    +0.038 C 
ATOM      7  C   UNL     1      -1.917  -0.671  24.794  0.00  0.00    +0.061 C 
ATOM      8  C   UNL     1      -1.641  -0.299  24.112  0.00  0.00    +0.038 C 
ATOM      9  C   UNL     1      -1.491   0.513  24.116  0.00  0.00    +0.095 C 
ENDBRANCH  10   7
TORSDOF 2
ENDMDL
MODEL 3
REMARK VINA RESULT:     -17.0      1.306      2.903
REMARK  Name = 
REMARK  2 active torsions:
REMARK  status: ('A' for Active; 'I' for Inactive)
REMARK    1  A    between atoms: C_7  and  N_10
REMARK    2  A    between atoms: C_19  and  C_24
REMARK                            x       y       z     vdW  Elec       q    Type
REMARK                         _______ _______ _______ _____ _____    ______ ____
ROOT
ATOM     10  N   UNL     1      -2.619   4.207  25.214  0.00  0.00    -0.273 NA
ATOM     11  C   UNL     1      -2.254   4.946  25.353  0.00  0.00    +0.074 C 
ATOM     12  C   UNL     1      -1.321   4.715  25.122  0.00  0.00    +0.039 C 
ATOM     13  C   UNL     1      -0.521   4.687  24.972  0.00  0.00    +0.011 C 
ATOM     14  C   UNL     1      -1.069   4.249  24.949  0.00  0.00    +0.054 C 
ATOM     15  C   UNL     1      -1.966   4.487  25.175  0.00  0.00    +0.078 C 
ATOM     16  C   UNL     1      -1.289   3.379  24.748  0.00  0.00    +0.041 A 
ATOM     17  C   UNL     1      -0.945   2.674  24.493  0.00  0.00    +0.013 A 
ATOM     18  C   UNL     1      -1.411   2.002  24.391  0.00  0.00    +0.006 A 
ATOM     19  C   UNL     1      -2.221   2.033  24.544  0.00  0.00    +0.056 A 
ATOM     20  C   UNL     1      -2.565   2.738  24.800  0.00  0.00    +0.261 A 
ATOM     21  O   UNL     1      -3.261   2.296  24.802  0.00  0.00    -0.267 OA
ATOM     22  N   UNL     1      -2.099   3.411  24.902  0.00  0.00    -0.299 N 
ATOM     23  C   UNL     1      -1.560   3.808  24.915  0.00  0.00    +0.110 C 
ENDROOT
BRANCH  19  24
ATOM     24  C   UNL     1      -2.686   1.360  24.442  0.00  0.00    +0.005 A 
ATOM     25  C   UNL     1      -3.188   1.301  23.789  0.00  0.00    +0.000 A 
ATOM     26  C   UNL     1      -3.653   0.628  23.686  0.00  0.00    +0.000 A 
ATOM     27  C   UNL     1      -3.618   0.014  24.235  0.00  0.00    +0.000 A 
ATOM     28  C   UNL     1      -4.084  -0.660  24.132  0.00  0.00    +0.000 A 
ATOM     29  C   UNL     1      -4.048  -1.274  24.682  0.00  0.00    +0.000 A 
ATOM     30  C   UNL     1      -3.547  -1.215  25.334  0.00  0.00    +0.000 A 
ATOM     31  C   UNL     1      -3.081  -0.542  25.437  0.00  0.00    +0.000 A 
ATOM     32  C   UNL     1      -3.117   0.072  24.888  0.00  0.00    +0.000 A 
ATOM     33  C   UNL     1      -2.651   0.746  24.991  0.00  0.00    +0.000 A 
ENDBRANCH  19  24
BRANCH  10   7
ATOM      1  C   UNL     1      -5.441   1.854  24.319  0.00  0.00    +0.095 C 
ATOM      2  C   UNL     1      -5.017   1.948  25.020  0.00  0.00    +0.226 C 
ATOM      3  O   UNL     1      -5.193   1.476  25.674  0.00  0.00    -0.275 OA
ATOM      4  N   UNL     1      -4.418   2.512  25.069  0.00  0.00    -0.279 N 
ATOM      5  C   UNL     1      -3.994   2.606  25.770  0.00  0.00    +0.095 C 
ATOM      6  C   UNL     1      -3.395   3.170  25.820  0.00  0.00    +0.038 C 
ATOM      7  C   UNL     1      -3.219   3.642  25.166  0.00  0.00    +0.061 C 
ATOM      8  C   UNL     1      -3.642   3.549  24.464  0.00  0.00    +0.038 C 
ATOM      9  C   UNL     1      -4.242   2.984  24.415  0.00  0.00    +0.095 C 
ENDBRANCH  10   7
TORSDOF 2
ENDMDL
MODEL 4
REMARK VINA RESULT:     -16.7      1.315      4.284
REMARK  Name = 
REMARK  2 active torsions:
REMARK  status: ('A' for Active; 'I' for Inactive)
REMARK    1  A    between atoms: C_7  and  N_10
REMARK    2  A    between atoms: C_19  and  C_24
REMARK                            x       y       z     vdW  Elec       q    Type
REMARK                         _______ _______ _______ _____ _____    ______ ____
ROOT
ATOM     10  N   UNL     1      -3.974  -1.005  24.266  0.00  0.00    -0.273 NA
ATOM     11  C   UNL     1      -4.453  -1.686  24.203  0.00  0.00    +0.074 C 
ATOM     12  C   UNL     1      -3.771  -2.383  24.363  0.00  0.00    +0.039 C 
ATOM     13  C   UNL     1      -3.340  -3.065  24.475  0.00  0.00    +0.011 C 
ATOM     14  C   UNL     1      -3.224  -2.373  24.468  0.00  0.00    +0.054 C 
ATOM     15  C   UNL     1      -3.894  -1.711  24.311  0.00  0.00    +0.078 C 
ATOM     16  C   UNL     1      -2.553  -1.753  24.570  0.00  0.00    +0.041 A 
ATOM     17  C   UNL     1      -1.744  -1.705  24.724  0.00  0.00    +0.013 A 
ATOM     18  C   UNL     1      -1.375  -0.968  24.763  0.00  0.00    +0.006 A 
ATOM     19  C   UNL     1      -1.815  -0.279  24.649  0.00  0.00    +0.056 A 
ATOM     20  C   UNL     1      -2.624  -0.328  24.496  0.00  0.00    +0.261 A 
ATOM     21  O   UNL     1      -2.581   0.495  24.469  0.00  0.00    -0.267 OA
ATOM     22  N   UNL     1      -2.993  -1.065  24.457  0.00  0.00    -0.299 N 
ATOM     23  C   UNL     1      -3.077  -1.729  24.469  0.00  0.00    +0.110 C 
ENDROOT
BRANCH  19  24
ATOM     24  C   UNL     1      -1.446   0.457  24.689  0.00  0.00    +0.005 A 
ATOM     25  C   UNL     1      -1.299   0.881  23.997  0.00  0.00    +0.000 A 
ATOM     26  C   UNL     1      -0.929   1.618  24.036  0.00  0.00    +0.000 A 
ATOM     27  C   UNL     1      -0.707   1.930  24.766  0.00  0.00    +0.000 A 
ATOM     28  C   UNL     1      -0.337   2.667  24.805  0.00  0.00    +0.000 A 
ATOM     29  C   UNL     1      -0.116   2.979  25.537  0.00  0.00    +0.000 A 
ATOM     30  C   UNL     1      -0.263   2.554  26.228  0.00  0.00    +0.000 A 
ATOM     31  C   UNL     1      -0.633   1.818  26.189  0.00  0.00    +0.000 A 
ATOM     32  C   UNL     1      -0.854   1.506  25.458  0.00  0.00    +0.000 A 
ATOM     33  C   UNL     1      -1.224   0.769  25.419  0.00  0.00    +0.000 A 
ENDBRANCH  19  24
BRANCH  10   7
ATOM      1  C   UNL     1      -2.922   2.563  23.589  0.00  0.00    +0.095 C 
ATOM      2  C   UNL     1      -3.159   2.193  24.286  0.00  0.00    +0.226 C 
ATOM      3  O   UNL     1      -3.194   2.623  24.990  0.00  0.00    -0.275 OA
ATOM      4  N   UNL     1      -3.363   1.394  24.282  0.00  0.00    -0.279 N 
ATOM      5  C   UNL     1      -3.601   1.024  24.979  0.00  0.00    +0.095 C 
ATOM      6  C   UNL     1      -3.805   0.225  24.974  0.00  0.00    +0.038 C 
ATOM      7  C   UNL     1      -3.770  -0.205  24.271  0.00  0.00    +0.061 C 
ATOM      8  C   UNL     1      -3.533   0.164  23.573  0.00  0.00    +0.038 C 
ATOM      9  C   UNL     1      -3.329   0.964  23.578  0.00  0.00    +0.095 C 
ENDBRANCH  10   7
TORSDOF 2
ENDMDL
