MODEL 1
REMARK VINA RESULT:     -12.1      0.000      0.000
REMARK  Name = 
REMARK  8 active torsions:
REMARK  status: ('A' for Active; 'I' for Inactive)
REMARK    1  A    between atoms: C_2  and  C_4
REMARK    2  A    between atoms: C_6  and  C_7
REMARK    3  A    between atoms: C_7  and  C_8
REMARK    4  A    between atoms: N_10  and  C_11
REMARK    5  A    between atoms: C_11  and  C_12
REMARK    6  A    between atoms: C_21  and  C_22
REMARK    7  A    between atoms: C_22  and  N_23
REMARK    8  A    between atoms: C_24  and  C_26
REMARK                            x       y       z     vdW  Elec       q    Type
REMARK                         _______ _______ _______ _____ _____    ______ ____
ROOT
ATOM      4  C   UNL     1      -3.526   1.823  23.849  0.00  0.00    +0.006 C 
ATOM      5  C   UNL     1      -3.661   2.553  24.207  0.00  0.00    +0.005 C 
ATOM      6  C   UNL     1      -4.263   2.633  24.767  0.00  0.00    +0.027 C 
ATOM     18  C   UNL     1      -4.729   1.982  24.968  0.00  0.00    -0.048 C 
ATOM     19  C   UNL     1      -5.330   2.061  25.527  0.00  0.00    +0.026 C 
ATOM     20  C   UNL     1      -4.593   1.251  24.608  0.00  0.00    -0.033 C 
ATOM     21  C   UNL     1      -3.992   1.172  24.049  0.00  0.00    +0.043 C 
ENDROOT
BRANCH   4   2
ATOM      1  C   UNL     1      -3.072   1.926  22.498  0.00  0.00    +0.000 C 
ATOM      2  C   UNL     1      -2.925   1.744  23.290  0.00  0.00    +0.000 C 
ATOM      3  C   UNL     1      -2.177   1.483  23.521  0.00  0.00    +0.000 C 
ENDBRANCH   4   2
BRANCH   6   7
ATOM      7  C   UNL     1      -4.398   3.363  25.126  0.00  0.00    +0.091 C 
BRANCH   7   8
ATOM      8  C   UNL     1      -3.819   3.698  25.610  0.00  0.00    +0.242 C 
ATOM      9  O   UNL     1      -3.854   3.594  26.427  0.00  0.00    -0.273 OA
ATOM     10  N   UNL     1      -3.206   4.136  25.275  0.00  0.00    -0.199 NA
BRANCH  10  11
ATOM     11  C   UNL     1      -2.627   4.471  25.759  0.00  0.00    +0.160 C 
BRANCH  11  12
ATOM     12  C   UNL     1      -1.895   4.680  25.442  0.00  0.00    +0.081 A 
ATOM     13  N   UNL     1      -1.266   4.147  25.467  0.00  0.00    -0.246 NA
ATOM     14  C   UNL     1      -0.534   4.357  25.148  0.00  0.00    +0.099 A 
ATOM     15  C   UNL     1      -0.431   5.100  24.806  0.00  0.00    +0.021 A 
ATOM     16  C   UNL     1      -1.060   5.633  24.780  0.00  0.00    +0.003 A 
ATOM     17  C   UNL     1      -1.792   5.424  25.098  0.00  0.00    +0.017 A 
ENDBRANCH  11  12
ENDBRANCH  10  11
ENDBRANCH   7   8
ENDBRANCH   6   7
BRANCH  21  22
ATOM     22  C   UNL     1      -3.857   0.441  23.691  0.00  0.00    +0.120 C 
BRANCH  22  23
ATOM     23  N   UNL     1      -3.734  -0.230  24.156  0.00  0.00    -0.201 NA
ATOM     24  C   UNL     1      -3.848  -0.981  23.834  0.00  0.00    +0.265 C 
ATOM     25  O   UNL     1      -4.085  -1.062  23.048  0.00  0.00    -0.268 OA
BRANCH  24  26
ATOM     26  C   UNL     1      -3.725  -1.651  24.300  0.00  0.00    +0.055 A 
ATOM     27  C   UNL     1      -3.877  -2.401  23.990  0.00  0.00    +0.007 A 
ATOM     28  C   UNL     1      -3.754  -3.072  24.456  0.00  0.00    +0.030 A 
ATOM     29  C   UNL     1      -3.479  -2.992  25.229  0.00  0.00    +0.140 A 
ATOM     30  F   UNL     1      -3.356  -3.662  25.694  0.00  0.00    -0.204 F 
ATOM     31  C   UNL     1      -3.326  -2.242  25.538  0.00  0.00    +0.030 A 
ATOM     32  C   UNL     1      -3.449  -1.572  25.073  0.00  0.00    +0.007 A 
ENDBRANCH  24  26
ENDBRANCH  22  23
ENDBRANCH  21  22
TORSDOF 8
ENDMDL
MODEL 2
REMARK VINA RESULT:     -11.5      3.512      5.224
REMARK  Name = 
REMARK  8 active torsions:
REMARK  status: ('A' for Active; 'I' for Inactive)
REMARK    1  A    between atoms: C_2  and  C_4
REMARK    2  A    between atoms: C_6  and  C_7
REMARK    3  A    between atoms: C_7  and  C_8
REMARK    4  A    between atoms: N_10  and  C_11
REMARK    5  A    between atoms: C_11  and  C_12
REMARK    6  A    between atoms: C_21  and  C_22
REMARK    7  A    between atoms: C_22  and  N_23
REMARK    8  A    between atoms: C_24  and  C_26
REMARK                            x       y       z     vdW  Elec       q    Type
REMARK                         _______ _______ _______ _____ _____    ______ ____
ROOT
ATOM      4  C   UNL     1      -0.692   1.875  24.567  0.00  0.00    +0.006 C 
ATOM      5  C   UNL     1      -0.146   1.293  24.360  0.00  0.00    +0.005 C 
ATOM      6  C   UNL     1      -0.399   0.517  24.234  0.00  0.00    +0.027 C 
ATOM     18  C   UNL     1      -1.197   0.325  24.316  0.00  0.00    -0.048 C 
ATOM     19  C   UNL     1      -1.450  -0.450  24.190  0.00  0.00    +0.026 C 
ATOM     20  C   UNL     1      -1.743   0.908  24.523  0.00  0.00    -0.033 C 
ATOM     21  C   UNL     1      -1.490   1.683  24.648  0.00  0.00    +0.043 C 
ENDROOT
BRANCH   4   2
ATOM      1  C   UNL     1      -0.199   2.888  25.446  0.00  0.00    +0.000 C 
ATOM      2  C   UNL     1      -0.439   2.650  24.693  0.00  0.00    +0.000 C 
ATOM      3  C   UNL     1      -0.426   3.187  24.066  0.00  0.00    +0.000 C 
ENDBRANCH   4   2
BRANCH   6   7
ATOM      7  C   UNL     1       0.147  -0.066  24.028  0.00  0.00    +0.091 C 
BRANCH   7   8
ATOM      8  C   UNL     1       0.616   0.029  23.354  0.00  0.00    +0.242 C 
ATOM      9  O   UNL     1       0.262   0.100  22.612  0.00  0.00    -0.273 OA
ATOM     10  N   UNL     1       1.437   0.052  23.424  0.00  0.00    -0.199 NA
BRANCH  10  11
ATOM     11  C   UNL     1       1.906   0.146  22.750  0.00  0.00    +0.160 C 
BRANCH  11  12
ATOM     12  C   UNL     1       2.723   0.224  22.825  0.00  0.00    +0.081 A 
ATOM     13  N   UNL     1       3.185  -0.430  23.023  0.00  0.00    -0.246 NA
ATOM     14  C   UNL     1       4.002  -0.351  23.098  0.00  0.00    +0.099 A 
ATOM     15  C   UNL     1       4.359   0.382  22.975  0.00  0.00    +0.021 A 
ATOM     16  C   UNL     1       3.898   1.037  22.777  0.00  0.00    +0.003 A 
ATOM     17  C   UNL     1       3.080   0.959  22.702  0.00  0.00    +0.017 A 
ENDBRANCH  11  12
ENDBRANCH  10  11
ENDBRANCH   7   8
ENDBRANCH   6   7
BRANCH  21  22
ATOM     22  C   UNL     1      -2.036   2.266  24.855  0.00  0.00    +0.120 C 
BRANCH  22  23
ATOM     23  N   UNL     1      -2.838   2.077  24.915  0.00  0.00    -0.201 NA
ATOM     24  C   UNL     1      -3.396   2.676  25.019  0.00  0.00    +0.265 C 
ATOM     25  O   UNL     1      -3.153   3.463  25.064  0.00  0.00    -0.268 OA
BRANCH  24  26
ATOM     26  C   UNL     1      -4.197   2.486  25.079  0.00  0.00    +0.055 A 
ATOM     27  C   UNL     1      -4.651   2.806  25.689  0.00  0.00    +0.007 A 
ATOM     28  C   UNL     1      -5.452   2.617  25.749  0.00  0.00    +0.030 A 
ATOM     29  C   UNL     1      -5.799   2.108  25.199  0.00  0.00    +0.140 A 
ATOM     30  F   UNL     1      -6.599   1.919  25.258  0.00  0.00    -0.204 F 
ATOM     31  C   UNL     1      -5.344   1.789  24.588  0.00  0.00    +0.030 A 
ATOM     32  C   UNL     1      -4.543   1.978  24.529  0.00  0.00    +0.007 A 
ENDBRANCH  24  26
ENDBRANCH  22  23
ENDBRANCH  21  22
TORSDOF 8
ENDMDL
MODEL 3
REMARK VINA RESULT:     -11.4      1.063      1.944
REMARK  Name = 
REMARK  8 active torsions:
REMARK  status: ('A' for Active; 'I' for Inactive)
REMARK    1  A    between atoms: C_2  and  C_4
REMARK    2  A    between atoms: C_6  and  C_7
REMARK    3  A    between atoms: C_7  and  C_8
REMARK    4  A    between atoms: N_10  and  C_11
REMARK    5  A    between atoms: C_11  and  C_12
REMARK    6  A    between atoms: C_21  and  C_22
REMARK    7  A    between atoms: C_22  and  N_23
REMARK    8  A    between atoms: C_24  and  C_26
REMARK                            x       y       z     vdW  Elec       q    Type
REMARK                         _______ _______ _______ _____ _____    ______ ____
ROOT
ATOM      4  C   UNL     1      -4.648   1.890  24.633  0.00  0.00    +0.006 C 
ATOM      5  C   UNL     1      -4.303   2.625  24.490  0.00  0.00    +0.005 C 
ATOM      6  C   UNL     1      -3.692   2.694  23.939  0.00  0.00    +0.027 C 
ATOM     18  C   UNL     1      -3.427   2.027  23.532  0.00  0.00    -0.048 C 
ATOM     19  C   UNL     1      -2.816   2.095  22.981  0.00  0.00    +0.026 C 
ATOM     20  C   UNL     1      -3.773   1.291  23.675  0.00  0.00    -0.033 C 
ATOM     21  C   UNL     1      -4.383   1.223  24.225  0.00  0.00    +0.043 C 
ENDROOT
BRANCH   4   2
ATOM      1  C   UNL     1      -6.044   1.892  24.938  0.00  0.00    +0.000 C 
ATOM      2  C   UNL     1      -5.259   1.822  25.183  0.00  0.00    +0.000 C 
ATOM      3  C   UNL     1      -5.085   1.684  25.978  0.00  0.00    +0.000 C 
ENDBRANCH   4   2
BRANCH   6   7
ATOM      7  C   UNL     1      -3.346   3.429  23.797  0.00  0.00    +0.091 C 
BRANCH   7   8
ATOM      8  C   UNL     1      -2.902   3.797  24.387  0.00  0.00    +0.242 C 
ATOM      9  O   UNL     1      -3.204   4.456  24.781  0.00  0.00    -0.273 OA
ATOM     10  N   UNL     1      -2.156   3.505  24.583  0.00  0.00    -0.199 NA
BRANCH  10  11
ATOM     11  C   UNL     1      -1.711   3.873  25.174  0.00  0.00    +0.160 C 
BRANCH  11  12
ATOM     12  C   UNL     1      -1.060   3.486  25.501  0.00  0.00    +0.081 A 
ATOM     13  N   UNL     1      -0.334   3.495  25.109  0.00  0.00    -0.246 NA
ATOM     14  C   UNL     1       0.316   3.107  25.438  0.00  0.00    +0.099 A 
ATOM     15  C   UNL     1       0.241   2.710  26.156  0.00  0.00    +0.021 A 
ATOM     16  C   UNL     1      -0.486   2.700  26.547  0.00  0.00    +0.003 A 
ATOM     17  C   UNL     1      -1.136   3.088  26.220  0.00  0.00    +0.017 A 
ENDBRANCH  11  12
ENDBRANCH  10  11
ENDBRANCH   7   8
ENDBRANCH   6   7
BRANCH  21  22
ATOM     22  C   UNL     1      -4.729   0.488  24.368  0.00  0.00    +0.120 C 
BRANCH  22  23
ATOM     23  N   UNL     1      -4.251  -0.174  24.493  0.00  0.00    -0.201 NA
ATOM     24  C   UNL     1      -4.551  -0.931  24.356  0.00  0.00    +0.265 C 
ATOM     25  O   UNL     1      -5.327  -1.026  24.093  0.00  0.00    -0.268 OA
BRANCH  24  26
ATOM     26  C   UNL     1      -4.074  -1.592  24.482  0.00  0.00    +0.055 A 
ATOM     27  C   UNL     1      -3.662  -1.672  25.192  0.00  0.00    +0.007 A 
ATOM     28  C   UNL     1      -3.184  -2.334  25.319  0.00  0.00    +0.030 A 
ATOM     29  C   UNL     1      -3.119  -2.914  24.735  0.00  0.00    +0.140 A 
ATOM     30  F   UNL     1      -2.642  -3.575  24.861  0.00  0.00    -0.204 F 
ATOM     31  C   UNL     1      -3.532  -2.833  24.025  0.00  0.00    +0.030 A 
ATOM     32  C   UNL     1      -4.009  -2.172  23.899  0.00  0.00    +0.007 A 
ENDBRANCH  24  26
ENDBRANCH  22  23
ENDBRANCH  21  22
TORSDOF 8
ENDMDL
MODEL 4
REMARK VINA RESULT:     -11.0      3.095      5.026
REMARK  Name = 
REMARK  8 active torsions:
REMARK  status: ('A' for Active; 'I' for Inactive)
REMARK    1  A    between atoms: C_2  and  C_4
REMARK    2  A    between atoms: C_6  and  C_7
REMARK    3  A    between atoms: C_7  and  C_8
REMARK    4  A    between atoms: N_10  and  C_11
REMARK    5  A    between atoms: C_11  and  C_12
REMARK    6  A    between atoms: C_21  and  C_22
REMARK    7  A    between atoms: C_22  and  N_23
REMARK    8  A    between atoms: C_24  and  C_26
REMARK                            x       y       z     vdW  Elec       q    Type
REMARK                         _______ _______ _______ _____ _____    ______ ____
ROOT
ATOM      4  C   UNL     1      -2.825  -0.698  24.672  0.00  0.00    +0.006 C 
ATOM      5  C   UNL     1      -2.029  -0.913  24.661  0.00  0.00    +0.005 C 
ATOM      6  C   UNL     1      -1.455  -0.380  24.921  0.00  0.00    +0.027 C 
ATOM     18  C   UNL     1      -1.677   0.366  25.193  0.00  0.00    -0.048 C 
ATOM     19  C   UNL     1      -1.104   0.899  25.454  0.00  0.00    +0.026 C 
ATOM     20  C   UNL     1      -2.474   0.581  25.204  0.00  0.00    -0.033 C 
ATOM     21  C   UNL     1      -3.048   0.048  24.943  0.00  0.00    +0.043 C 
ENDROOT
BRANCH   4   2
ATOM      1  C   UNL     1      -3.673  -1.822  24.918  0.00  0.00    +0.000 C 
ATOM      2  C   UNL     1      -3.399  -1.231  24.411  0.00  0.00    +0.000 C 
ATOM      3  C   UNL     1      -3.698  -1.173  23.645  0.00  0.00    +0.000 C 
ENDBRANCH   4   2
BRANCH   6   7
ATOM      7  C   UNL     1      -0.658  -0.595  24.910  0.00  0.00    +0.091 C 
BRANCH   7   8
ATOM      8  C   UNL     1      -0.285  -0.754  24.191  0.00  0.00    +0.242 C 
ATOM      9  O   UNL     1      -0.482  -1.432  23.765  0.00  0.00    -0.273 OA
ATOM     10  N   UNL     1       0.287  -0.235  23.901  0.00  0.00    -0.199 NA
BRANCH  10  11
ATOM     11  C   UNL     1       0.660  -0.394  23.182  0.00  0.00    +0.160 C 
BRANCH  11  12
ATOM     12  C   UNL     1       1.379  -0.031  23.002  0.00  0.00    +0.081 A 
ATOM     13  N   UNL     1       1.571   0.696  23.342  0.00  0.00    -0.246 NA
ATOM     14  C   UNL     1       2.290   1.058  23.161  0.00  0.00    +0.099 A 
ATOM     15  C   UNL     1       2.816   0.694  22.642  0.00  0.00    +0.021 A 
ATOM     16  C   UNL     1       2.624  -0.032  22.302  0.00  0.00    +0.003 A 
ATOM     17  C   UNL     1       1.906  -0.396  22.481  0.00  0.00    +0.017 A 
ENDBRANCH  11  12
ENDBRANCH  10  11
ENDBRANCH   7   8
ENDBRANCH   6   7
BRANCH  21  22
ATOM     22  C   UNL     1      -3.844   0.263  24.955  0.00  0.00    +0.120 C 
BRANCH  22  23
ATOM     23  N   UNL     1      -4.057   1.051  25.083  0.00  0.00    -0.201 NA
ATOM     24  C   UNL     1      -4.853   1.268  25.085  0.00  0.00    +0.265 C 
ATOM     25  O   UNL     1      -5.437   0.699  24.957  0.00  0.00    -0.268 OA
BRANCH  24  26
ATOM     26  C   UNL     1      -5.065   2.055  25.213  0.00  0.00    +0.055 A 
ATOM     27  C   UNL     1      -4.706   2.654  24.775  0.00  0.00    +0.007 A 
ATOM     28  C   UNL     1      -4.918   3.442  24.903  0.00  0.00    +0.030 A 
ATOM     29  C   UNL     1      -5.488   3.629  25.470  0.00  0.00    +0.140 A 
ATOM     30  F   UNL     1      -5.700   4.416  25.598  0.00  0.00    -0.204 F 
ATOM     31  C   UNL     1      -5.847   3.029  25.908  0.00  0.00    +0.030 A 
ATOM     32  C   UNL     1      -5.635   2.242  25.780  0.00  0.00    +0.007 A 
ENDBRANCH  24  26
ENDBRANCH  22  23
ENDBRANCH  21  22
TORSDOF 8
ENDMDL
MODEL 5
REMARK VINA RESULT:     -10.9      2.073      5.684
REMARK  Name = 
REMARK  8 active torsions:
REMARK  status: ('A' for Active; 'I' for Inactive)
REMARK    1  A    between atoms: C_2  and  C_4
REMARK    2  A    between atoms: C_6  and  C_7
REMARK    3  A    between atoms: C_7  and  C_8
REMARK    4  A    between atoms: N_10  and  C_11
REMARK    5  A    between atoms: C_11  and  C_12
REMARK    6  A    between atoms: C_21  and  C_22
REMARK    7  A    between atoms: C_22  and  N_23
REMARK    8  A    between atoms: C_24  and  C_26
REMARK                            x       y       z     vdW  Elec       q    Type
REMARK                         _______ _______ _______ _____ _____    ______ ____
ROOT
ATOM      4  C   UNL     1      -4.572   1.676  24.845  0.00  0.00    +0.006 C 
ATOM      5  C   UNL     1      -4.643   0.930  24.499  0.00  0.00    +0.005 C 
ATOM      6  C   UNL     1      -4.086   0.678  23.945  0.00  0.00    +0.027 C 
ATOM     18  C   UNL     1      -3.457   1.171  23.737  0.00  0.00    -0.048 C 
ATOM     19  C   UNL     1      -2.900   0.919  23.184  0.00  0.00    +0.026 C 
ATOM     20  C   UNL     1      -3.386   1.917  24.084  0.00  0.00    -0.033 C 
ATOM     21  C   UNL     1      -3.943   2.169  24.637  0.00  0.00    +0.043 C 
ENDROOT
BRANCH   4   2
ATOM      1  C   UNL     1      -5.766   2.396  25.158  0.00  0.00    +0.000 C 
ATOM      2  C   UNL     1      -5.129   1.928  25.398  0.00  0.00    +0.000 C 
ATOM      3  C   UNL     1      -5.050   1.713  26.191  0.00  0.00    +0.000 C 
ENDBRANCH   4   2
BRANCH   6   7
ATOM      7  C   UNL     1      -4.157  -0.068  23.599  0.00  0.00    +0.091 C 
BRANCH   7   8
ATOM      8  C   UNL     1      -4.022  -0.746  24.051  0.00  0.00    +0.242 C 
ATOM      9  O   UNL     1      -4.658  -1.150  24.388  0.00  0.00    -0.273 OA
ATOM     10  N   UNL     1      -3.252  -1.019  24.164  0.00  0.00    -0.199 NA
BRANCH  10  11
ATOM     11  C   UNL     1      -3.118  -1.697  24.616  0.00  0.00    +0.160 C 
BRANCH  11  12
ATOM     12  C   UNL     1      -2.346  -1.944  24.768  0.00  0.00    +0.081 A 
ATOM     13  N   UNL     1      -1.893  -1.556  25.338  0.00  0.00    -0.246 NA
ATOM     14  C   UNL     1      -1.120  -1.804  25.489  0.00  0.00    +0.099 A 
ATOM     15  C   UNL     1      -0.801  -2.439  25.070  0.00  0.00    +0.021 A 
ATOM     16  C   UNL     1      -1.254  -2.826  24.500  0.00  0.00    +0.003 A 
ATOM     17  C   UNL     1      -2.026  -2.579  24.348  0.00  0.00    +0.017 A 
ENDBRANCH  11  12
ENDBRANCH  10  11
ENDBRANCH   7   8
ENDBRANCH   6   7
BRANCH  21  22
ATOM     22  C   UNL     1      -3.872   2.915  24.983  0.00  0.00    +0.120 C 
BRANCH  22  23
ATOM     23  N   UNL     1      -3.194   3.367  24.849  0.00  0.00    -0.201 NA
ATOM     24  C   UNL     1      -2.955   3.926  25.408  0.00  0.00    +0.265 C 
ATOM     25  O   UNL     1      -3.393   4.033  26.099  0.00  0.00    -0.268 OA
BRANCH  24  26
ATOM     26  C   UNL     1      -2.278   4.378  25.274  0.00  0.00    +0.055 A 
ATOM     27  C   UNL     1      -1.536   4.018  25.276  0.00  0.00    +0.007 A 
ATOM     28  C   UNL     1      -0.858   4.470  25.143  0.00  0.00    +0.030 A 
ATOM     29  C   UNL     1      -0.923   5.281  25.007  0.00  0.00    +0.140 A 
ATOM     30  F   UNL     1      -0.246   5.733  24.874  0.00  0.00    -0.204 F 
ATOM     31  C   UNL     1      -1.666   5.642  25.006  0.00  0.00    +0.030 A 
ATOM     32  C   UNL     1      -2.343   5.190  25.139  0.00  0.00    +0.007 A 
ENDBRANCH  24  26
ENDBRANCH  22  23
ENDBRANCH  21  22
TORSDOF 8
ENDMDL
MODEL 6
REMARK VINA RESULT:     -10.8      2.362      5.775
REMARK  Name = 
REMARK  8 active torsions:
REMARK  status: ('A' for Active; 'I' for Inactive)
REMARK    1  A    between atoms: C_2  and  C_4
REMARK    2  A    between atoms: C_6  and  C_7
REMARK    3  A    between atoms: C_7  and  C_8
REMARK    4  A    between atoms: N_10  and  C_11
REMARK    5  A    between atoms: C_11  and  C_12
REMARK    6  A    between atoms: C_21  and  C_22
REMARK    7  A    between atoms: C_22  and  N_23
REMARK    8  A    between atoms: C_24  and  C_26
REMARK                            x       y       z     vdW  Elec       q    Type
REMARK                         _______ _______ _______ _____ _____    ______ ____
ROOT
ATOM      4  C   UNL     1      -0.628   1.785  25.106  0.00  0.00    +0.006 C 
ATOM      5  C   UNL     1      -0.323   1.075  24.815  0.00  0.00    +0.005 C 
ATOM      6  C   UNL     1      -0.599   0.771  24.098  0.00  0.00    +0.027 C 
ATOM     18  C   UNL     1      -1.179   1.177  23.674  0.00  0.00    -0.048 C 
ATOM     19  C   UNL     1      -1.455   0.873  22.958  0.00  0.00    +0.026 C 
ATOM     20  C   UNL     1      -1.484   1.887  23.965  0.00  0.00    -0.033 C 
ATOM     21  C   UNL     1      -1.208   2.190  24.681  0.00  0.00    +0.043 C 
ENDROOT
BRANCH   4   2
ATOM      1  C   UNL     1       0.259   2.643  25.826  0.00  0.00    +0.000 C 
ATOM      2  C   UNL     1      -0.353   2.088  25.821  0.00  0.00    +0.000 C 
ATOM      3  C   UNL     1      -0.687   1.837  26.533  0.00  0.00    +0.000 C 
ENDBRANCH   4   2
BRANCH   6   7
ATOM      7  C   UNL     1      -0.294   0.062  23.807  0.00  0.00    +0.091 C 
BRANCH   7   8
ATOM      8  C   UNL     1      -0.400  -0.637  24.233  0.00  0.00    +0.242 C 
ATOM      9  O   UNL     1       0.232  -0.966  24.650  0.00  0.00    -0.273 OA
ATOM     10  N   UNL     1      -1.137  -1.007  24.242  0.00  0.00    -0.199 NA
BRANCH  10  11
ATOM     11  C   UNL     1      -1.243  -1.706  24.667  0.00  0.00    +0.160 C 
BRANCH  11  12
ATOM     12  C   UNL     1      -1.994  -2.040  24.731  0.00  0.00    +0.081 A 
ATOM     13  N   UNL     1      -2.233  -2.623  24.197  0.00  0.00    -0.246 NA
ATOM     14  C   UNL     1      -2.985  -2.957  24.262  0.00  0.00    +0.099 A 
ATOM     15  C   UNL     1      -3.498  -2.708  24.858  0.00  0.00    +0.021 A 
ATOM     16  C   UNL     1      -3.259  -2.126  25.391  0.00  0.00    +0.003 A 
ATOM     17  C   UNL     1      -2.507  -1.791  25.328  0.00  0.00    +0.017 A 
ENDBRANCH  11  12
ENDBRANCH  10  11
ENDBRANCH   7   8
ENDBRANCH   6   7
BRANCH  21  22
ATOM     22  C   UNL     1      -1.513   2.899  24.972  0.00  0.00    +0.120 C 
BRANCH  22  23
ATOM     23  N   UNL     1      -2.326   2.979  25.093  0.00  0.00    -0.201 NA
ATOM     24  C   UNL     1      -2.669   3.730  25.106  0.00  0.00    +0.265 C 
ATOM     25  O   UNL     1      -2.200   4.400  24.997  0.00  0.00    -0.268 OA
BRANCH  24  26
ATOM     26  C   UNL     1      -3.481   3.809  25.227  0.00  0.00    +0.055 A 
ATOM     27  C   UNL     1      -3.779   3.858  25.995  0.00  0.00    +0.007 A 
ATOM     28  C   UNL     1      -4.592   3.938  26.117  0.00  0.00    +0.030 A 
ATOM     29  C   UNL     1      -5.105   3.969  25.471  0.00  0.00    +0.140 A 
ATOM     30  F   UNL     1      -5.917   4.048  25.593  0.00  0.00    -0.204 F 
ATOM     31  C   UNL     1      -4.806   3.920  24.703  0.00  0.00    +0.030 A 
ATOM     32  C   UNL     1      -3.994   3.840  24.582  0.00  0.00    +0.007 A 
ENDBRANCH  24  26
ENDBRANCH  22  23
ENDBRANCH  21  22
TORSDOF 8
ENDMDL
MODEL 7
REMARK VINA RESULT:     -10.7      3.170      4.769
REMARK  Name = 
REMARK  8 active torsions:
REMARK  status: ('A' for Active; 'I' for Inactive)
REMARK    1  A    between atoms: C_2  and  C_4
REMARK    2  A    between atoms: C_6  and  C_7
REMARK    3  A    between atoms: C_7  and  C_8
REMARK    4  A    between atoms: N_10  and  C_11
REMARK    5  A    between atoms: C_11  and  C_12
REMARK    6  A    between atoms: C_21  and  C_22
REMARK    7  A    between atoms: C_22  and  N_23
REMARK    8  A    between atoms: C_24  and  C_26
REMARK                            x       y       z     vdW  Elec       q    Type
REMARK                         _______ _______ _______ _____ _____    ______ ____
ROOT
ATOM      4  C   UNL     1      -1.501   1.123  24.717  0.00  0.00    +0.006 C 
ATOM      5  C   UNL     1      -1.926   1.767  25.009  0.00  0.00    +0.005 C 
ATOM      6  C   UNL     1      -1.602   2.526  24.972  0.00  0.00    +0.027 C 
ATOM     18  C   UNL     1      -0.853   2.639  24.644  0.00  0.00    -0.048 C 
ATOM     19  C   UNL     1      -0.529   3.397  24.608  0.00  0.00    +0.026 C 
ATOM     20  C   UNL     1      -0.428   1.994  24.353  0.00  0.00    -0.033 C 
ATOM     21  C   UNL     1      -0.752   1.237  24.390  0.00  0.00    +0.043 C 
ENDROOT
BRANCH   4   2
ATOM      1  C   UNL     1      -1.688  -0.109  25.415  0.00  0.00    +0.000 C 
ATOM      2  C   UNL     1      -1.825   0.366  24.754  0.00  0.00    +0.000 C 
ATOM      3  C   UNL     1      -2.285   0.083  24.130  0.00  0.00    +0.000 C 
ENDBRANCH   4   2
BRANCH   6   7
ATOM      7  C   UNL     1      -2.027   3.170  25.263  0.00  0.00    +0.091 C 
BRANCH   7   8
ATOM      8  C   UNL     1      -2.763   3.358  24.940  0.00  0.00    +0.242 C 
ATOM      9  O   UNL     1      -2.806   3.773  24.228  0.00  0.00    -0.273 OA
ATOM     10  N   UNL     1      -3.454   3.132  25.329  0.00  0.00    -0.199 NA
BRANCH  10  11
ATOM     11  C   UNL     1      -4.190   3.320  25.005  0.00  0.00    +0.160 C 
BRANCH  11  12
ATOM     12  C   UNL     1      -4.860   2.896  25.231  0.00  0.00    +0.081 A 
ATOM     13  N   UNL     1      -5.216   3.044  25.961  0.00  0.00    -0.246 NA
ATOM     14  C   UNL     1      -5.886   2.619  26.186  0.00  0.00    +0.099 A 
ATOM     15  C   UNL     1      -6.201   2.047  25.683  0.00  0.00    +0.021 A 
ATOM     16  C   UNL     1      -5.845   1.899  24.953  0.00  0.00    +0.003 A 
ATOM     17  C   UNL     1      -5.175   2.323  24.727  0.00  0.00    +0.017 A 
ENDBRANCH  11  12
ENDBRANCH  10  11
ENDBRANCH   7   8
ENDBRANCH   6   7
BRANCH  21  22
ATOM     22  C   UNL     1      -0.327   0.593  24.098  0.00  0.00    +0.120 C 
BRANCH  22  23
ATOM     23  N   UNL     1       0.398   0.714  23.721  0.00  0.00    -0.201 NA
ATOM     24  C   UNL     1       0.817   0.071  23.416  0.00  0.00    +0.265 C 
ATOM     25  O   UNL     1       0.511  -0.692  23.487  0.00  0.00    -0.268 OA
BRANCH  24  26
ATOM     26  C   UNL     1       1.541   0.193  23.040  0.00  0.00    +0.055 A 
ATOM     27  C   UNL     1       1.693  -0.169  22.314  0.00  0.00    +0.007 A 
ATOM     28  C   UNL     1       2.418  -0.048  21.937  0.00  0.00    +0.030 A 
ATOM     29  C   UNL     1       2.988   0.435  22.286  0.00  0.00    +0.140 A 
ATOM     30  F   UNL     1       3.712   0.557  21.910  0.00  0.00    -0.204 F 
ATOM     31  C   UNL     1       2.835   0.798  23.012  0.00  0.00    +0.030 A 
ATOM     32  C   UNL     1       2.111   0.676  23.388  0.00  0.00    +0.007 A 
ENDBRANCH  24  26
ENDBRANCH  22  23
ENDBRANCH  21  22
TORSDOF 8
ENDMDL
MODEL 8
REMARK VINA RESULT:     -10.7      2.397      4.897
REMARK  Name = 
REMARK  8 active torsions:
REMARK  status: ('A' for Active; 'I' for Inactive)
REMARK    1  A    between atoms: C_2  and  C_4
REMARK    2  A    between atoms: C_6  and  C_7
REMARK    3  A    between atoms: C_7  and  C_8
REMARK    4  A    between atoms: N_10  and  C_11
REMARK    5  A    between atoms: C_11  and  C_12
REMARK    6  A    between atoms: C_21  and  C_22
REMARK    7  A    between atoms: C_22  and  N_23
REMARK    8  A    between atoms: C_24  and  C_26
REMARK                            x       y       z     vdW  Elec       q    Type
REMARK                         _______ _______ _______ _____ _____    ______ ____
ROOT
ATOM      4  C   UNL     1      -2.107   2.052  23.408  0.00  0.00    +0.006 C 
ATOM      5  C   UNL     1      -1.338   1.764  23.484  0.00  0.00    +0.005 C 
ATOM      6  C   UNL     1      -0.921   1.884  24.187  0.00  0.00    +0.027 C 
ATOM     18  C   UNL     1      -1.273   2.292  24.811  0.00  0.00    -0.048 C 
ATOM     19  C   UNL     1      -0.857   2.412  25.513  0.00  0.00    +0.026 C 
ATOM     20  C   UNL     1      -2.043   2.580  24.735  0.00  0.00    -0.033 C 
ATOM     21  C   UNL     1      -2.460   2.459  24.033  0.00  0.00    +0.043 C 
ENDROOT
BRANCH   4   2
ATOM      1  C   UNL     1      -2.940   1.228  22.590  0.00  0.00    +0.000 C 
ATOM      2  C   UNL     1      -2.524   1.931  22.706  0.00  0.00    +0.000 C 
ATOM      3  C   UNL     1      -2.525   2.513  22.122  0.00  0.00    +0.000 C 
ENDBRANCH   4   2
BRANCH   6   7
ATOM      7  C   UNL     1      -0.151   1.597  24.263  0.00  0.00    +0.091 C 
BRANCH   7   8
ATOM      8  C   UNL     1       0.025   0.824  24.030  0.00  0.00    +0.242 C 
ATOM      9  O   UNL     1       0.492   0.691  23.363  0.00  0.00    -0.273 OA
ATOM     10  N   UNL     1      -0.267   0.187  24.465  0.00  0.00    -0.199 NA
BRANCH  10  11
ATOM     11  C   UNL     1      -0.091  -0.586  24.232  0.00  0.00    +0.160 C 
BRANCH  11  12
ATOM     12  C   UNL     1      -0.568  -1.210  24.482  0.00  0.00    +0.081 A 
ATOM     13  N   UNL     1      -1.055  -1.600  23.942  0.00  0.00    -0.246 NA
ATOM     14  C   UNL     1      -1.532  -2.225  24.194  0.00  0.00    +0.099 A 
ATOM     15  C   UNL     1      -1.522  -2.459  24.985  0.00  0.00    +0.021 A 
ATOM     16  C   UNL     1      -1.035  -2.069  25.524  0.00  0.00    +0.003 A 
ATOM     17  C   UNL     1      -0.558  -1.444  25.274  0.00  0.00    +0.017 A 
ENDBRANCH  11  12
ENDBRANCH  10  11
ENDBRANCH   7   8
ENDBRANCH   6   7
BRANCH  21  22
ATOM     22  C   UNL     1      -3.229   2.747  23.957  0.00  0.00    +0.120 C 
BRANCH  22  23
ATOM     23  N   UNL     1      -3.825   2.468  24.456  0.00  0.00    -0.201 NA
ATOM     24  C   UNL     1      -4.490   2.934  24.605  0.00  0.00    +0.265 C 
ATOM     25  O   UNL     1      -4.560   3.677  24.254  0.00  0.00    -0.268 OA
BRANCH  24  26
ATOM     26  C   UNL     1      -5.085   2.655  25.104  0.00  0.00    +0.055 A 
ATOM     27  C   UNL     1      -5.203   3.008  25.840  0.00  0.00    +0.007 A 
ATOM     28  C   UNL     1      -5.798   2.729  26.340  0.00  0.00    +0.030 A 
ATOM     29  C   UNL     1      -6.274   2.099  26.103  0.00  0.00    +0.140 A 
ATOM     30  F   UNL     1      -6.868   1.820  26.602  0.00  0.00    -0.204 F 
ATOM     31  C   UNL     1      -6.155   1.746  25.366  0.00  0.00    +0.030 A 
ATOM     32  C   UNL     1      -5.561   2.025  24.867  0.00  0.00    +0.007 A 
ENDBRANCH  24  26
ENDBRANCH  22  23
ENDBRANCH  21  22
TORSDOF 8
ENDMDL
MODEL 9
REMARK VINA RESULT:     -10.6      1.913      3.026
REMARK  Name = 
REMARK  8 active torsions:
REMARK  status: ('A' for Active; 'I' for Inactive)
REMARK    1  A    between atoms: C_2  and  C_4
REMARK    2  A    between atoms: C_6  and  C_7
REMARK    3  A    between atoms: C_7  and  C_8
REMARK    4  A    between atoms: N_10  and  C_11
REMARK    5  A    between atoms: C_11  and  C_12
REMARK    6  A    between atoms: C_21  and  C_22
REMARK    7  A    between atoms: C_22  and  N_23
REMARK    8  A    between atoms: C_24  and  C_26
REMARK                            x       y       z     vdW  Elec       q    Type
REMARK                         _______ _______ _______ _____ _____    ______ ____
ROOT
ATOM      4  C   UNL     1      -0.412   1.429  24.386  0.00  0.00    +0.006 C 
ATOM      5  C   UNL     1      -0.406   2.228  24.591  0.00  0.00    +0.005 C 
ATOM      6  C   UNL     1      -0.478   2.450  25.383  0.00  0.00    +0.027 C 
ATOM     18  C   UNL     1      -0.555   1.874  25.968  0.00  0.00    -0.048 C 
ATOM     19  C   UNL     1      -0.627   2.096  26.760  0.00  0.00    +0.026 C 
ATOM     20  C   UNL     1      -0.561   1.074  25.762  0.00  0.00    -0.033 C 
ATOM     21  C   UNL     1      -0.490   0.852  24.971  0.00  0.00    +0.043 C 
ENDROOT
BRANCH   4   2
ATOM      1  C   UNL     1       0.388   0.952  23.303  0.00  0.00    +0.000 C 
ATOM      2  C   UNL     1      -0.341   1.207  23.595  0.00  0.00    +0.000 C 
ATOM      3  C   UNL     1      -0.997   1.240  23.095  0.00  0.00    +0.000 C 
ENDBRANCH   4   2
BRANCH   6   7
ATOM      7  C   UNL     1      -0.472   3.249  25.589  0.00  0.00    +0.091 C 
BRANCH   7   8
ATOM      8  C   UNL     1      -1.031   3.762  25.264  0.00  0.00    +0.242 C 
ATOM      9  O   UNL     1      -0.797   4.338  24.721  0.00  0.00    -0.273 OA
ATOM     10  N   UNL     1      -1.824   3.699  25.482  0.00  0.00    -0.199 NA
BRANCH  10  11
ATOM     11  C   UNL     1      -2.383   4.212  25.157  0.00  0.00    +0.160 C 
BRANCH  11  12
ATOM     12  C   UNL     1      -3.183   4.013  25.173  0.00  0.00    +0.081 A 
ATOM     13  N   UNL     1      -3.588   3.987  25.891  0.00  0.00    -0.246 NA
ATOM     14  C   UNL     1      -4.389   3.788  25.906  0.00  0.00    +0.099 A 
ATOM     15  C   UNL     1      -4.784   3.614  25.204  0.00  0.00    +0.021 A 
ATOM     16  C   UNL     1      -4.379   3.639  24.486  0.00  0.00    +0.003 A 
ATOM     17  C   UNL     1      -3.579   3.839  24.470  0.00  0.00    +0.017 A 
ENDBRANCH  11  12
ENDBRANCH  10  11
ENDBRANCH   7   8
ENDBRANCH   6   7
BRANCH  21  22
ATOM     22  C   UNL     1      -0.496   0.054  24.766  0.00  0.00    +0.120 C 
BRANCH  22  23
ATOM     23  N   UNL     1      -1.201  -0.376  24.801  0.00  0.00    -0.201 NA
ATOM     24  C   UNL     1      -1.181  -1.192  24.923  0.00  0.00    +0.265 C 
ATOM     25  O   UNL     1      -0.457  -1.579  25.010  0.00  0.00    -0.268 OA
BRANCH  24  26
ATOM     26  C   UNL     1      -1.885  -1.620  24.957  0.00  0.00    +0.055 A 
ATOM     27  C   UNL     1      -1.981  -2.292  24.488  0.00  0.00    +0.007 A 
ATOM     28  C   UNL     1      -2.686  -2.721  24.523  0.00  0.00    +0.030 A 
ATOM     29  C   UNL     1      -3.293  -2.478  25.026  0.00  0.00    +0.140 A 
ATOM     30  F   UNL     1      -3.997  -2.906  25.060  0.00  0.00    -0.204 F 
ATOM     31  C   UNL     1      -3.196  -1.805  25.495  0.00  0.00    +0.030 A 
ATOM     32  C   UNL     1      -2.492  -1.377  25.461  0.00  0.00    +0.007 A 
ENDBRANCH  24  26
ENDBRANCH  22  23
ENDBRANCH  21  22
TORSDOF 8
ENDMDL
