MODEL 1
REMARK VINA RESULT:     -11.2      0.000      0.000
REMARK  Name = 
REMARK  2 active torsions:
REMARK  status: ('A' for Active; 'I' for Inactive)
REMARK    1  A    between atoms: C_4  and  O_5
REMARK    2  A    between atoms: O_5  and  C_6
REMARK                            x       y       z     vdW  Elec       q    Type
REMARK                         _______ _______ _______ _____ _____    ______ ____
ROOT
ATOM      6  C   UNL     1      -3.681   0.857  24.070  0.00  0.00    +0.217 C 
ATOM      7  C   UNL     1      -3.030   0.578  23.648  0.00  0.00    +0.187 C 
ATOM      8  O   UNL     1      -2.370   0.996  23.384  0.00  0.00    -0.348 OA
ATOM      9  C   UNL     1      -2.199   1.798  23.476  0.00  0.00    +0.164 C 
ATOM     10  C   UNL     1      -2.644   2.379  23.856  0.00  0.00    +0.127 C 
ATOM     11  N   UNL     1      -3.372   2.301  24.237  0.00  0.00    -0.258 N 
ATOM     12  C   UNL     1      -3.833   1.624  24.332  0.00  0.00    +0.141 C 
ATOM     13  C   UNL     1      -3.680   2.993  24.566  0.00  0.00    +0.307 C 
ATOM     14  O   UNL     1      -3.261   3.702  24.501  0.00  0.00    -0.252 OA
ATOM     15  N   UNL     1      -4.404   2.976  24.959  0.00  0.00    -0.259 N 
ATOM     16  C   UNL     1      -4.711   3.667  25.289  0.00  0.00    +0.127 C 
ATOM     17  C   UNL     1      -5.436   3.650  25.682  0.00  0.00    +0.164 C 
ATOM     18  O   UNL     1      -5.854   2.942  25.747  0.00  0.00    -0.350 OA
ATOM     19  C   UNL     1      -5.547   2.251  25.417  0.00  0.00    +0.164 C 
ATOM     20  C   UNL     1      -4.822   2.268  25.024  0.00  0.00    +0.127 C 
ENDROOT
BRANCH   6   5
ATOM      5  O   UNL     1      -4.256   0.295  24.255  0.00  0.00    -0.460 OA
BRANCH   5   4
ATOM      1  C   UNL     1      -3.245  -1.514  26.222  0.00  0.00    +0.052 C 
ATOM      2  C   UNL     1      -3.525  -1.372  25.460  0.00  0.00    +0.062 A 
ATOM      3  N   UNL     1      -3.750  -0.610  25.238  0.00  0.00    -0.216 NA
ATOM      4  C   UNL     1      -4.031  -0.468  24.476  0.00  0.00    +0.225 A 
ATOM     21  C   UNL     1      -4.087  -1.087  23.934  0.00  0.00    +0.058 A 
ATOM     22  C   UNL     1      -3.862  -1.850  24.156  0.00  0.00    +0.006 A 
ATOM     23  C   UNL     1      -3.581  -1.992  24.918  0.00  0.00    +0.015 A 
ENDBRANCH   5   4
ENDBRANCH   6   5
TORSDOF 2
ENDMDL
MODEL 2
REMARK VINA RESULT:     -11.1      1.152      2.248
REMARK  Name = 
REMARK  2 active torsions:
REMARK  status: ('A' for Active; 'I' for Inactive)
REMARK    1  A    between atoms: C_4  and  O_5
REMARK    2  A    between atoms: O_5  and  C_6
REMARK                            x       y       z     vdW  Elec       q    Type
REMARK                         _______ _______ _______ _____ _____    ______ ____
ROOT
ATOM      6  C   UNL     1      -4.157   1.424  24.683  0.00  0.00    +0.217 C 
ATOM      7  C   UNL     1      -4.941   1.170  24.716  0.00  0.00    +0.187 C 
ATOM      8  O   UNL     1      -5.598   1.568  25.015  0.00  0.00    -0.348 OA
ATOM      9  C   UNL     1      -5.635   2.319  25.355  0.00  0.00    +0.164 C 
ATOM     10  C   UNL     1      -5.023   2.857  25.480  0.00  0.00    +0.127 C 
ATOM     11  N   UNL     1      -4.222   2.777  25.295  0.00  0.00    -0.258 N 
ATOM     12  C   UNL     1      -3.837   2.140  24.941  0.00  0.00    +0.141 C 
ATOM     13  C   UNL     1      -3.744   3.420  25.492  0.00  0.00    +0.307 C 
ATOM     14  O   UNL     1      -4.075   4.087  25.849  0.00  0.00    -0.252 OA
ATOM     15  N   UNL     1      -2.935   3.397  25.331  0.00  0.00    -0.259 N 
ATOM     16  C   UNL     1      -2.457   4.040  25.527  0.00  0.00    +0.127 C 
ATOM     17  C   UNL     1      -1.648   4.017  25.366  0.00  0.00    +0.164 C 
ATOM     18  O   UNL     1      -1.317   3.351  25.009  0.00  0.00    -0.350 OA
ATOM     19  C   UNL     1      -1.796   2.708  24.813  0.00  0.00    +0.164 C 
ATOM     20  C   UNL     1      -2.604   2.731  24.974  0.00  0.00    +0.127 C 
ENDROOT
BRANCH   6   5
ATOM      5  O   UNL     1      -3.622   0.894  24.348  0.00  0.00    -0.460 OA
BRANCH   5   4
ATOM      1  C   UNL     1      -3.239  -1.375  26.043  0.00  0.00    +0.052 C 
ATOM      2  C   UNL     1      -3.510  -1.050  25.335  0.00  0.00    +0.062 A 
ATOM      3  N   UNL     1      -3.431  -0.241  25.195  0.00  0.00    -0.216 NA
ATOM      4  C   UNL     1      -3.702   0.084  24.488  0.00  0.00    +0.225 A 
ATOM     21  C   UNL     1      -4.054  -0.400  23.920  0.00  0.00    +0.058 A 
ATOM     22  C   UNL     1      -4.134  -1.209  24.060  0.00  0.00    +0.006 A 
ATOM     23  C   UNL     1      -3.862  -1.534  24.767  0.00  0.00    +0.015 A 
ENDBRANCH   5   4
ENDBRANCH   6   5
TORSDOF 2
ENDMDL
MODEL 3
REMARK VINA RESULT:     -10.4      1.465      4.021
REMARK  Name = 
REMARK  2 active torsions:
REMARK  status: ('A' for Active; 'I' for Inactive)
REMARK    1  A    between atoms: C_4  and  O_5
REMARK    2  A    between atoms: O_5  and  C_6
REMARK                            x       y       z     vdW  Elec       q    Type
REMARK                         _______ _______ _______ _____ _____    ______ ____
ROOT
ATOM      6  C   UNL     1      -2.858   0.847  24.456  0.00  0.00    +0.217 C 
ATOM      7  C   UNL     1      -2.344   1.448  24.689  0.00  0.00    +0.187 C 
ATOM      8  O   UNL     1      -1.629   1.386  25.093  0.00  0.00    -0.348 OA
ATOM      9  C   UNL     1      -1.250   0.705  25.365  0.00  0.00    +0.164 C 
ATOM     10  C   UNL     1      -1.493  -0.081  25.300  0.00  0.00    +0.127 C 
ATOM     11  N   UNL     1      -2.176  -0.379  24.946  0.00  0.00    -0.258 N 
ATOM     12  C   UNL     1      -2.783   0.033  24.571  0.00  0.00    +0.141 C 
ATOM     13  C   UNL     1      -2.263  -1.199  24.971  0.00  0.00    +0.307 C 
ATOM     14  O   UNL     1      -1.685  -1.664  25.334  0.00  0.00    -0.252 OA
ATOM     15  N   UNL     1      -2.926  -1.555  24.633  0.00  0.00    -0.259 N 
ATOM     16  C   UNL     1      -3.012  -2.375  24.658  0.00  0.00    +0.127 C 
ATOM     17  C   UNL     1      -3.675  -2.730  24.320  0.00  0.00    +0.164 C 
ATOM     18  O   UNL     1      -4.252  -2.266  23.957  0.00  0.00    -0.350 OA
ATOM     19  C   UNL     1      -4.166  -1.446  23.932  0.00  0.00    +0.164 C 
ATOM     20  C   UNL     1      -3.503  -1.090  24.270  0.00  0.00    +0.127 C 
ENDROOT
BRANCH   6   5
ATOM      5  O   UNL     1      -3.537   1.091  24.056  0.00  0.00    -0.460 OA
BRANCH   5   4
ATOM      1  C   UNL     1      -5.561   2.241  25.715  0.00  0.00    +0.052 C 
ATOM      2  C   UNL     1      -4.967   2.327  25.148  0.00  0.00    +0.062 A 
ATOM      3  N   UNL     1      -4.549   1.666  24.885  0.00  0.00    -0.216 NA
ATOM      4  C   UNL     1      -3.956   1.752  24.319  0.00  0.00    +0.225 A 
ATOM     21  C   UNL     1      -3.780   2.498  24.015  0.00  0.00    +0.058 A 
ATOM     22  C   UNL     1      -4.199   3.160  24.278  0.00  0.00    +0.006 A 
ATOM     23  C   UNL     1      -4.792   3.074  24.844  0.00  0.00    +0.015 A 
ENDBRANCH   5   4
ENDBRANCH   6   5
TORSDOF 2
ENDMDL
MODEL 4
REMARK VINA RESULT:     -10.0      1.732      4.417
REMARK  Name = 
REMARK  2 active torsions:
REMARK  status: ('A' for Active; 'I' for Inactive)
REMARK    1  A    between atoms: C_4  and  O_5
REMARK    2  A    between atoms: O_5  and  C_6
REMARK                            x       y       z     vdW  Elec       q    Type
REMARK                         _______ _______ _______ _____ _____    ______ ____
ROOT
ATOM      6  C   UNL     1      -3.217   0.989  24.531  0.00  0.00    +0.217 C 
ATOM      7  C   UNL     1      -3.984   0.908  24.821  0.00  0.00    +0.187 C 
ATOM      8  O   UNL     1      -4.320   0.267  25.216  0.00  0.00    -0.348 OA
ATOM      9  C   UNL     1      -3.970  -0.452  25.419  0.00  0.00    +0.164 C 
ATOM     10  C   UNL     1      -3.199  -0.708  25.276  0.00  0.00    +0.127 C 
ATOM     11  N   UNL     1      -2.587  -0.307  24.896  0.00  0.00    -0.258 N 
ATOM     12  C   UNL     1      -2.594   0.448  24.564  0.00  0.00    +0.141 C 
ATOM     13  C   UNL     1      -1.872  -0.715  24.839  0.00  0.00    +0.307 C 
ATOM     14  O   UNL     1      -1.806  -1.476  25.154  0.00  0.00    -0.252 OA
ATOM     15  N   UNL     1      -1.224  -0.364  24.469  0.00  0.00    -0.259 N 
ATOM     16  C   UNL     1      -0.510  -0.773  24.412  0.00  0.00    +0.127 C 
ATOM     17  C   UNL     1       0.138  -0.422  24.042  0.00  0.00    +0.164 C 
ATOM     18  O   UNL     1       0.072   0.338  23.728  0.00  0.00    -0.350 OA
ATOM     19  C   UNL     1      -0.643   0.746  23.784  0.00  0.00    +0.164 C 
ATOM     20  C   UNL     1      -1.290   0.395  24.155  0.00  0.00    +0.127 C 
ENDROOT
BRANCH   6   5
ATOM      5  O   UNL     1      -3.048   1.705  24.158  0.00  0.00    -0.460 OA
BRANCH   5   4
ATOM      1  C   UNL     1      -2.681   3.884  25.970  0.00  0.00    +0.052 C 
ATOM      2  C   UNL     1      -3.131   3.503  25.393  0.00  0.00    +0.062 A 
ATOM      3  N   UNL     1      -2.865   2.795  25.064  0.00  0.00    -0.216 NA
ATOM      4  C   UNL     1      -3.314   2.414  24.487  0.00  0.00    +0.225 A 
ATOM     21  C   UNL     1      -4.029   2.741  24.238  0.00  0.00    +0.058 A 
ATOM     22  C   UNL     1      -4.295   3.450  24.567  0.00  0.00    +0.006 A 
ATOM     23  C   UNL     1      -3.847   3.831  25.144  0.00  0.00    +0.015 A 
ENDBRANCH   5   4
ENDBRANCH   6   5
TORSDOF 2
ENDMDL
