MODEL 1
REMARK VINA RESULT:     -10.7      0.000      0.000
REMARK  Name = 
REMARK  6 active torsions:
REMARK  status: ('A' for Active; 'I' for Inactive)
REMARK    1  A    between atoms: O_2  and  C_3
REMARK    2  A    between atoms: C_3  and  C_4
REMARK    3  A    between atoms: C_4  and  N_5
REMARK    4  A    between atoms: C_11  and  C_13
REMARK    5  A    between atoms: C_24  and  C_25
REMARK    6  A    between atoms: C_25  and  C_26
REMARK                            x       y       z     vdW  Elec       q    Type
REMARK                         _______ _______ _______ _____ _____    ______ ____
ROOT
ATOM     13  C   UNL     1      -1.883   1.036  25.047  0.00  0.00    +0.154 C 
ATOM     14  C   UNL     1      -1.611   1.773  25.296  0.00  0.00    +0.055 C 
ATOM     15  C   UNL     1      -1.999   2.501  25.270  0.00  0.00    +0.000 A 
ATOM     16  C   UNL     1      -1.664   3.205  25.539  0.00  0.00    +0.095 A 
ATOM     17  N   UNL     1      -2.213   3.810  25.425  0.00  0.00    -0.244 NA
ATOM     18  C   UNL     1      -2.888   3.480  25.084  0.00  0.00    +0.081 A 
ATOM     19  C   UNL     1      -2.756   2.671  24.989  0.00  0.00    +0.013 A 
ATOM     20  C   UNL     1      -3.311   2.154  24.664  0.00  0.00    -0.005 A 
ATOM     21  C   UNL     1      -4.059   2.524  24.424  0.00  0.00    -0.003 A 
ATOM     22  C   UNL     1      -4.192   3.333  24.519  0.00  0.00    +0.001 A 
ATOM     23  C   UNL     1      -3.606   3.811  24.849  0.00  0.00    +0.019 A 
ATOM     24  C   UNL     1      -3.247   1.342  24.540  0.00  0.00    +0.095 C 
ATOM     29  N   UNL     1      -2.612   0.844  24.710  0.00  0.00    -0.207 NA
ENDROOT
BRANCH  13  11
ATOM      5  N   UNL     1       0.361  -0.054  23.427  0.00  0.00    -0.268 NA
ATOM      6  C   UNL     1      -0.164   0.574  23.328  0.00  0.00    +0.094 C 
ATOM      7  C   UNL     1      -0.737   0.728  23.900  0.00  0.00    +0.111 C 
ATOM      8  N   UNL     1      -0.785   0.253  24.573  0.00  0.00    -0.276 N 
ATOM      9  C   UNL     1      -0.261  -0.375  24.674  0.00  0.00    +0.111 C 
ATOM     10  C   UNL     1       0.313  -0.528  24.100  0.00  0.00    +0.094 C 
ATOM     11  C   UNL     1      -1.358   0.407  25.147  0.00  0.00    +0.242 C 
ATOM     12  O   UNL     1      -1.407  -0.067  25.820  0.00  0.00    -0.273 OA
BRANCH   5   4
ATOM      4  C   UNL     1       0.934  -0.208  22.854  0.00  0.00    +0.105 C 
BRANCH   4   3
ATOM      3  C   UNL     1       1.677   0.148  22.907  0.00  0.00    +0.160 C 
BRANCH   3   2
ATOM      1  C   UNL     1       3.014   0.277  22.421  0.00  0.00    +0.174 C 
ATOM      2  O   UNL     1       2.235   0.028  22.312  0.00  0.00    -0.350 OA
ENDBRANCH   3   2
ENDBRANCH   4   3
ENDBRANCH   5   4
ENDBRANCH  13  11
BRANCH  24  25
ATOM     25  C   UNL     1      -3.905   0.978  24.201  0.00  0.00    +0.022 C 
BRANCH  25  26
ATOM     26  C   UNL     1      -4.140   0.229  24.456  0.00  0.00    +0.002 C 
ATOM     27  C   UNL     1      -4.028  -0.427  23.967  0.00  0.00    +0.000 C 
ATOM     28  C   UNL     1      -4.485   0.136  25.200  0.00  0.00    +0.000 C 
ENDBRANCH  25  26
ENDBRANCH  24  25
TORSDOF 6
ENDMDL
MODEL 2
REMARK VINA RESULT:     -10.1      2.019      5.253
REMARK  Name = 
REMARK  6 active torsions:
REMARK  status: ('A' for Active; 'I' for Inactive)
REMARK    1  A    between atoms: O_2  and  C_3
REMARK    2  A    between atoms: C_3  and  C_4
REMARK    3  A    between atoms: C_4  and  N_5
REMARK    4  A    between atoms: C_11  and  C_13
REMARK    5  A    between atoms: C_24  and  C_25
REMARK    6  A    between atoms: C_25  and  C_26
REMARK                            x       y       z     vdW  Elec       q    Type
REMARK                         _______ _______ _______ _____ _____    ______ ____
ROOT
ATOM     13  C   UNL     1      -3.076   0.421  23.960  0.00  0.00    +0.154 C 
ATOM     14  C   UNL     1      -3.712  -0.065  23.760  0.00  0.00    +0.055 C 
ATOM     15  C   UNL     1      -3.834  -0.859  23.950  0.00  0.00    +0.000 A 
ATOM     16  C   UNL     1      -4.498  -1.286  23.714  0.00  0.00    +0.095 A 
ATOM     17  N   UNL     1      -4.425  -2.054  24.007  0.00  0.00    -0.244 NA
ATOM     18  C   UNL     1      -3.715  -2.101  24.424  0.00  0.00    +0.081 A 
ATOM     19  C   UNL     1      -3.349  -1.362  24.389  0.00  0.00    +0.013 A 
ATOM     20  C   UNL     1      -2.623  -1.196  24.746  0.00  0.00    -0.005 A 
ATOM     21  C   UNL     1      -2.262  -1.863  25.169  0.00  0.00    -0.003 A 
ATOM     22  C   UNL     1      -2.627  -2.602  25.204  0.00  0.00    +0.001 A 
ATOM     23  C   UNL     1      -3.354  -2.721  24.831  0.00  0.00    +0.019 A 
ATOM     24  C   UNL     1      -2.204  -0.487  24.751  0.00  0.00    +0.095 C 
ATOM     29  N   UNL     1      -2.405   0.233  24.402  0.00  0.00    -0.207 NA
ENDROOT
BRANCH  13  11
ATOM      5  N   UNL     1      -4.222   2.940  25.049  0.00  0.00    -0.268 NA
ATOM      6  C   UNL     1      -4.182   2.164  25.325  0.00  0.00    +0.094 C 
ATOM      7  C   UNL     1      -3.813   1.583  24.870  0.00  0.00    +0.111 C 
ATOM      8  N   UNL     1      -3.485   1.778  24.139  0.00  0.00    -0.276 N 
ATOM      9  C   UNL     1      -3.526   2.554  23.862  0.00  0.00    +0.111 C 
ATOM     10  C   UNL     1      -3.895   3.135  24.317  0.00  0.00    +0.094 C 
ATOM     11  C   UNL     1      -3.117   1.197  23.683  0.00  0.00    +0.242 C 
ATOM     12  O   UNL     1      -2.789   1.391  22.952  0.00  0.00    -0.273 OA
BRANCH   5   4
ATOM      4  C   UNL     1      -4.591   3.521  25.504  0.00  0.00    +0.105 C 
BRANCH   4   3
ATOM      3  C   UNL     1      -5.362   3.757  25.328  0.00  0.00    +0.160 C 
BRANCH   3   2
ATOM      1  C   UNL     1      -6.202   4.884  25.578  0.00  0.00    +0.174 C 
ATOM      2  O   UNL     1      -5.779   4.233  25.856  0.00  0.00    -0.350 OA
ENDBRANCH   3   2
ENDBRANCH   4   3
ENDBRANCH   5   4
ENDBRANCH  13  11
BRANCH  24  25
ATOM     25  C   UNL     1      -1.487  -0.498  25.160  0.00  0.00    +0.022 C 
BRANCH  25  26
ATOM     26  C   UNL     1      -0.838  -0.083  24.865  0.00  0.00    +0.002 C 
ATOM     27  C   UNL     1      -0.602   0.623  25.223  0.00  0.00    +0.000 C 
ATOM     28  C   UNL     1      -0.424  -0.374  24.213  0.00  0.00    +0.000 C 
ENDBRANCH  25  26
ENDBRANCH  24  25
TORSDOF 6
ENDMDL
MODEL 3
REMARK VINA RESULT:     -10.1      1.628      3.056
REMARK  Name = 
REMARK  6 active torsions:
REMARK  status: ('A' for Active; 'I' for Inactive)
REMARK    1  A    between atoms: O_2  and  C_3
REMARK    2  A    between atoms: C_3  and  C_4
REMARK    3  A    between atoms: C_4  and  N_5
REMARK    4  A    between atoms: C_11  and  C_13
REMARK    5  A    between atoms: C_24  and  C_25
REMARK    6  A    between atoms: C_25  and  C_26
REMARK                            x       y       z     vdW  Elec       q    Type
REMARK                         _______ _______ _______ _____ _____    ______ ____
ROOT
ATOM     13  C   UNL     1      -2.938   2.268  24.070  0.00  0.00    +0.154 C 
ATOM     14  C   UNL     1      -3.610   1.789  24.082  0.00  0.00    +0.055 C 
ATOM     15  C   UNL     1      -4.335   1.930  24.449  0.00  0.00    +0.000 A 
ATOM     16  C   UNL     1      -4.969   1.403  24.420  0.00  0.00    +0.095 A 
ATOM     17  N   UNL     1      -5.594   1.731  24.847  0.00  0.00    -0.244 NA
ATOM     18  C   UNL     1      -5.347   2.462  25.140  0.00  0.00    +0.081 A 
ATOM     19  C   UNL     1      -4.568   2.585  24.894  0.00  0.00    +0.013 A 
ATOM     20  C   UNL     1      -4.133   3.260  25.083  0.00  0.00    -0.005 A 
ATOM     21  C   UNL     1      -4.555   3.845  25.566  0.00  0.00    -0.003 A 
ATOM     22  C   UNL     1      -5.333   3.722  25.813  0.00  0.00    +0.001 A 
ATOM     23  C   UNL     1      -5.728   3.030  25.599  0.00  0.00    +0.019 A 
ATOM     24  C   UNL     1      -3.358   3.447  24.873  0.00  0.00    +0.095 C 
ATOM     29  N   UNL     1      -2.826   3.006  24.422  0.00  0.00    -0.207 NA
ENDROOT
BRANCH  13  11
ATOM      5  N   UNL     1      -0.904   0.173  24.635  0.00  0.00    -0.268 NA
ATOM      6  C   UNL     1      -1.549   0.471  25.053  0.00  0.00    +0.094 C 
ATOM      7  C   UNL     1      -2.012   1.070  24.726  0.00  0.00    +0.111 C 
ATOM      8  N   UNL     1      -1.829   1.371  23.979  0.00  0.00    -0.276 N 
ATOM      9  C   UNL     1      -1.185   1.073  23.561  0.00  0.00    +0.111 C 
ATOM     10  C   UNL     1      -0.721   0.473  23.889  0.00  0.00    +0.094 C 
ATOM     11  C   UNL     1      -2.293   1.970  23.651  0.00  0.00    +0.242 C 
ATOM     12  O   UNL     1      -2.111   2.271  22.905  0.00  0.00    -0.273 OA
BRANCH   5   4
ATOM      4  C   UNL     1      -0.441  -0.426  24.963  0.00  0.00    +0.105 C 
BRANCH   4   3
ATOM      3  C   UNL     1      -0.719  -1.203  24.977  0.00  0.00    +0.160 C 
BRANCH   3   2
ATOM      1  C   UNL     1      -0.503  -2.582  25.277  0.00  0.00    +0.174 C 
ATOM      2  O   UNL     1      -0.279  -1.792  25.350  0.00  0.00    -0.350 OA
ENDBRANCH   3   2
ENDBRANCH   4   3
ENDBRANCH   5   4
ENDBRANCH  13  11
BRANCH  24  25
ATOM     25  C   UNL     1      -3.077   4.171  25.150  0.00  0.00    +0.022 C 
BRANCH  25  26
ATOM     26  C   UNL     1      -2.305   4.232  25.436  0.00  0.00    +0.002 C 
ATOM     27  C   UNL     1      -1.730   4.626  24.993  0.00  0.00    +0.000 C 
ATOM     28  C   UNL     1      -2.109   3.899  26.165  0.00  0.00    +0.000 C 
ENDBRANCH  25  26
ENDBRANCH  24  25
TORSDOF 6
ENDMDL
MODEL 4
REMARK VINA RESULT:     -10.0      1.373      3.018
REMARK  Name = 
REMARK  6 active torsions:
REMARK  status: ('A' for Active; 'I' for Inactive)
REMARK    1  A    between atoms: O_2  and  C_3
REMARK    2  A    between atoms: C_3  and  C_4
REMARK    3  A    between atoms: C_4  and  N_5
REMARK    4  A    between atoms: C_11  and  C_13
REMARK    5  A    between atoms: C_24  and  C_25
REMARK    6  A    between atoms: C_25  and  C_26
REMARK                            x       y       z     vdW  Elec       q    Type
REMARK                         _______ _______ _______ _____ _____    ______ ____
ROOT
ATOM     13  C   UNL     1      -1.856  -0.052  24.871  0.00  0.00    +0.154 C 
ATOM     14  C   UNL     1      -1.705  -0.846  25.037  0.00  0.00    +0.055 C 
ATOM     15  C   UNL     1      -2.186  -1.502  24.896  0.00  0.00    +0.000 A 
ATOM     16  C   UNL     1      -1.970  -2.274  25.089  0.00  0.00    +0.095 A 
ATOM     17  N   UNL     1      -2.587  -2.775  24.867  0.00  0.00    -0.244 NA
ATOM     18  C   UNL     1      -3.184  -2.312  24.536  0.00  0.00    +0.081 A 
ATOM     19  C   UNL     1      -2.937  -1.525  24.553  0.00  0.00    +0.013 A 
ATOM     20  C   UNL     1      -3.391  -0.898  24.268  0.00  0.00    -0.005 A 
ATOM     21  C   UNL     1      -4.163  -1.124  23.941  0.00  0.00    -0.003 A 
ATOM     22  C   UNL     1      -4.412  -1.911  23.923  0.00  0.00    +0.001 A 
ATOM     23  C   UNL     1      -3.922  -2.505  24.220  0.00  0.00    +0.019 A 
ATOM     24  C   UNL     1      -3.208  -0.095  24.254  0.00  0.00    +0.095 C 
ATOM     29  N   UNL     1      -2.525   0.282  24.522  0.00  0.00    -0.207 NA
ENDROOT
BRANCH  13  11
ATOM      5  N   UNL     1       0.687   0.801  23.586  0.00  0.00    -0.268 NA
ATOM      6  C   UNL     1       0.090   0.272  23.377  0.00  0.00    +0.094 C 
ATOM      7  C   UNL     1      -0.558   0.164  23.875  0.00  0.00    +0.111 C 
ATOM      8  N   UNL     1      -0.610   0.586  24.582  0.00  0.00    -0.276 N 
ATOM      9  C   UNL     1      -0.013   1.115  24.792  0.00  0.00    +0.111 C 
ATOM     10  C   UNL     1       0.636   1.223  24.294  0.00  0.00    +0.094 C 
ATOM     11  C   UNL     1      -1.259   0.477  25.081  0.00  0.00    +0.242 C 
ATOM     12  O   UNL     1      -1.311   0.898  25.788  0.00  0.00    -0.273 OA
BRANCH   5   4
ATOM      4  C   UNL     1       1.336   0.910  23.088  0.00  0.00    +0.105 C 
BRANCH   4   3
ATOM      3  C   UNL     1       1.948   0.356  23.081  0.00  0.00    +0.160 C 
BRANCH   3   2
ATOM      1  C   UNL     1       3.312   0.325  22.660  0.00  0.00    +0.174 C 
ATOM      2  O   UNL     1       2.510   0.370  22.477  0.00  0.00    -0.350 OA
ENDBRANCH   3   2
ENDBRANCH   4   3
ENDBRANCH   5   4
ENDBRANCH  13  11
BRANCH  24  25
ATOM     25  C   UNL     1      -3.784   0.399  23.930  0.00  0.00    +0.022 C 
BRANCH  25  26
ATOM     26  C   UNL     1      -3.940   1.133  24.274  0.00  0.00    +0.002 C 
ATOM     27  C   UNL     1      -4.360   1.175  24.983  0.00  0.00    +0.000 C 
ATOM     28  C   UNL     1      -3.676   1.824  23.908  0.00  0.00    +0.000 C 
ENDBRANCH  25  26
ENDBRANCH  24  25
TORSDOF 6
ENDMDL
MODEL 5
REMARK VINA RESULT:     -10.0      2.080      2.812
REMARK  Name = 
REMARK  6 active torsions:
REMARK  status: ('A' for Active; 'I' for Inactive)
REMARK    1  A    between atoms: O_2  and  C_3
REMARK    2  A    between atoms: C_3  and  C_4
REMARK    3  A    between atoms: C_4  and  N_5
REMARK    4  A    between atoms: C_11  and  C_13
REMARK    5  A    between atoms: C_24  and  C_25
REMARK    6  A    between atoms: C_25  and  C_26
REMARK                            x       y       z     vdW  Elec       q    Type
REMARK                         _______ _______ _______ _____ _____    ______ ____
ROOT
ATOM     13  C   UNL     1      -3.378   1.908  24.157  0.00  0.00    +0.154 C 
ATOM     14  C   UNL     1      -3.630   2.657  24.394  0.00  0.00    +0.055 C 
ATOM     15  C   UNL     1      -4.320   2.864  24.796  0.00  0.00    +0.000 A 
ATOM     16  C   UNL     1      -4.511   3.639  25.003  0.00  0.00    +0.095 A 
ATOM     17  N   UNL     1      -5.236   3.628  25.396  0.00  0.00    -0.244 NA
ATOM     18  C   UNL     1      -5.494   2.845  25.432  0.00  0.00    +0.081 A 
ATOM     19  C   UNL     1      -4.928   2.372  25.062  0.00  0.00    +0.013 A 
ATOM     20  C   UNL     1      -4.995   1.553  24.989  0.00  0.00    -0.005 A 
ATOM     21  C   UNL     1      -5.716   1.213  25.335  0.00  0.00    -0.003 A 
ATOM     22  C   UNL     1      -6.282   1.684  25.706  0.00  0.00    +0.001 A 
ATOM     23  C   UNL     1      -6.171   2.501  25.754  0.00  0.00    +0.019 A 
ATOM     24  C   UNL     1      -4.473   1.023  24.635  0.00  0.00    +0.095 C 
ATOM     29  N   UNL     1      -3.753   1.181  24.264  0.00  0.00    -0.207 NA
ENDROOT
BRANCH  13  11
ATOM      5  N   UNL     1      -0.540   2.090  25.031  0.00  0.00    -0.268 NA
ATOM      6  C   UNL     1      -1.263   2.116  25.426  0.00  0.00    +0.094 C 
ATOM      7  C   UNL     1      -1.968   2.046  25.004  0.00  0.00    +0.111 C 
ATOM      8  N   UNL     1      -1.949   1.952  24.184  0.00  0.00    -0.276 N 
ATOM      9  C   UNL     1      -1.227   1.927  23.788  0.00  0.00    +0.111 C 
ATOM     10  C   UNL     1      -0.522   1.996  24.212  0.00  0.00    +0.094 C 
ATOM     11  C   UNL     1      -2.654   1.883  23.760  0.00  0.00    +0.242 C 
ATOM     12  O   UNL     1      -2.637   1.788  22.941  0.00  0.00    -0.273 OA
BRANCH   5   4
ATOM      4  C   UNL     1       0.164   2.159  25.454  0.00  0.00    +0.105 C 
BRANCH   4   3
ATOM      3  C   UNL     1       0.155   2.443  26.229  0.00  0.00    +0.160 C 
BRANCH   3   2
ATOM      1  C   UNL     1       0.879   2.630  27.446  0.00  0.00    +0.174 C 
ATOM      2  O   UNL     1       0.864   2.593  26.622  0.00  0.00    -0.350 OA
ENDBRANCH   3   2
ENDBRANCH   4   3
ENDBRANCH   5   4
ENDBRANCH  13  11
BRANCH  24  25
ATOM     25  C   UNL     1      -4.699   0.230  24.652  0.00  0.00    +0.022 C 
BRANCH  25  26
ATOM     26  C   UNL     1      -4.125  -0.362  24.693  0.00  0.00    +0.002 C 
ATOM     27  C   UNL     1      -3.901  -0.767  24.010  0.00  0.00    +0.000 C 
ATOM     28  C   UNL     1      -3.777  -0.548  25.417  0.00  0.00    +0.000 C 
ENDBRANCH  25  26
ENDBRANCH  24  25
TORSDOF 6
ENDMDL
MODEL 6
REMARK VINA RESULT:      -9.8      2.429      3.648
REMARK  Name = 
REMARK  6 active torsions:
REMARK  status: ('A' for Active; 'I' for Inactive)
REMARK    1  A    between atoms: O_2  and  C_3
REMARK    2  A    between atoms: C_3  and  C_4
REMARK    3  A    between atoms: C_4  and  N_5
REMARK    4  A    between atoms: C_11  and  C_13
REMARK    5  A    between atoms: C_24  and  C_25
REMARK    6  A    between atoms: C_25  and  C_26
REMARK                            x       y       z     vdW  Elec       q    Type
REMARK                         _______ _______ _______ _____ _____    ______ ____
ROOT
ATOM     13  C   UNL     1      -2.985   2.152  24.164  0.00  0.00    +0.154 C 
ATOM     14  C   UNL     1      -2.193   2.184  23.933  0.00  0.00    +0.055 C 
ATOM     15  C   UNL     1      -1.613   2.724  24.160  0.00  0.00    +0.000 A 
ATOM     16  C   UNL     1      -0.834   2.697  23.888  0.00  0.00    +0.095 A 
ATOM     17  N   UNL     1      -0.420   3.321  24.234  0.00  0.00    -0.244 NA
ATOM     18  C   UNL     1      -0.943   3.734  24.721  0.00  0.00    +0.081 A 
ATOM     19  C   UNL     1      -1.680   3.365  24.676  0.00  0.00    +0.013 A 
ATOM     20  C   UNL     1      -2.345   3.624  25.090  0.00  0.00    -0.005 A 
ATOM     21  C   UNL     1      -2.217   4.324  25.588  0.00  0.00    -0.003 A 
ATOM     22  C   UNL     1      -1.481   4.694  25.634  0.00  0.00    +0.001 A 
ATOM     23  C   UNL     1      -0.843   4.398  25.200  0.00  0.00    +0.019 A 
ATOM     24  C   UNL     1      -3.105   3.307  25.092  0.00  0.00    +0.095 C 
ATOM     29  N   UNL     1      -3.391   2.652  24.680  0.00  0.00    -0.207 NA
ENDROOT
BRANCH  13  11
ATOM      5  N   UNL     1      -3.499  -0.670  24.949  0.00  0.00    -0.268 NA
ATOM      6  C   UNL     1      -3.055  -0.058  25.276  0.00  0.00    +0.094 C 
ATOM      7  C   UNL     1      -3.032   0.679  24.906  0.00  0.00    +0.111 C 
ATOM      8  N   UNL     1      -3.452   0.802  24.207  0.00  0.00    -0.276 N 
ATOM      9  C   UNL     1      -3.896   0.190  23.879  0.00  0.00    +0.111 C 
ATOM     10  C   UNL     1      -3.920  -0.547  24.250  0.00  0.00    +0.094 C 
ATOM     11  C   UNL     1      -3.429   1.539  23.835  0.00  0.00    +0.242 C 
ATOM     12  O   UNL     1      -3.849   1.663  23.137  0.00  0.00    -0.273 OA
BRANCH   5   4
ATOM      4  C   UNL     1      -3.523  -1.407  25.320  0.00  0.00    +0.105 C 
BRANCH   4   3
ATOM      3  C   UNL     1      -3.318  -2.087  24.901  0.00  0.00    +0.160 C 
BRANCH   3   2
ATOM      1  C   UNL     1      -3.298  -3.511  24.792  0.00  0.00    +0.174 C 
ATOM      2  O   UNL     1      -3.439  -2.831  25.236  0.00  0.00    -0.350 OA
ENDBRANCH   3   2
ENDBRANCH   4   3
ENDBRANCH   5   4
ENDBRANCH  13  11
BRANCH  24  25
ATOM     25  C   UNL     1      -3.655   3.695  25.569  0.00  0.00    +0.022 C 
BRANCH  25  26
ATOM     26  C   UNL     1      -4.447   3.731  25.340  0.00  0.00    +0.002 C 
ATOM     27  C   UNL     1      -5.015   3.293  25.749  0.00  0.00    +0.000 C 
ATOM     28  C   UNL     1      -4.671   4.205  24.703  0.00  0.00    +0.000 C 
ENDBRANCH  25  26
ENDBRANCH  24  25
TORSDOF 6
ENDMDL
MODEL 7
REMARK VINA RESULT:      -9.6      0.735      2.164
REMARK  Name = 
REMARK  6 active torsions:
REMARK  status: ('A' for Active; 'I' for Inactive)
REMARK    1  A    between atoms: O_2  and  C_3
REMARK    2  A    between atoms: C_3  and  C_4
REMARK    3  A    between atoms: C_4  and  N_5
REMARK    4  A    between atoms: C_11  and  C_13
REMARK    5  A    between atoms: C_24  and  C_25
REMARK    6  A    between atoms: C_25  and  C_26
REMARK                            x       y       z     vdW  Elec       q    Type
REMARK                         _______ _______ _______ _____ _____    ______ ____
ROOT
ATOM     13  C   UNL     1      -2.094   1.195  25.113  0.00  0.00    +0.154 C 
ATOM     14  C   UNL     1      -2.774   0.738  25.018  0.00  0.00    +0.055 C 
ATOM     15  C   UNL     1      -3.542   0.987  24.849  0.00  0.00    +0.000 A 
ATOM     16  C   UNL     1      -4.180   0.471  24.767  0.00  0.00    +0.095 A 
ATOM     17  N   UNL     1      -4.852   0.920  24.601  0.00  0.00    -0.244 NA
ATOM     18  C   UNL     1      -4.630   1.714  24.580  0.00  0.00    +0.081 A 
ATOM     19  C   UNL     1      -3.820   1.756  24.733  0.00  0.00    +0.013 A 
ATOM     20  C   UNL     1      -3.397   2.464  24.758  0.00  0.00    -0.005 A 
ATOM     21  C   UNL     1      -3.869   3.178  24.609  0.00  0.00    -0.003 A 
ATOM     22  C   UNL     1      -4.679   3.137  24.456  0.00  0.00    +0.001 A 
ATOM     23  C   UNL     1      -5.059   2.404  24.441  0.00  0.00    +0.019 A 
ATOM     24  C   UNL     1      -2.594   2.579  24.905  0.00  0.00    +0.095 C 
ATOM     29  N   UNL     1      -2.014   2.015  25.063  0.00  0.00    -0.207 NA
ENDROOT
BRANCH  13  11
ATOM      5  N   UNL     1       0.127   0.131  23.445  0.00  0.00    -0.268 NA
ATOM      6  C   UNL     1      -0.565   0.548  23.278  0.00  0.00    +0.094 C 
ATOM      7  C   UNL     1      -1.074   0.763  23.890  0.00  0.00    +0.111 C 
ATOM      8  N   UNL     1      -0.892   0.562  24.669  0.00  0.00    -0.276 N 
ATOM      9  C   UNL     1      -0.201   0.145  24.836  0.00  0.00    +0.111 C 
ATOM     10  C   UNL     1       0.309  -0.071  24.224  0.00  0.00    +0.094 C 
ATOM     11  C   UNL     1      -1.402   0.777  25.281  0.00  0.00    +0.242 C 
ATOM     12  O   UNL     1      -1.221   0.576  26.060  0.00  0.00    -0.273 OA
BRANCH   5   4
ATOM      4  C   UNL     1       0.636  -0.085  22.833  0.00  0.00    +0.105 C 
BRANCH   4   3
ATOM      3  C   UNL     1       1.430   0.140  22.858  0.00  0.00    +0.160 C 
BRANCH   3   2
ATOM      1  C   UNL     1       2.734   0.142  22.276  0.00  0.00    +0.174 C 
ATOM      2  O   UNL     1       1.940  -0.077  22.247  0.00  0.00    -0.350 OA
ENDBRANCH   3   2
ENDBRANCH   4   3
ENDBRANCH   5   4
ENDBRANCH  13  11
BRANCH  24  25
ATOM     25  C   UNL     1      -2.336   3.363  24.892  0.00  0.00    +0.022 C 
BRANCH  25  26
ATOM     26  C   UNL     1      -1.819   3.636  25.474  0.00  0.00    +0.002 C 
ATOM     27  C   UNL     1      -2.084   3.731  26.250  0.00  0.00    +0.000 C 
ATOM     28  C   UNL     1      -1.037   3.814  25.280  0.00  0.00    +0.000 C 
ENDBRANCH  25  26
ENDBRANCH  24  25
TORSDOF 6
ENDMDL
MODEL 8
REMARK VINA RESULT:      -9.1      1.705      4.237
REMARK  Name = 
REMARK  6 active torsions:
REMARK  status: ('A' for Active; 'I' for Inactive)
REMARK    1  A    between atoms: O_2  and  C_3
REMARK    2  A    between atoms: C_3  and  C_4
REMARK    3  A    between atoms: C_4  and  N_5
REMARK    4  A    between atoms: C_11  and  C_13
REMARK    5  A    between atoms: C_24  and  C_25
REMARK    6  A    between atoms: C_25  and  C_26
REMARK                            x       y       z     vdW  Elec       q    Type
REMARK                         _______ _______ _______ _____ _____    ______ ____
ROOT
ATOM     13  C   UNL     1      -2.276   0.696  24.057  0.00  0.00    +0.154 C 
ATOM     14  C   UNL     1      -1.487   0.649  23.820  0.00  0.00    +0.055 C 
ATOM     15  C   UNL     1      -0.927   0.073  24.007  0.00  0.00    +0.000 A 
ATOM     16  C   UNL     1      -0.149   0.089  23.733  0.00  0.00    +0.095 A 
ATOM     17  N   UNL     1       0.242  -0.573  24.034  0.00  0.00    -0.244 NA
ATOM     18  C   UNL     1      -0.295  -0.998  24.495  0.00  0.00    +0.081 A 
ATOM     19  C   UNL     1      -1.017  -0.598  24.479  0.00  0.00    +0.013 A 
ATOM     20  C   UNL     1      -1.691  -0.859  24.878  0.00  0.00    -0.005 A 
ATOM     21  C   UNL     1      -1.588  -1.596  25.327  0.00  0.00    -0.003 A 
ATOM     22  C   UNL     1      -0.866  -1.995  25.343  0.00  0.00    +0.001 A 
ATOM     23  C   UNL     1      -0.220  -1.696  24.927  0.00  0.00    +0.019 A 
ATOM     24  C   UNL     1      -2.438  -0.514  24.906  0.00  0.00    +0.095 C 
ATOM     29  N   UNL     1      -2.699   0.178  24.541  0.00  0.00    -0.207 NA
ENDROOT
BRANCH  13  11
ATOM      5  N   UNL     1      -2.483   3.542  24.897  0.00  0.00    -0.268 NA
ATOM      6  C   UNL     1      -2.062   2.892  25.179  0.00  0.00    +0.094 C 
ATOM      7  C   UNL     1      -2.133   2.160  24.805  0.00  0.00    +0.111 C 
ATOM      8  N   UNL     1      -2.626   2.079  24.148  0.00  0.00    -0.276 N 
ATOM      9  C   UNL     1      -3.047   2.729  23.865  0.00  0.00    +0.111 C 
ATOM     10  C   UNL     1      -2.975   3.461  24.240  0.00  0.00    +0.094 C 
ATOM     11  C   UNL     1      -2.697   1.347  23.774  0.00  0.00    +0.242 C 
ATOM     12  O   UNL     1      -3.189   1.265  23.117  0.00  0.00    -0.273 OA
BRANCH   5   4
ATOM      4  C   UNL     1      -2.412   4.274  25.270  0.00  0.00    +0.105 C 
BRANCH   4   3
ATOM      3  C   UNL     1      -1.686   4.667  25.274  0.00  0.00    +0.160 C 
BRANCH   3   2
ATOM      1  C   UNL     1      -1.059   5.906  24.941  0.00  0.00    +0.174 C 
ATOM      2  O   UNL     1      -1.663   5.491  25.318  0.00  0.00    -0.350 OA
ENDBRANCH   3   2
ENDBRANCH   4   3
ENDBRANCH   5   4
ENDBRANCH  13  11
BRANCH  24  25
ATOM     25  C   UNL     1      -3.001  -0.912  25.359  0.00  0.00    +0.022 C 
BRANCH  25  26
ATOM     26  C   UNL     1      -3.787  -0.938  25.110  0.00  0.00    +0.002 C 
ATOM     27  C   UNL     1      -4.013  -1.457  24.509  0.00  0.00    +0.000 C 
ATOM     28  C   UNL     1      -4.348  -0.446  25.462  0.00  0.00    +0.000 C 
ENDBRANCH  25  26
ENDBRANCH  24  25
TORSDOF 6
ENDMDL
