MODEL 1
REMARK VINA RESULT:     -13.4      0.000      0.000
REMARK  Name = 
REMARK  5 active torsions:
REMARK  status: ('A' for Active; 'I' for Inactive)
REMARK    1  A    between atoms: C_2  and  N_4
REMARK    2  A    between atoms: C_5  and  C_7
REMARK    3  A    between atoms: C_7  and  C_9
REMARK    4  A    between atoms: C_16  and  N_17
REMARK    5  A    between atoms: C_18  and  C_20
REMARK                            x       y       z     vdW  Elec       q    Type
REMARK                         _______ _______ _______ _____ _____    ______ ____
ROOT
ATOM      9  C   UNL     1      -3.859   3.248  24.643  0.00  0.00    +0.039 C 
ATOM     10  C   UNL     1      -4.494   3.356  25.158  0.00  0.00    +0.003 C 
ATOM     11  C   UNL     1      -4.940   2.708  25.404  0.00  0.00    +0.000 C 
ATOM     12  C   UNL     1      -4.752   1.951  25.136  0.00  0.00    +0.002 C 
ATOM     13  C   UNL     1      -5.387   2.060  25.651  0.00  0.00    +0.000 C 
ATOM     14  C   UNL     1      -5.198   1.303  25.382  0.00  0.00    +0.002 C 
ATOM     15  C   UNL     1      -5.011   0.546  25.114  0.00  0.00    +0.022 C 
ATOM     16  C   UNL     1      -4.375   0.437  24.599  0.00  0.00    +0.096 C 
ATOM     26  C   UNL     1      -3.928   1.086  24.352  0.00  0.00    +0.022 C 
ATOM     27  C   UNL     1      -3.294   0.977  23.837  0.00  0.00    +0.002 C 
ATOM     28  C   UNL     1      -4.117   1.842  24.621  0.00  0.00    +0.032 C 
ATOM     29  C   UNL     1      -3.670   2.491  24.374  0.00  0.00    +0.152 C 
ATOM     30  O   UNL     1      -3.035   2.382  23.859  0.00  0.00    -0.223 OA
ENDROOT
BRANCH  16  17
ATOM     17  N   UNL     1      -4.187  -0.320  24.330  0.00  0.00    -0.203 NA
ATOM     18  C   UNL     1      -4.037  -0.924  24.872  0.00  0.00    +0.265 C 
ATOM     19  O   UNL     1      -4.077  -0.772  25.682  0.00  0.00    -0.268 OA
BRANCH  18  20
ATOM     20  C   UNL     1      -3.849  -1.681  24.603  0.00  0.00    +0.058 A 
ATOM     21  C   UNL     1      -3.226  -2.097  24.949  0.00  0.00    +0.025 A 
ATOM     22  C   UNL     1      -3.037  -2.854  24.680  0.00  0.00    +0.099 A 
ATOM     23  N   UNL     1      -3.469  -3.194  24.067  0.00  0.00    -0.242 NA
ATOM     24  C   UNL     1      -4.093  -2.777  23.721  0.00  0.00    +0.099 A 
ATOM     25  C   UNL     1      -4.281  -2.021  23.990  0.00  0.00    +0.025 A 
ENDBRANCH  18  20
ENDBRANCH  16  17
BRANCH   9   7
ATOM      7  C   UNL     1      -3.411   3.896  24.396  0.00  0.00    +0.081 C 
ATOM      8  C   UNL     1      -3.563   4.247  23.666  0.00  0.00    +0.010 C 
BRANCH   7   5
ATOM      4  N   UNL     1      -2.046   4.275  24.585  0.00  0.00    -0.207 NA
ATOM      5  C   UNL     1      -2.813   4.192  24.880  0.00  0.00    +0.241 C 
ATOM      6  O   UNL     1      -2.980   4.405  25.660  0.00  0.00    -0.273 OA
BRANCH   4   2
ATOM      1  C   UNL     1      -0.936   4.051  25.456  0.00  0.00    +0.023 C 
ATOM      2  C   UNL     1      -1.448   4.571  25.069  0.00  0.00    +0.095 C 
ATOM      3  C   UNL     1      -1.360   5.385  25.167  0.00  0.00    +0.023 C 
ENDBRANCH   4   2
ENDBRANCH   7   5
ENDBRANCH   9   7
TORSDOF 5
ENDMDL
MODEL 2
REMARK VINA RESULT:     -12.5      0.951      5.182
REMARK  Name = 
REMARK  5 active torsions:
REMARK  status: ('A' for Active; 'I' for Inactive)
REMARK    1  A    between atoms: C_2  and  N_4
REMARK    2  A    between atoms: C_5  and  C_7
REMARK    3  A    between atoms: C_7  and  C_9
REMARK    4  A    between atoms: C_16  and  N_17
REMARK    5  A    between atoms: C_18  and  C_20
REMARK                            x       y       z     vdW  Elec       q    Type
REMARK                         _______ _______ _______ _____ _____    ______ ____
ROOT
ATOM      9  C   UNL     1      -4.117  -0.041  24.354  0.00  0.00    +0.039 C 
ATOM     10  C   UNL     1      -4.811   0.124  24.768  0.00  0.00    +0.003 C 
ATOM     11  C   UNL     1      -4.943   0.881  25.067  0.00  0.00    +0.000 C 
ATOM     12  C   UNL     1      -4.381   1.475  24.951  0.00  0.00    +0.002 C 
ATOM     13  C   UNL     1      -5.075   1.640  25.366  0.00  0.00    +0.000 C 
ATOM     14  C   UNL     1      -4.512   2.232  25.250  0.00  0.00    +0.002 C 
ATOM     15  C   UNL     1      -3.951   2.825  25.134  0.00  0.00    +0.022 C 
ATOM     16  C   UNL     1      -3.257   2.660  24.719  0.00  0.00    +0.096 C 
ATOM     26  C   UNL     1      -3.125   1.902  24.420  0.00  0.00    +0.022 C 
ATOM     27  C   UNL     1      -2.432   1.737  24.006  0.00  0.00    +0.002 C 
ATOM     28  C   UNL     1      -3.687   1.310  24.536  0.00  0.00    +0.032 C 
ATOM     29  C   UNL     1      -3.555   0.552  24.237  0.00  0.00    +0.152 C 
ATOM     30  O   UNL     1      -2.862   0.387  23.823  0.00  0.00    -0.223 OA
ENDROOT
BRANCH  16  17
ATOM     17  N   UNL     1      -2.694   3.252  24.603  0.00  0.00    -0.203 NA
ATOM     18  C   UNL     1      -2.403   3.677  25.248  0.00  0.00    +0.265 C 
ATOM     19  O   UNL     1      -2.675   3.508  26.009  0.00  0.00    -0.268 OA
BRANCH  18  20
ATOM     20  C   UNL     1      -1.841   4.269  25.132  0.00  0.00    +0.058 A 
ATOM     21  C   UNL     1      -1.049   4.067  25.016  0.00  0.00    +0.025 A 
ATOM     22  C   UNL     1      -0.486   4.660  24.900  0.00  0.00    +0.099 A 
ATOM     23  N   UNL     1      -0.715   5.452  24.899  0.00  0.00    -0.242 NA
ATOM     24  C   UNL     1      -1.507   5.653  25.015  0.00  0.00    +0.099 A 
ATOM     25  C   UNL     1      -2.070   5.061  25.132  0.00  0.00    +0.025 A 
ENDBRANCH  18  20
ENDBRANCH  16  17
BRANCH   9   7
ATOM      7  C   UNL     1      -3.985  -0.799  24.055  0.00  0.00    +0.081 C 
ATOM      8  C   UNL     1      -4.151  -0.965  23.265  0.00  0.00    +0.010 C 
BRANCH   7   5
ATOM      4  N   UNL     1      -3.156  -1.946  24.248  0.00  0.00    -0.207 NA
ATOM      5  C   UNL     1      -3.687  -1.389  24.547  0.00  0.00    +0.241 C 
ATOM      6  O   UNL     1      -3.919  -1.424  25.338  0.00  0.00    -0.273 OA
BRANCH   4   2
ATOM      1  C   UNL     1      -2.065  -2.521  24.971  0.00  0.00    +0.023 C 
ATOM      2  C   UNL     1      -2.858  -2.537  24.741  0.00  0.00    +0.095 C 
ATOM      3  C   UNL     1      -3.351  -3.144  25.004  0.00  0.00    +0.023 C 
ENDBRANCH   4   2
ENDBRANCH   7   5
ENDBRANCH   9   7
TORSDOF 5
ENDMDL
MODEL 3
REMARK VINA RESULT:     -11.4      1.881      5.898
REMARK  Name = 
REMARK  5 active torsions:
REMARK  status: ('A' for Active; 'I' for Inactive)
REMARK    1  A    between atoms: C_2  and  N_4
REMARK    2  A    between atoms: C_5  and  C_7
REMARK    3  A    between atoms: C_7  and  C_9
REMARK    4  A    between atoms: C_16  and  N_17
REMARK    5  A    between atoms: C_18  and  C_20
REMARK                            x       y       z     vdW  Elec       q    Type
REMARK                         _______ _______ _______ _____ _____    ______ ____
ROOT
ATOM      9  C   UNL     1      -2.021  -0.871  25.146  0.00  0.00    +0.039 C 
ATOM     10  C   UNL     1      -1.263  -1.129  24.948  0.00  0.00    +0.003 C 
ATOM     11  C   UNL     1      -0.683  -0.581  24.737  0.00  0.00    +0.000 C 
ATOM     12  C   UNL     1      -0.861   0.225  24.725  0.00  0.00    +0.002 C 
ATOM     13  C   UNL     1      -0.103  -0.033  24.527  0.00  0.00    +0.000 C 
ATOM     14  C   UNL     1      -0.282   0.772  24.515  0.00  0.00    +0.002 C 
ATOM     15  C   UNL     1      -0.459   1.578  24.503  0.00  0.00    +0.022 C 
ATOM     16  C   UNL     1      -1.218   1.836  24.701  0.00  0.00    +0.096 C 
ATOM     26  C   UNL     1      -1.798   1.287  24.912  0.00  0.00    +0.022 C 
ATOM     27  C   UNL     1      -2.555   1.545  25.110  0.00  0.00    +0.002 C 
ATOM     28  C   UNL     1      -1.619   0.482  24.924  0.00  0.00    +0.032 C 
ATOM     29  C   UNL     1      -2.200  -0.066  25.134  0.00  0.00    +0.152 C 
ATOM     30  O   UNL     1      -2.957   0.191  25.332  0.00  0.00    -0.223 OA
ENDROOT
BRANCH  16  17
ATOM     17  N   UNL     1      -1.396   2.641  24.690  0.00  0.00    -0.203 NA
ATOM     18  C   UNL     1      -0.931   3.172  25.117  0.00  0.00    +0.265 C 
ATOM     19  O   UNL     1      -0.288   2.899  25.555  0.00  0.00    -0.268 OA
BRANCH  18  20
ATOM     20  C   UNL     1      -1.110   3.978  25.105  0.00  0.00    +0.058 A 
ATOM     21  C   UNL     1      -0.584   4.511  24.760  0.00  0.00    +0.025 A 
ATOM     22  C   UNL     1      -0.763   5.317  24.748  0.00  0.00    +0.099 A 
ATOM     23  N   UNL     1      -1.466   5.588  25.081  0.00  0.00    -0.242 NA
ATOM     24  C   UNL     1      -1.992   5.054  25.426  0.00  0.00    +0.099 A 
ATOM     25  C   UNL     1      -1.813   4.249  25.438  0.00  0.00    +0.025 A 
ENDBRANCH  18  20
ENDBRANCH  16  17
BRANCH   9   7
ATOM      7  C   UNL     1      -2.601  -1.419  25.356  0.00  0.00    +0.081 C 
ATOM      8  C   UNL     1      -2.875  -1.452  26.133  0.00  0.00    +0.010 C 
BRANCH   7   5
ATOM      4  N   UNL     1      -3.722  -1.970  24.661  0.00  0.00    -0.207 NA
ATOM      5  C   UNL     1      -2.907  -1.934  24.789  0.00  0.00    +0.241 C 
ATOM      6  O   UNL     1      -2.399  -2.412  24.349  0.00  0.00    -0.273 OA
BRANCH   4   2
ATOM      1  C   UNL     1      -3.917  -3.299  24.174  0.00  0.00    +0.023 C 
ATOM      2  C   UNL     1      -4.027  -2.484  24.093  0.00  0.00    +0.095 C 
ATOM      3  C   UNL     1      -4.443  -2.186  23.446  0.00  0.00    +0.023 C 
ENDBRANCH   4   2
ENDBRANCH   7   5
ENDBRANCH   9   7
TORSDOF 5
ENDMDL
MODEL 4
REMARK VINA RESULT:     -11.0      1.472      2.255
REMARK  Name = 
REMARK  5 active torsions:
REMARK  status: ('A' for Active; 'I' for Inactive)
REMARK    1  A    between atoms: C_2  and  N_4
REMARK    2  A    between atoms: C_5  and  C_7
REMARK    3  A    between atoms: C_7  and  C_9
REMARK    4  A    between atoms: C_16  and  N_17
REMARK    5  A    between atoms: C_18  and  C_20
REMARK                            x       y       z     vdW  Elec       q    Type
REMARK                         _______ _______ _______ _____ _____    ______ ____
ROOT
ATOM      9  C   UNL     1      -1.961   2.936  25.587  0.00  0.00    +0.039 C 
ATOM     10  C   UNL     1      -1.189   2.783  25.834  0.00  0.00    +0.003 C 
ATOM     11  C   UNL     1      -0.877   2.023  25.761  0.00  0.00    +0.000 C 
ATOM     12  C   UNL     1      -1.336   1.417  25.442  0.00  0.00    +0.002 C 
ATOM     13  C   UNL     1      -0.564   1.263  25.688  0.00  0.00    +0.000 C 
ATOM     14  C   UNL     1      -1.023   0.657  25.369  0.00  0.00    +0.002 C 
ATOM     15  C   UNL     1      -1.482   0.050  25.049  0.00  0.00    +0.022 C 
ATOM     16  C   UNL     1      -2.254   0.204  24.802  0.00  0.00    +0.096 C 
ATOM     26  C   UNL     1      -2.567   0.965  24.875  0.00  0.00    +0.022 C 
ATOM     27  C   UNL     1      -3.338   1.118  24.628  0.00  0.00    +0.002 C 
ATOM     28  C   UNL     1      -2.108   1.570  25.195  0.00  0.00    +0.032 C 
ATOM     29  C   UNL     1      -2.421   2.331  25.267  0.00  0.00    +0.152 C 
ATOM     30  O   UNL     1      -3.192   2.484  25.021  0.00  0.00    -0.223 OA
ENDROOT
BRANCH  16  17
ATOM     17  N   UNL     1      -2.714  -0.402  24.482  0.00  0.00    -0.203 NA
ATOM     18  C   UNL     1      -2.816  -1.106  24.900  0.00  0.00    +0.265 C 
ATOM     19  O   UNL     1      -2.458  -1.204  25.637  0.00  0.00    -0.268 OA
BRANCH  18  20
ATOM     20  C   UNL     1      -3.275  -1.712  24.580  0.00  0.00    +0.058 A 
ATOM     21  C   UNL     1      -3.949  -1.529  24.140  0.00  0.00    +0.025 A 
ATOM     22  C   UNL     1      -4.409  -2.135  23.820  0.00  0.00    +0.099 A 
ATOM     23  N   UNL     1      -4.196  -2.921  23.940  0.00  0.00    -0.242 NA
ATOM     24  C   UNL     1      -3.522  -3.104  24.380  0.00  0.00    +0.099 A 
ATOM     25  C   UNL     1      -3.062  -2.499  24.700  0.00  0.00    +0.025 A 
ENDBRANCH  18  20
ENDBRANCH  16  17
BRANCH   9   7
ATOM      7  C   UNL     1      -2.274   3.697  25.660  0.00  0.00    +0.081 C 
ATOM      8  C   UNL     1      -2.845   3.855  26.234  0.00  0.00    +0.010 C 
BRANCH   7   5
ATOM      4  N   UNL     1      -1.486   4.867  25.436  0.00  0.00    -0.207 NA
ATOM      5  C   UNL     1      -2.016   4.298  25.158  0.00  0.00    +0.241 C 
ATOM      6  O   UNL     1      -2.287   4.332  24.380  0.00  0.00    -0.273 OA
BRANCH   4   2
ATOM      1  C   UNL     1      -1.680   6.153  24.844  0.00  0.00    +0.023 C 
ATOM      2  C   UNL     1      -1.227   5.469  24.934  0.00  0.00    +0.095 C 
ATOM      3  C   UNL     1      -0.517   5.387  24.523  0.00  0.00    +0.023 C 
ENDBRANCH   4   2
ENDBRANCH   7   5
ENDBRANCH   9   7
TORSDOF 5
ENDMDL
MODEL 5
REMARK VINA RESULT:     -10.6      2.624      4.076
REMARK  Name = 
REMARK  5 active torsions:
REMARK  status: ('A' for Active; 'I' for Inactive)
REMARK    1  A    between atoms: C_2  and  N_4
REMARK    2  A    between atoms: C_5  and  C_7
REMARK    3  A    between atoms: C_7  and  C_9
REMARK    4  A    between atoms: C_16  and  N_17
REMARK    5  A    between atoms: C_18  and  C_20
REMARK                            x       y       z     vdW  Elec       q    Type
REMARK                         _______ _______ _______ _____ _____    ______ ____
ROOT
ATOM      9  C   UNL     1      -3.358   3.353  24.854  0.00  0.00    +0.039 C 
ATOM     10  C   UNL     1      -3.080   3.694  25.552  0.00  0.00    +0.003 C 
ATOM     11  C   UNL     1      -2.290   3.602  25.768  0.00  0.00    +0.000 C 
ATOM     12  C   UNL     1      -1.777   3.170  25.288  0.00  0.00    +0.002 C 
ATOM     13  C   UNL     1      -1.499   3.510  25.986  0.00  0.00    +0.000 C 
ATOM     14  C   UNL     1      -0.987   3.078  25.505  0.00  0.00    +0.002 C 
ATOM     15  C   UNL     1      -0.474   2.646  25.024  0.00  0.00    +0.022 C 
ATOM     16  C   UNL     1      -0.752   2.305  24.326  0.00  0.00    +0.096 C 
ATOM     26  C   UNL     1      -1.543   2.396  24.109  0.00  0.00    +0.022 C 
ATOM     27  C   UNL     1      -1.821   2.056  23.412  0.00  0.00    +0.002 C 
ATOM     28  C   UNL     1      -2.055   2.829  24.590  0.00  0.00    +0.032 C 
ATOM     29  C   UNL     1      -2.847   2.920  24.373  0.00  0.00    +0.152 C 
ATOM     30  O   UNL     1      -3.124   2.580  23.676  0.00  0.00    -0.223 OA
ENDROOT
BRANCH  16  17
ATOM     17  N   UNL     1      -0.240   1.873  23.845  0.00  0.00    -0.203 NA
ATOM     18  C   UNL     1       0.202   1.254  24.166  0.00  0.00    +0.265 C 
ATOM     19  O   UNL     1       0.133   1.068  24.967  0.00  0.00    -0.268 OA
BRANCH  18  20
ATOM     20  C   UNL     1       0.714   0.821  23.685  0.00  0.00    +0.058 A 
ATOM     21  C   UNL     1       1.481   1.094  23.551  0.00  0.00    +0.025 A 
ATOM     22  C   UNL     1       1.994   0.661  23.069  0.00  0.00    +0.099 A 
ATOM     23  N   UNL     1       1.739  -0.042  22.723  0.00  0.00    -0.242 NA
ATOM     24  C   UNL     1       0.971  -0.314  22.857  0.00  0.00    +0.099 A 
ATOM     25  C   UNL     1       0.460   0.118  23.339  0.00  0.00    +0.025 A 
ENDBRANCH  18  20
ENDBRANCH  16  17
BRANCH   9   7
ATOM      7  C   UNL     1      -4.150   3.444  24.636  0.00  0.00    +0.081 C 
ATOM      8  C   UNL     1      -4.349   3.927  23.999  0.00  0.00    +0.010 C 
BRANCH   7   5
ATOM      4  N   UNL     1      -5.100   2.382  24.736  0.00  0.00    -0.207 NA
ATOM      5  C   UNL     1      -4.740   3.052  25.058  0.00  0.00    +0.241 C 
ATOM      6  O   UNL     1      -4.972   3.329  25.799  0.00  0.00    -0.273 OA
BRANCH   4   2
ATOM      1  C   UNL     1      -5.490   1.386  25.684  0.00  0.00    +0.023 C 
ATOM      2  C   UNL     1      -5.690   1.989  25.157  0.00  0.00    +0.095 C 
ATOM      3  C   UNL     1      -6.481   2.199  25.053  0.00  0.00    +0.023 C 
ENDBRANCH   4   2
ENDBRANCH   7   5
ENDBRANCH   9   7
TORSDOF 5
ENDMDL
MODEL 6
REMARK VINA RESULT:     -10.1      2.398      4.716
REMARK  Name = 
REMARK  5 active torsions:
REMARK  status: ('A' for Active; 'I' for Inactive)
REMARK    1  A    between atoms: C_2  and  N_4
REMARK    2  A    between atoms: C_5  and  C_7
REMARK    3  A    between atoms: C_7  and  C_9
REMARK    4  A    between atoms: C_16  and  N_17
REMARK    5  A    between atoms: C_18  and  C_20
REMARK                            x       y       z     vdW  Elec       q    Type
REMARK                         _______ _______ _______ _____ _____    ______ ____
ROOT
ATOM      9  C   UNL     1      -1.674  -1.131  24.679  0.00  0.00    +0.039 C 
ATOM     10  C   UNL     1      -2.137  -1.716  24.326  0.00  0.00    +0.003 C 
ATOM     11  C   UNL     1      -2.952  -1.612  24.261  0.00  0.00    +0.000 C 
ATOM     12  C   UNL     1      -3.306  -0.924  24.549  0.00  0.00    +0.002 C 
ATOM     13  C   UNL     1      -3.769  -1.508  24.196  0.00  0.00    +0.000 C 
ATOM     14  C   UNL     1      -4.121  -0.820  24.484  0.00  0.00    +0.002 C 
ATOM     15  C   UNL     1      -4.474  -0.132  24.771  0.00  0.00    +0.022 C 
ATOM     16  C   UNL     1      -4.011   0.453  25.124  0.00  0.00    +0.096 C 
ATOM     26  C   UNL     1      -3.194   0.349  25.189  0.00  0.00    +0.022 C 
ATOM     27  C   UNL     1      -2.732   0.933  25.541  0.00  0.00    +0.002 C 
ATOM     28  C   UNL     1      -2.842  -0.339  24.901  0.00  0.00    +0.032 C 
ATOM     29  C   UNL     1      -2.026  -0.443  24.967  0.00  0.00    +0.152 C 
ATOM     30  O   UNL     1      -1.563   0.141  25.319  0.00  0.00    -0.223 OA
ENDROOT
BRANCH  16  17
ATOM     17  N   UNL     1      -4.363   1.141  25.411  0.00  0.00    -0.203 NA
ATOM     18  C   UNL     1      -4.809   1.618  24.906  0.00  0.00    +0.265 C 
ATOM     19  O   UNL     1      -4.902   1.406  24.114  0.00  0.00    -0.268 OA
BRANCH  18  20
ATOM     20  C   UNL     1      -5.161   2.306  25.194  0.00  0.00    +0.058 A 
ATOM     21  C   UNL     1      -4.807   3.038  25.055  0.00  0.00    +0.025 A 
ATOM     22  C   UNL     1      -5.159   3.728  25.342  0.00  0.00    +0.099 A 
ATOM     23  N   UNL     1      -5.863   3.684  25.768  0.00  0.00    -0.242 NA
ATOM     24  C   UNL     1      -6.217   2.951  25.907  0.00  0.00    +0.099 A 
ATOM     25  C   UNL     1      -5.865   2.263  25.620  0.00  0.00    +0.025 A 
ENDBRANCH  18  20
ENDBRANCH  16  17
BRANCH   9   7
ATOM      7  C   UNL     1      -0.857  -1.235  24.744  0.00  0.00    +0.081 C 
ATOM      8  C   UNL     1      -0.531  -1.498  25.453  0.00  0.00    +0.010 C 
BRANCH   7   5
ATOM      4  N   UNL     1       0.175  -0.454  24.138  0.00  0.00    -0.207 NA
ATOM      5  C   UNL     1      -0.369  -1.074  24.099  0.00  0.00    +0.241 C 
ATOM      6  O   UNL     1      -0.424  -1.533  23.415  0.00  0.00    -0.273 OA
BRANCH   4   2
ATOM      1  C   UNL     1       1.333  -0.756  23.358  0.00  0.00    +0.023 C 
ATOM      2  C   UNL     1       0.663  -0.293  23.493  0.00  0.00    +0.095 C 
ATOM      3  C   UNL     1       0.481   0.329  22.982  0.00  0.00    +0.023 C 
ENDBRANCH   4   2
ENDBRANCH   7   5
ENDBRANCH   9   7
TORSDOF 5
ENDMDL
