MODEL 1
REMARK VINA RESULT:      -7.7      0.000      0.000
REMARK  Name = 
REMARK  6 active torsions:
REMARK  status: ('A' for Active; 'I' for Inactive)
REMARK    1  A    between atoms: C_3  and  N_16
REMARK    2  A    between atoms: C_6  and  C_7
REMARK    3  A    between atoms: C_7  and  N_8
REMARK    4  A    between atoms: C_9  and  C_11
REMARK    5  A    between atoms: N_16  and  C_17
REMARK    6  A    between atoms: C_17  and  C_18
REMARK                            x       y       z     vdW  Elec       q    Type
REMARK                         _______ _______ _______ _____ _____    ______ ____
ROOT
ATOM      1  O   UNL     1      -3.764   2.232  24.177  0.00  0.00    -0.219 OA
ATOM      2  C   UNL     1      -3.118   1.850  24.519  0.00  0.00    +0.199 C 
ATOM      3  C   UNL     1      -2.423   2.212  24.780  0.00  0.00    +0.136 C 
ATOM      4  C   UNL     1      -1.928   1.624  25.081  0.00  0.00    +0.162 C 
ATOM      5  O   UNL     1      -2.316   0.900  25.006  0.00  0.00    -0.350 OA
ATOM      6  C   UNL     1      -3.051   1.040  24.659  0.00  0.00    +0.169 C 
ENDROOT
BRANCH   6   7
ATOM      7  C   UNL     1      -3.621   0.469  24.482  0.00  0.00    +0.148 C 
BRANCH   7   8
ATOM      8  N   UNL     1      -3.432  -0.332  24.536  0.00  0.00    -0.199 NA
ATOM      9  C   UNL     1      -4.020  -0.902  24.436  0.00  0.00    +0.271 C 
ATOM     10  O   UNL     1      -4.797  -0.671  24.283  0.00  0.00    -0.268 OA
BRANCH   9  11
ATOM     11  C   UNL     1      -3.831  -1.704  24.490  0.00  0.00    +0.084 A 
ATOM     12  C   UNL     1      -3.468  -2.074  25.132  0.00  0.00    +0.012 A 
ATOM     13  C   UNL     1      -3.384  -2.875  24.950  0.00  0.00    +0.008 A 
ATOM     14  C   UNL     1      -3.696  -2.998  24.196  0.00  0.00    +0.036 A 
ATOM     15  S   UNL     1      -3.972  -2.275  23.912  0.00  0.00    -0.082 S 
ENDBRANCH   9  11
ENDBRANCH   7   8
ENDBRANCH   6   7
BRANCH   3  16
ATOM     16  N   UNL     1      -2.254   3.018  24.746  0.00  0.00    -0.206 NA
BRANCH  16  17
ATOM     17  C   UNL     1      -1.638   3.331  25.197  0.00  0.00    +0.154 C 
BRANCH  17  18
ATOM     18  C   UNL     1      -1.424   4.122  25.111  0.00  0.00    +0.157 A 
ATOM     19  N   UNL     1      -0.708   4.400  24.812  0.00  0.00    -0.226 NA
ATOM     20  C   UNL     1      -0.729   5.225  24.825  0.00  0.00    +0.121 A 
ATOM     21  C   UNL     1      -1.458   5.456  25.132  0.00  0.00    +0.121 A 
ATOM     22  N   UNL     1      -1.888   4.775  25.309  0.00  0.00    -0.226 NA
ENDBRANCH  17  18
ENDBRANCH  16  17
ENDBRANCH   3  16
TORSDOF 6
ENDMDL
MODEL 2
REMARK VINA RESULT:      -7.4      1.958      5.773
REMARK  Name = 
REMARK  6 active torsions:
REMARK  status: ('A' for Active; 'I' for Inactive)
REMARK    1  A    between atoms: C_3  and  N_16
REMARK    2  A    between atoms: C_6  and  C_7
REMARK    3  A    between atoms: C_7  and  N_8
REMARK    4  A    between atoms: C_9  and  C_11
REMARK    5  A    between atoms: N_16  and  C_17
REMARK    6  A    between atoms: C_17  and  C_18
REMARK                            x       y       z     vdW  Elec       q    Type
REMARK                         _______ _______ _______ _____ _____    ______ ____
ROOT
ATOM      1  O   UNL     1      -1.212   0.143  25.149  0.00  0.00    -0.219 OA
ATOM      2  C   UNL     1      -1.907   0.552  24.977  0.00  0.00    +0.199 C 
ATOM      3  C   UNL     1      -2.618   0.216  24.725  0.00  0.00    +0.136 C 
ATOM      4  C   UNL     1      -3.164   0.825  24.619  0.00  0.00    +0.162 C 
ATOM      5  O   UNL     1      -2.792   1.537  24.805  0.00  0.00    -0.350 OA
ATOM      6  C   UNL     1      -2.015   1.368  25.026  0.00  0.00    +0.169 C 
ENDROOT
BRANCH   6   7
ATOM      7  C   UNL     1      -1.445   1.919  25.257  0.00  0.00    +0.148 C 
BRANCH   7   8
ATOM      8  N   UNL     1      -1.562   2.722  25.104  0.00  0.00    -0.199 NA
ATOM      9  C   UNL     1      -1.022   3.277  25.385  0.00  0.00    +0.271 C 
ATOM     10  O   UNL     1      -0.364   3.032  25.819  0.00  0.00    -0.268 OA
BRANCH   9  11
ATOM     11  C   UNL     1      -1.139   4.081  25.232  0.00  0.00    +0.084 A 
ATOM     12  C   UNL     1      -1.790   4.529  25.468  0.00  0.00    +0.012 A 
ATOM     13  C   UNL     1      -1.678   5.301  25.198  0.00  0.00    +0.008 A 
ATOM     14  C   UNL     1      -0.958   5.328  24.795  0.00  0.00    +0.036 A 
ATOM     15  S   UNL     1      -0.625   4.575  24.816  0.00  0.00    -0.082 S 
ENDBRANCH   9  11
ENDBRANCH   7   8
ENDBRANCH   6   7
BRANCH   3  16
ATOM     16  N   UNL     1      -2.757  -0.587  24.601  0.00  0.00    -0.206 NA
BRANCH  16  17
ATOM     17  C   UNL     1      -3.511  -0.899  24.719  0.00  0.00    +0.154 C 
BRANCH  17  18
ATOM     18  C   UNL     1      -3.669  -1.685  24.525  0.00  0.00    +0.157 A 
ATOM     19  N   UNL     1      -3.458  -2.346  24.970  0.00  0.00    -0.226 NA
ATOM     20  C   UNL     1      -3.723  -3.017  24.571  0.00  0.00    +0.121 A 
ATOM     21  C   UNL     1      -4.098  -2.772  23.880  0.00  0.00    +0.121 A 
ATOM     22  N   UNL     1      -4.065  -1.948  23.850  0.00  0.00    -0.226 NA
ENDBRANCH  17  18
ENDBRANCH  16  17
ENDBRANCH   3  16
TORSDOF 6
ENDMDL
MODEL 3
REMARK VINA RESULT:      -6.7      2.997      4.279
REMARK  Name = 
REMARK  6 active torsions:
REMARK  status: ('A' for Active; 'I' for Inactive)
REMARK    1  A    between atoms: C_3  and  N_16
REMARK    2  A    between atoms: C_6  and  C_7
REMARK    3  A    between atoms: C_7  and  N_8
REMARK    4  A    between atoms: C_9  and  C_11
REMARK    5  A    between atoms: N_16  and  C_17
REMARK    6  A    between atoms: C_17  and  C_18
REMARK                            x       y       z     vdW  Elec       q    Type
REMARK                         _______ _______ _______ _____ _____    ______ ____
ROOT
ATOM      1  O   UNL     1      -0.955   2.663  23.802  0.00  0.00    -0.219 OA
ATOM      2  C   UNL     1      -1.239   1.957  24.119  0.00  0.00    +0.199 C 
ATOM      3  C   UNL     1      -0.846   1.231  24.118  0.00  0.00    +0.136 C 
ATOM      4  C   UNL     1      -1.331   0.678  24.491  0.00  0.00    +0.162 C 
ATOM      5  O   UNL     1      -2.024   1.061  24.723  0.00  0.00    -0.350 OA
ATOM      6  C   UNL     1      -1.967   1.852  24.493  0.00  0.00    +0.169 C 
ENDROOT
BRANCH   6   7
ATOM      7  C   UNL     1      -2.538   2.435  24.616  0.00  0.00    +0.148 C 
BRANCH   7   8
ATOM      8  N   UNL     1      -3.312   2.221  24.806  0.00  0.00    -0.199 NA
ATOM      9  C   UNL     1      -3.893   2.800  24.880  0.00  0.00    +0.271 C 
ATOM     10  O   UNL     1      -3.702   3.595  24.764  0.00  0.00    -0.268 OA
BRANCH   9  11
ATOM     11  C   UNL     1      -4.668   2.586  25.071  0.00  0.00    +0.084 A 
ATOM     12  C   UNL     1      -5.124   2.020  24.681  0.00  0.00    +0.012 A 
ATOM     13  C   UNL     1      -5.859   1.984  25.054  0.00  0.00    +0.008 A 
ATOM     14  C   UNL     1      -5.857   2.529  25.674  0.00  0.00    +0.036 A 
ATOM     15  S   UNL     1      -5.121   2.901  25.685  0.00  0.00    -0.082 S 
ENDBRANCH   9  11
ENDBRANCH   7   8
ENDBRANCH   6   7
BRANCH   3  16
ATOM     16  N   UNL     1      -0.100   1.085  23.799  0.00  0.00    -0.206 NA
BRANCH  16  17
ATOM     17  C   UNL     1       0.132   0.313  23.627  0.00  0.00    +0.154 C 
BRANCH  17  18
ATOM     18  C   UNL     1       0.814   0.175  23.185  0.00  0.00    +0.157 A 
ATOM     19  N   UNL     1       0.858  -0.251  22.480  0.00  0.00    -0.226 NA
ATOM     20  C   UNL     1       1.644  -0.249  22.230  0.00  0.00    +0.121 A 
ATOM     21  C   UNL     1       2.086   0.177  22.780  0.00  0.00    +0.121 A 
ATOM     22  N   UNL     1       1.574   0.440  23.370  0.00  0.00    -0.226 NA
ENDBRANCH  17  18
ENDBRANCH  16  17
ENDBRANCH   3  16
TORSDOF 6
ENDMDL
MODEL 4
REMARK VINA RESULT:      -5.3     14.695     16.854
REMARK  Name = 
REMARK  6 active torsions:
REMARK  status: ('A' for Active; 'I' for Inactive)
REMARK    1  A    between atoms: C_3  and  N_16
REMARK    2  A    between atoms: C_6  and  C_7
REMARK    3  A    between atoms: C_7  and  N_8
REMARK    4  A    between atoms: C_9  and  C_11
REMARK    5  A    between atoms: N_16  and  C_17
REMARK    6  A    between atoms: C_17  and  C_18
REMARK                            x       y       z     vdW  Elec       q    Type
REMARK                         _______ _______ _______ _____ _____    ______ ____
ROOT
ATOM      1  O   UNL     1      -3.196 -10.778  14.023  0.00  0.00    -0.219 OA
ATOM      2  C   UNL     1      -3.955 -10.582  13.768  0.00  0.00    +0.199 C 
ATOM      3  C   UNL     1      -4.623 -10.503  14.247  0.00  0.00    +0.136 C 
ATOM      4  C   UNL     1      -5.261 -10.304  13.764  0.00  0.00    +0.162 C 
ATOM      5  O   UNL     1      -4.989 -10.260  12.986  0.00  0.00    -0.350 OA
ATOM      6  C   UNL     1      -4.181 -10.432  12.989  0.00  0.00    +0.169 C 
ENDROOT
BRANCH   6   7
ATOM      7  C   UNL     1      -3.687 -10.450  12.328  0.00  0.00    +0.148 C 
BRANCH   7   8
ATOM      8  N   UNL     1      -3.950 -10.146  11.608  0.00  0.00    -0.199 NA
ATOM      9  C   UNL     1      -3.433 -10.100  10.967  0.00  0.00    +0.271 C 
ATOM     10  O   UNL     1      -2.653 -10.357  11.046  0.00  0.00    -0.268 OA
BRANCH   9  11
ATOM     11  C   UNL     1      -3.697  -9.795  10.246  0.00  0.00    +0.084 A 
ATOM     12  C   UNL     1      -3.574  -9.027   9.971  0.00  0.00    +0.012 A 
ATOM     13  C   UNL     1      -3.930  -8.963   9.229  0.00  0.00    +0.008 A 
ATOM     14  C   UNL     1      -4.272  -9.692   9.047  0.00  0.00    +0.036 A 
ATOM     15  S   UNL     1      -4.128 -10.206   9.675  0.00  0.00    -0.082 S 
ENDBRANCH   9  11
ENDBRANCH   7   8
ENDBRANCH   6   7
BRANCH   3  16
ATOM     16  N   UNL     1      -4.647 -10.605  15.065  0.00  0.00    -0.206 NA
BRANCH  16  17
ATOM     17  C   UNL     1      -5.259 -10.271  15.505  0.00  0.00    +0.154 C 
BRANCH  17  18
ATOM     18  C   UNL     1      -5.298 -10.395  16.319  0.00  0.00    +0.157 A 
ATOM     19  N   UNL     1      -5.908 -10.775  16.723  0.00  0.00    -0.226 NA
ATOM     20  C   UNL     1      -5.721 -10.777  17.526  0.00  0.00    +0.121 A 
ATOM     21  C   UNL     1      -4.995 -10.397  17.619  0.00  0.00    +0.121 A 
ATOM     22  N   UNL     1      -4.733 -10.161  16.873  0.00  0.00    -0.226 NA
ENDBRANCH  17  18
ENDBRANCH  16  17
ENDBRANCH   3  16
TORSDOF 6
ENDMDL
MODEL 5
REMARK VINA RESULT:      -5.2     15.509     17.332
REMARK  Name = 
REMARK  6 active torsions:
REMARK  status: ('A' for Active; 'I' for Inactive)
REMARK    1  A    between atoms: C_3  and  N_16
REMARK    2  A    between atoms: C_6  and  C_7
REMARK    3  A    between atoms: C_7  and  N_8
REMARK    4  A    between atoms: C_9  and  C_11
REMARK    5  A    between atoms: N_16  and  C_17
REMARK    6  A    between atoms: C_17  and  C_18
REMARK                            x       y       z     vdW  Elec       q    Type
REMARK                         _______ _______ _______ _____ _____    ______ ____
ROOT
ATOM      1  O   UNL     1      -1.677  -9.782  11.992  0.00  0.00    -0.219 OA
ATOM      2  C   UNL     1      -2.411 -10.118  12.162  0.00  0.00    +0.199 C 
ATOM      3  C   UNL     1      -2.629 -10.472  12.875  0.00  0.00    +0.136 C 
ATOM      4  C   UNL     1      -3.409 -10.733  12.802  0.00  0.00    +0.162 C 
ATOM      5  O   UNL     1      -3.672 -10.540  12.044  0.00  0.00    -0.350 OA
ATOM      6  C   UNL     1      -3.055 -10.160  11.649  0.00  0.00    +0.169 C 
ENDROOT
BRANCH   6   7
ATOM      7  C   UNL     1      -3.079  -9.873  10.876  0.00  0.00    +0.148 C 
BRANCH   7   8
ATOM      8  N   UNL     1      -3.805  -9.719  10.515  0.00  0.00    -0.199 NA
ATOM      9  C   UNL     1      -3.831  -9.299   9.806  0.00  0.00    +0.271 C 
ATOM     10  O   UNL     1      -3.133  -9.033   9.457  0.00  0.00    -0.268 OA
BRANCH   9  11
ATOM     11  C   UNL     1      -4.558  -9.144   9.445  0.00  0.00    +0.084 A 
ATOM     12  C   UNL     1      -5.098  -8.564   9.672  0.00  0.00    +0.012 A 
ATOM     13  C   UNL     1      -5.745  -8.604   9.161  0.00  0.00    +0.008 A 
ATOM     14  C   UNL     1      -5.604  -9.211   8.619  0.00  0.00    +0.036 A 
ATOM     15  S   UNL     1      -4.871  -9.544   8.794  0.00  0.00    -0.082 S 
ENDBRANCH   9  11
ENDBRANCH   7   8
ENDBRANCH   6   7
BRANCH   3  16
ATOM     16  N   UNL     1      -2.152 -10.551  13.543  0.00  0.00    -0.206 NA
BRANCH  16  17
ATOM     17  C   UNL     1      -2.434 -10.318  14.282  0.00  0.00    +0.154 C 
BRANCH  17  18
ATOM     18  C   UNL     1      -1.956 -10.394  14.949  0.00  0.00    +0.157 A 
ATOM     19  N   UNL     1      -1.191 -10.098  15.034  0.00  0.00    -0.226 NA
ATOM     20  C   UNL     1      -0.921 -10.301  15.787  0.00  0.00    +0.121 A 
ATOM     21  C   UNL     1      -1.518 -10.723  16.167  0.00  0.00    +0.121 A 
ATOM     22  N   UNL     1      -2.158 -10.781  15.650  0.00  0.00    -0.226 NA
ENDBRANCH  17  18
ENDBRANCH  16  17
ENDBRANCH   3  16
TORSDOF 6
ENDMDL
MODEL 6
REMARK VINA RESULT:      -5.1     14.023     15.638
REMARK  Name = 
REMARK  6 active torsions:
REMARK  status: ('A' for Active; 'I' for Inactive)
REMARK    1  A    between atoms: C_3  and  N_16
REMARK    2  A    between atoms: C_6  and  C_7
REMARK    3  A    between atoms: C_7  and  N_8
REMARK    4  A    between atoms: C_9  and  C_11
REMARK    5  A    between atoms: N_16  and  C_17
REMARK    6  A    between atoms: C_17  and  C_18
REMARK                            x       y       z     vdW  Elec       q    Type
REMARK                         _______ _______ _______ _____ _____    ______ ____
ROOT
ATOM      1  O   UNL     1      -3.128 -10.667  16.756  0.00  0.00    -0.219 OA
ATOM      2  C   UNL     1      -3.775 -10.712  16.246  0.00  0.00    +0.199 C 
ATOM      3  C   UNL     1      -4.569 -10.737  16.470  0.00  0.00    +0.136 C 
ATOM      4  C   UNL     1      -5.026 -10.780  15.784  0.00  0.00    +0.162 C 
ATOM      5  O   UNL     1      -4.515 -10.781  15.137  0.00  0.00    -0.350 OA
ATOM      6  C   UNL     1      -3.742 -10.739  15.422  0.00  0.00    +0.169 C 
ENDROOT
BRANCH   6   7
ATOM      7  C   UNL     1      -3.055 -10.726  14.964  0.00  0.00    +0.148 C 
BRANCH   7   8
ATOM      8  N   UNL     1      -3.109 -10.674  14.142  0.00  0.00    -0.199 NA
ATOM      9  C   UNL     1      -2.423 -10.632  13.687  0.00  0.00    +0.271 C 
ATOM     10  O   UNL     1      -1.683 -10.642  14.052  0.00  0.00    -0.268 OA
BRANCH   9  11
ATOM     11  C   UNL     1      -2.477 -10.580  12.864  0.00  0.00    +0.084 A 
ATOM     12  C   UNL     1      -1.877 -10.335  12.354  0.00  0.00    +0.012 A 
ATOM     13  C   UNL     1      -2.169 -10.367  11.583  0.00  0.00    +0.008 A 
ATOM     14  C   UNL     1      -2.950 -10.632  11.618  0.00  0.00    +0.036 A 
ATOM     15  S   UNL     1      -3.140 -10.763  12.409  0.00  0.00    -0.082 S 
ENDBRANCH   9  11
ENDBRANCH   7   8
ENDBRANCH   6   7
BRANCH   3  16
ATOM     16  N   UNL     1      -4.855 -10.722  17.243  0.00  0.00    -0.206 NA
BRANCH  16  17
ATOM     17  C   UNL     1      -5.664 -10.636  17.383  0.00  0.00    +0.154 C 
BRANCH  17  18
ATOM     18  C   UNL     1      -5.943 -10.554  18.154  0.00  0.00    +0.157 A 
ATOM     19  N   UNL     1      -5.546 -10.781  18.840  0.00  0.00    -0.226 NA
ATOM     20  C   UNL     1      -6.026 -10.598  19.485  0.00  0.00    +0.121 A 
ATOM     21  C   UNL     1      -6.720 -10.257  19.198  0.00  0.00    +0.121 A 
ATOM     22  N   UNL     1      -6.669 -10.230  18.376  0.00  0.00    -0.226 NA
ENDBRANCH  17  18
ENDBRANCH  16  17
ENDBRANCH   3  16
TORSDOF 6
ENDMDL
MODEL 7
REMARK VINA RESULT:      -4.9     14.190     15.595
REMARK  Name = 
REMARK  6 active torsions:
REMARK  status: ('A' for Active; 'I' for Inactive)
REMARK    1  A    between atoms: C_3  and  N_16
REMARK    2  A    between atoms: C_6  and  C_7
REMARK    3  A    between atoms: C_7  and  N_8
REMARK    4  A    between atoms: C_9  and  C_11
REMARK    5  A    between atoms: N_16  and  C_17
REMARK    6  A    between atoms: C_17  and  C_18
REMARK                            x       y       z     vdW  Elec       q    Type
REMARK                         _______ _______ _______ _____ _____    ______ ____
ROOT
ATOM      1  O   UNL     1      -4.108 -10.417  15.896  0.00  0.00    -0.219 OA
ATOM      2  C   UNL     1      -4.731 -10.379  15.356  0.00  0.00    +0.199 C 
ATOM      3  C   UNL     1      -4.667 -10.452  14.537  0.00  0.00    +0.136 C 
ATOM      4  C   UNL     1      -5.423 -10.379  14.215  0.00  0.00    +0.162 C 
ATOM      5  O   UNL     1      -5.954 -10.262  14.835  0.00  0.00    -0.350 OA
ATOM      6  C   UNL     1      -5.526 -10.262  15.540  0.00  0.00    +0.169 C 
ENDROOT
BRANCH   6   7
ATOM      7  C   UNL     1      -5.839 -10.161  16.298  0.00  0.00    +0.148 C 
BRANCH   7   8
ATOM      8  N   UNL     1      -6.625  -9.930  16.392  0.00  0.00    -0.199 NA
ATOM      9  C   UNL     1      -6.946  -9.860  17.148  0.00  0.00    +0.271 C 
ATOM     10  O   UNL     1      -6.481 -10.021  17.811  0.00  0.00    -0.268 OA
BRANCH   9  11
ATOM     11  C   UNL     1      -7.733  -9.628  17.243  0.00  0.00    +0.084 A 
ATOM     12  C   UNL     1      -8.040  -8.879  17.082  0.00  0.00    +0.012 A 
ATOM     13  C   UNL     1      -8.847  -8.893  17.254  0.00  0.00    +0.008 A 
ATOM     14  C   UNL     1      -9.038  -9.650  17.521  0.00  0.00    +0.036 A 
ATOM     15  S   UNL     1      -8.350 -10.104  17.514  0.00  0.00    -0.082 S 
ENDBRANCH   9  11
ENDBRANCH   7   8
ENDBRANCH   6   7
BRANCH   3  16
ATOM     16  N   UNL     1      -3.970 -10.576  14.114  0.00  0.00    -0.206 NA
BRANCH  16  17
ATOM     17  C   UNL     1      -3.968 -10.508  13.291  0.00  0.00    +0.154 C 
BRANCH  17  18
ATOM     18  C   UNL     1      -3.261 -10.579  12.873  0.00  0.00    +0.157 A 
ATOM     19  N   UNL     1      -2.525 -10.765  13.193  0.00  0.00    -0.226 NA
ATOM     20  C   UNL     1      -1.975 -10.776  12.579  0.00  0.00    +0.121 A 
ATOM     21  C   UNL     1      -2.371 -10.597  11.878  0.00  0.00    +0.121 A 
ATOM     22  N   UNL     1      -3.166 -10.475  12.060  0.00  0.00    -0.226 NA
ENDBRANCH  17  18
ENDBRANCH  16  17
ENDBRANCH   3  16
TORSDOF 6
ENDMDL
MODEL 8
REMARK VINA RESULT:      -4.8     14.447     16.064
REMARK  Name = 
REMARK  6 active torsions:
REMARK  status: ('A' for Active; 'I' for Inactive)
REMARK    1  A    between atoms: C_3  and  N_16
REMARK    2  A    between atoms: C_6  and  C_7
REMARK    3  A    between atoms: C_7  and  N_8
REMARK    4  A    between atoms: C_9  and  C_11
REMARK    5  A    between atoms: N_16  and  C_17
REMARK    6  A    between atoms: C_17  and  C_18
REMARK                            x       y       z     vdW  Elec       q    Type
REMARK                         _______ _______ _______ _____ _____    ______ ____
ROOT
ATOM      1  O   UNL     1      -6.486 -10.023  13.877  0.00  0.00    -0.219 OA
ATOM      2  C   UNL     1      -5.819 -10.164  14.340  0.00  0.00    +0.199 C 
ATOM      3  C   UNL     1      -5.781 -10.119  15.164  0.00  0.00    +0.136 C 
ATOM      4  C   UNL     1      -5.010 -10.302  15.395  0.00  0.00    +0.162 C 
ATOM      5  O   UNL     1      -4.572 -10.461  14.714  0.00  0.00    -0.350 OA
ATOM      6  C   UNL     1      -5.071 -10.376  14.063  0.00  0.00    +0.169 C 
ENDROOT
BRANCH   6   7
ATOM      7  C   UNL     1      -4.860 -10.483  13.272  0.00  0.00    +0.148 C 
BRANCH   7   8
ATOM      8  N   UNL     1      -4.073 -10.398  13.040  0.00  0.00    -0.199 NA
ATOM      9  C   UNL     1      -3.863 -10.501  12.250  0.00  0.00    +0.271 C 
ATOM     10  O   UNL     1      -4.439 -10.689  11.690  0.00  0.00    -0.268 OA
BRANCH   9  11
ATOM     11  C   UNL     1      -3.074 -10.416  12.018  0.00  0.00    +0.084 A 
ATOM     12  C   UNL     1      -2.801  -9.951  11.394  0.00  0.00    +0.012 A 
ATOM     13  C   UNL     1      -1.980 -10.029  11.360  0.00  0.00    +0.008 A 
ATOM     14  C   UNL     1      -1.747 -10.542  11.963  0.00  0.00    +0.036 A 
ATOM     15  S   UNL     1      -2.423 -10.781  12.370  0.00  0.00    -0.082 S 
ENDBRANCH   9  11
ENDBRANCH   7   8
ENDBRANCH   6   7
BRANCH   3  16
ATOM     16  N   UNL     1      -6.405  -9.925  15.667  0.00  0.00    -0.206 NA
BRANCH  16  17
ATOM     17  C   UNL     1      -6.260  -9.777  16.466  0.00  0.00    +0.154 C 
BRANCH  17  18
ATOM     18  C   UNL     1      -6.890  -9.651  16.983  0.00  0.00    +0.157 A 
ATOM     19  N   UNL     1      -6.965  -9.965  17.741  0.00  0.00    -0.226 NA
ATOM     20  C   UNL     1      -7.677  -9.696  18.059  0.00  0.00    +0.121 A 
ATOM     21  C   UNL     1      -8.043  -9.216  17.497  0.00  0.00    +0.121 A 
ATOM     22  N   UNL     1      -7.557  -9.188  16.832  0.00  0.00    -0.226 NA
ENDBRANCH  17  18
ENDBRANCH  16  17
ENDBRANCH   3  16
TORSDOF 6
ENDMDL
MODEL 9
REMARK VINA RESULT:      -4.8     14.531     15.016
REMARK  Name = 
REMARK  6 active torsions:
REMARK  status: ('A' for Active; 'I' for Inactive)
REMARK    1  A    between atoms: C_3  and  N_16
REMARK    2  A    between atoms: C_6  and  C_7
REMARK    3  A    between atoms: C_7  and  N_8
REMARK    4  A    between atoms: C_9  and  C_11
REMARK    5  A    between atoms: N_16  and  C_17
REMARK    6  A    between atoms: C_17  and  C_18
REMARK                            x       y       z     vdW  Elec       q    Type
REMARK                         _______ _______ _______ _____ _____    ______ ____
ROOT
ATOM      1  O   UNL     1      -5.179 -10.167  14.563  0.00  0.00    -0.219 OA
ATOM      2  C   UNL     1      -5.180 -10.339  15.370  0.00  0.00    +0.199 C 
ATOM      3  C   UNL     1      -4.529 -10.581  15.815  0.00  0.00    +0.136 C 
ATOM      4  C   UNL     1      -4.778 -10.690  16.594  0.00  0.00    +0.162 C 
ATOM      5  O   UNL     1      -5.584 -10.515  16.630  0.00  0.00    -0.350 OA
ATOM      6  C   UNL     1      -5.832 -10.298  15.874  0.00  0.00    +0.169 C 
ENDROOT
BRANCH   6   7
ATOM      7  C   UNL     1      -6.598 -10.079  15.659  0.00  0.00    +0.148 C 
BRANCH   7   8
ATOM      8  N   UNL     1      -7.168  -9.948  16.241  0.00  0.00    -0.199 NA
ATOM      9  C   UNL     1      -7.908  -9.650  16.033  0.00  0.00    +0.271 C 
ATOM     10  O   UNL     1      -8.078  -9.481  15.243  0.00  0.00    -0.268 OA
BRANCH   9  11
ATOM     11  C   UNL     1      -8.479  -9.519  16.615  0.00  0.00    +0.084 A 
ATOM     12  C   UNL     1      -8.785 -10.087  17.130  0.00  0.00    +0.012 A 
ATOM     13  C   UNL     1      -9.338  -9.717  17.617  0.00  0.00    +0.008 A 
ATOM     14  C   UNL     1      -9.374  -8.920  17.403  0.00  0.00    +0.036 A 
ATOM     15  S   UNL     1      -8.843  -8.798  16.784  0.00  0.00    -0.082 S 
ENDBRANCH   9  11
ENDBRANCH   7   8
ENDBRANCH   6   7
BRANCH   3  16
ATOM     16  N   UNL     1      -3.763 -10.695  15.531  0.00  0.00    -0.206 NA
BRANCH  16  17
ATOM     17  C   UNL     1      -3.131 -10.755  16.059  0.00  0.00    +0.154 C 
BRANCH  17  18
ATOM     18  C   UNL     1      -2.358 -10.668  15.788  0.00  0.00    +0.157 A 
ATOM     19  N   UNL     1      -2.099 -10.781  15.014  0.00  0.00    -0.226 NA
ATOM     20  C   UNL     1      -1.287 -10.635  14.992  0.00  0.00    +0.121 A 
ATOM     21  C   UNL     1      -1.044 -10.432  15.753  0.00  0.00    +0.121 A 
ATOM     22  N   UNL     1      -1.705 -10.452  16.245  0.00  0.00    -0.226 NA
ENDBRANCH  17  18
ENDBRANCH  16  17
ENDBRANCH   3  16
TORSDOF 6
ENDMDL
MODEL 10
REMARK VINA RESULT:      -4.7     14.588     16.446
REMARK  Name = 
REMARK  6 active torsions:
REMARK  status: ('A' for Active; 'I' for Inactive)
REMARK    1  A    between atoms: C_3  and  N_16
REMARK    2  A    between atoms: C_6  and  C_7
REMARK    3  A    between atoms: C_7  and  N_8
REMARK    4  A    between atoms: C_9  and  C_11
REMARK    5  A    between atoms: N_16  and  C_17
REMARK    6  A    between atoms: C_17  and  C_18
REMARK                            x       y       z     vdW  Elec       q    Type
REMARK                         _______ _______ _______ _____ _____    ______ ____
ROOT
ATOM      1  O   UNL     1      -4.271 -10.462  13.433  0.00  0.00    -0.219 OA
ATOM      2  C   UNL     1      -5.013 -10.133  13.283  0.00  0.00    +0.199 C 
ATOM      3  C   UNL     1      -5.282  -9.855  12.554  0.00  0.00    +0.136 C 
ATOM      4  C   UNL     1      -6.051  -9.574  12.656  0.00  0.00    +0.162 C 
ATOM      5  O   UNL     1      -6.257  -9.678  13.448  0.00  0.00    -0.350 OA
ATOM      6  C   UNL     1      -5.615 -10.024  13.836  0.00  0.00    +0.169 C 
ENDROOT
BRANCH   6   7
ATOM      7  C   UNL     1      -5.583 -10.225  14.635  0.00  0.00    +0.148 C 
BRANCH   7   8
ATOM      8  N   UNL     1      -6.218 -10.050  15.131  0.00  0.00    -0.199 NA
ATOM      9  C   UNL     1      -6.183 -10.246  15.931  0.00  0.00    +0.271 C 
ATOM     10  O   UNL     1      -5.512 -10.617  16.236  0.00  0.00    -0.268 OA
BRANCH   9  11
ATOM     11  C   UNL     1      -6.819 -10.070  16.428  0.00  0.00    +0.084 A 
ATOM     12  C   UNL     1      -6.985  -9.334  16.761  0.00  0.00    +0.012 A 
ATOM     13  C   UNL     1      -7.669  -9.409  17.217  0.00  0.00    +0.008 A 
ATOM     14  C   UNL     1      -7.925 -10.192  17.165  0.00  0.00    +0.036 A 
ATOM     15  S   UNL     1      -7.400 -10.600  16.677  0.00  0.00    -0.082 S 
ENDBRANCH   9  11
ENDBRANCH   7   8
ENDBRANCH   6   7
BRANCH   3  16
ATOM     16  N   UNL     1      -4.856  -9.857  11.848  0.00  0.00    -0.206 NA
BRANCH  16  17
ATOM     17  C   UNL     1      -5.118  -9.409  11.206  0.00  0.00    +0.154 C 
BRANCH  17  18
ATOM     18  C   UNL     1      -4.676  -9.386  10.511  0.00  0.00    +0.157 A 
ATOM     19  N   UNL     1      -4.140  -8.798  10.295  0.00  0.00    -0.226 NA
ATOM     20  C   UNL     1      -3.825  -8.997   9.559  0.00  0.00    +0.121 A 
ATOM     21  C   UNL     1      -4.166  -9.708   9.320  0.00  0.00    +0.121 A 
ATOM     22  N   UNL     1      -4.692  -9.949   9.907  0.00  0.00    -0.226 NA
ENDBRANCH  17  18
ENDBRANCH  16  17
ENDBRANCH   3  16
TORSDOF 6
ENDMDL
