MODEL 1
REMARK VINA RESULT:     -15.5      0.000      0.000
REMARK  Name = 
REMARK  3 active torsions:
REMARK  status: ('A' for Active; 'I' for Inactive)
REMARK    1  A    between atoms: C_5  and  N_6
REMARK    2  A    between atoms: N_9  and  C_10
REMARK    3  A    between atoms: C_20  and  C_22
REMARK                            x       y       z     vdW  Elec       q    Type
REMARK                         _______ _______ _______ _____ _____    ______ ____
ROOT
ATOM     10  C   UNL     1      -3.676   1.524  24.269  0.00  0.00    +0.131 A 
ATOM     11  C   UNL     1      -4.461   1.270  24.278  0.00  0.00    +0.023 A 
ATOM     12  C   UNL     1      -5.035   1.718  24.665  0.00  0.00    +0.014 A 
ATOM     13  C   UNL     1      -4.825   2.420  25.043  0.00  0.00    +0.041 A 
ATOM     14  C   UNL     1      -5.194   3.106  25.531  0.00  0.00    +0.058 C 
ATOM     15  C   UNL     1      -5.806   3.329  25.791  0.00  0.00    +0.011 C 
ATOM     16  C   UNL     1      -5.030   3.577  25.781  0.00  0.00    +0.043 C 
ATOM     17  C   UNL     1      -4.161   4.037  25.878  0.00  0.00    +0.096 C 
ATOM     18  N   UNL     1      -3.673   3.504  25.458  0.00  0.00    -0.276 N 
ATOM     19  C   UNL     1      -4.361   3.562  25.634  0.00  0.00    +0.099 C 
ATOM     20  C   UNL     1      -2.988   3.187  25.126  0.00  0.00    +0.251 C 
ATOM     21  O   UNL     1      -3.023   2.476  24.707  0.00  0.00    -0.270 OA
ATOM     28  C   UNL     1      -4.636   2.865  25.272  0.00  0.00    +0.110 C 
ATOM     29  N   UNL     1      -4.040   2.674  25.035  0.00  0.00    -0.298 N 
ATOM     30  C   UNL     1      -3.465   2.226  24.647  0.00  0.00    +0.276 A 
ATOM     31  O   UNL     1      -2.654   2.263  24.503  0.00  0.00    -0.266 OA
ENDROOT
BRANCH  20  22
ATOM     22  C   UNL     1      -2.268   3.579  25.213  0.00  0.00    +0.073 A 
ATOM     23  C   UNL     1      -1.714   3.308  25.762  0.00  0.00    +0.103 A 
ATOM     24  N   UNL     1      -0.993   3.701  25.849  0.00  0.00    -0.242 NA
ATOM     25  C   UNL     1      -0.827   4.364  25.388  0.00  0.00    +0.099 A 
ATOM     26  C   UNL     1      -1.380   4.635  24.840  0.00  0.00    +0.021 A 
ATOM     27  C   UNL     1      -2.101   4.242  24.752  0.00  0.00    +0.008 A 
ENDBRANCH  20  22
BRANCH  10   9
ATOM      6  N   UNL     1      -3.658  -0.117  24.437  0.00  0.00    -0.161 NA
ATOM      7  C   UNL     1      -3.093   0.256  23.966  0.00  0.00    +0.348 C 
ATOM      8  O   UNL     1      -2.518  -0.193  23.578  0.00  0.00    -0.248 OA
ATOM      9  N   UNL     1      -3.102   1.076  23.882  0.00  0.00    -0.156 NA
BRANCH   6   5
ATOM      1 CL   UNL     1      -3.619  -3.400  24.773  0.00  0.00    -0.082 Cl
ATOM      2  C   UNL     1      -3.629  -2.579  24.689  0.00  0.00    +0.058 A 
ATOM      3  C   UNL     1      -3.256  -2.103  25.250  0.00  0.00    +0.013 A 
ATOM      4  C   UNL     1      -3.265  -1.282  25.166  0.00  0.00    +0.018 A 
ATOM      5  C   UNL     1      -3.649  -0.938  24.521  0.00  0.00    +0.075 A 
ATOM     32  C   UNL     1      -4.022  -1.415  23.960  0.00  0.00    +0.018 A 
ATOM     33  C   UNL     1      -4.012  -2.235  24.044  0.00  0.00    +0.013 A 
ENDBRANCH   6   5
ENDBRANCH  10   9
TORSDOF 3
ENDMDL
MODEL 2
REMARK VINA RESULT:     -13.5      0.985      2.429
REMARK  Name = 
REMARK  3 active torsions:
REMARK  status: ('A' for Active; 'I' for Inactive)
REMARK    1  A    between atoms: C_5  and  N_6
REMARK    2  A    between atoms: N_9  and  C_10
REMARK    3  A    between atoms: C_20  and  C_22
REMARK                            x       y       z     vdW  Elec       q    Type
REMARK                         _______ _______ _______ _____ _____    ______ ____
ROOT
ATOM     10  C   UNL     1      -2.700   1.418  24.114  0.00  0.00    +0.131 A 
ATOM     11  C   UNL     1      -1.906   1.202  24.060  0.00  0.00    +0.023 A 
ATOM     12  C   UNL     1      -1.330   1.643  24.454  0.00  0.00    +0.014 A 
ATOM     13  C   UNL     1      -1.549   2.300  24.901  0.00  0.00    +0.041 A 
ATOM     14  C   UNL     1      -1.184   2.960  25.426  0.00  0.00    +0.058 C 
ATOM     15  C   UNL     1      -0.568   3.190  25.672  0.00  0.00    +0.011 C 
ATOM     16  C   UNL     1      -1.353   3.400  25.723  0.00  0.00    +0.043 C 
ATOM     17  C   UNL     1      -2.234   3.809  25.905  0.00  0.00    +0.096 C 
ATOM     18  N   UNL     1      -2.721   3.290  25.466  0.00  0.00    -0.276 N 
ATOM     19  C   UNL     1      -2.028   3.366  25.611  0.00  0.00    +0.099 C 
ATOM     20  C   UNL     1      -3.410   2.969  25.145  0.00  0.00    +0.251 C 
ATOM     21  O   UNL     1      -3.368   2.299  24.665  0.00  0.00    -0.270 OA
ATOM     28  C   UNL     1      -1.744   2.715  25.176  0.00  0.00    +0.110 C 
ATOM     29  N   UNL     1      -2.344   2.517  24.955  0.00  0.00    -0.298 N 
ATOM     30  C   UNL     1      -2.919   2.076  24.561  0.00  0.00    +0.276 A 
ATOM     31  O   UNL     1      -3.738   2.086  24.463  0.00  0.00    -0.266 OA
ENDROOT
BRANCH  20  22
ATOM     22  C   UNL     1      -4.141   3.318  25.303  0.00  0.00    +0.073 A 
ATOM     23  C   UNL     1      -4.607   3.037  25.922  0.00  0.00    +0.103 A 
ATOM     24  N   UNL     1      -5.338   3.386  26.080  0.00  0.00    -0.242 NA
ATOM     25  C   UNL     1      -5.602   4.016  25.618  0.00  0.00    +0.099 A 
ATOM     26  C   UNL     1      -5.136   4.298  24.999  0.00  0.00    +0.021 A 
ATOM     27  C   UNL     1      -4.405   3.949  24.841  0.00  0.00    +0.008 A 
ENDBRANCH  20  22
BRANCH  10   9
ATOM      6  N   UNL     1      -2.893  -0.183  24.462  0.00  0.00    -0.161 NA
ATOM      7  C   UNL     1      -3.372   0.177  23.894  0.00  0.00    +0.348 C 
ATOM      8  O   UNL     1      -3.947  -0.265  23.499  0.00  0.00    -0.248 OA
ATOM      9  N   UNL     1      -3.275   0.977  23.720  0.00  0.00    -0.156 NA
BRANCH   6   5
ATOM      1 CL   UNL     1      -3.283  -3.385  25.155  0.00  0.00    -0.082 Cl
ATOM      2  C   UNL     1      -3.186  -2.585  24.982  0.00  0.00    +0.058 A 
ATOM      3  C   UNL     1      -3.628  -2.019  25.387  0.00  0.00    +0.013 A 
ATOM      4  C   UNL     1      -3.530  -1.218  25.214  0.00  0.00    +0.018 A 
ATOM      5  C   UNL     1      -2.991  -0.984  24.635  0.00  0.00    +0.075 A 
ATOM     32  C   UNL     1      -2.549  -1.551  24.230  0.00  0.00    +0.018 A 
ATOM     33  C   UNL     1      -2.646  -2.351  24.403  0.00  0.00    +0.013 A 
ENDBRANCH   6   5
ENDBRANCH  10   9
TORSDOF 3
ENDMDL
MODEL 3
REMARK VINA RESULT:     -13.2      1.847      3.130
REMARK  Name = 
REMARK  3 active torsions:
REMARK  status: ('A' for Active; 'I' for Inactive)
REMARK    1  A    between atoms: C_5  and  N_6
REMARK    2  A    between atoms: N_9  and  C_10
REMARK    3  A    between atoms: C_20  and  C_22
REMARK                            x       y       z     vdW  Elec       q    Type
REMARK                         _______ _______ _______ _____ _____    ______ ____
ROOT
ATOM     10  C   UNL     1      -1.762   0.414  25.386  0.00  0.00    +0.131 A 
ATOM     11  C   UNL     1      -1.208  -0.160  25.178  0.00  0.00    +0.023 A 
ATOM     12  C   UNL     1      -0.517   0.057  24.783  0.00  0.00    +0.014 A 
ATOM     13  C   UNL     1      -0.381   0.849  24.595  0.00  0.00    +0.041 A 
ATOM     14  C   UNL     1       0.242   1.389  24.189  0.00  0.00    +0.058 C 
ATOM     15  C   UNL     1       0.864   1.365  23.865  0.00  0.00    +0.011 C 
ATOM     16  C   UNL     1       0.314   1.929  24.071  0.00  0.00    +0.043 C 
ATOM     17  C   UNL     1      -0.221   2.745  24.233  0.00  0.00    +0.096 C 
ATOM     18  N   UNL     1      -0.875   2.407  24.627  0.00  0.00    -0.276 N 
ATOM     19  C   UNL     1      -0.263   2.186  24.337  0.00  0.00    +0.099 C 
ATOM     20  C   UNL     1      -1.602   2.366  25.015  0.00  0.00    +0.251 C 
ATOM     21  O   UNL     1      -1.891   1.637  25.274  0.00  0.00    -0.270 OA
ATOM     28  C   UNL     1      -0.342   1.373  24.498  0.00  0.00    +0.110 C 
ATOM     29  N   UNL     1      -0.936   1.423  24.803  0.00  0.00    -0.298 N 
ATOM     30  C   UNL     1      -1.626   1.206  25.198  0.00  0.00    +0.276 A 
ATOM     31  O   UNL     1      -2.301   1.572  25.499  0.00  0.00    -0.266 OA
ENDROOT
BRANCH  20  22
ATOM     22  C   UNL     1      -2.040   3.052  25.145  0.00  0.00    +0.073 A 
ATOM     23  C   UNL     1      -2.622   3.279  24.606  0.00  0.00    +0.103 A 
ATOM     24  N   UNL     1      -3.060   3.967  24.736  0.00  0.00    -0.242 NA
ATOM     25  C   UNL     1      -2.915   4.427  25.405  0.00  0.00    +0.099 A 
ATOM     26  C   UNL     1      -2.334   4.201  25.944  0.00  0.00    +0.021 A 
ATOM     27  C   UNL     1      -1.896   3.513  25.814  0.00  0.00    +0.008 A 
ENDBRANCH  20  22
BRANCH  10   9
ATOM      6  N   UNL     1      -2.691  -0.820  24.805  0.00  0.00    -0.161 NA
ATOM      7  C   UNL     1      -2.917  -0.421  25.491  0.00  0.00    +0.348 C 
ATOM      8  O   UNL     1      -3.608  -0.639  25.887  0.00  0.00    -0.248 OA
ATOM      9  N   UNL     1      -2.453   0.196  25.780  0.00  0.00    -0.156 NA
BRANCH   6   5
ATOM      1 CL   UNL     1      -4.551  -3.287  23.646  0.00  0.00    -0.082 Cl
ATOM      2  C   UNL     1      -4.086  -2.670  23.936  0.00  0.00    +0.058 A 
ATOM      3  C   UNL     1      -4.255  -1.892  23.723  0.00  0.00    +0.013 A 
ATOM      4  C   UNL     1      -3.790  -1.275  24.013  0.00  0.00    +0.018 A 
ATOM      5  C   UNL     1      -3.156  -1.438  24.515  0.00  0.00    +0.075 A 
ATOM     32  C   UNL     1      -2.987  -2.217  24.728  0.00  0.00    +0.018 A 
ATOM     33  C   UNL     1      -3.452  -2.833  24.438  0.00  0.00    +0.013 A 
ENDBRANCH   6   5
ENDBRANCH  10   9
TORSDOF 3
ENDMDL
MODEL 4
REMARK VINA RESULT:     -13.2      1.890      4.172
REMARK  Name = 
REMARK  3 active torsions:
REMARK  status: ('A' for Active; 'I' for Inactive)
REMARK    1  A    between atoms: C_5  and  N_6
REMARK    2  A    between atoms: N_9  and  C_10
REMARK    3  A    between atoms: C_20  and  C_22
REMARK                            x       y       z     vdW  Elec       q    Type
REMARK                         _______ _______ _______ _____ _____    ______ ____
ROOT
ATOM     10  C   UNL     1      -3.054   1.815  24.007  0.00  0.00    +0.131 A 
ATOM     11  C   UNL     1      -3.302   2.598  24.084  0.00  0.00    +0.023 A 
ATOM     12  C   UNL     1      -4.055   2.765  24.376  0.00  0.00    +0.014 A 
ATOM     13  C   UNL     1      -4.560   2.150  24.592  0.00  0.00    +0.041 A 
ATOM     14  C   UNL     1      -5.402   2.002  24.928  0.00  0.00    +0.058 C 
ATOM     15  C   UNL     1      -5.976   2.344  25.145  0.00  0.00    +0.011 C 
ATOM     16  C   UNL     1      -5.728   1.572  25.068  0.00  0.00    +0.043 C 
ATOM     17  C   UNL     1      -5.614   0.590  25.049  0.00  0.00    +0.096 C 
ATOM     18  N   UNL     1      -4.837   0.546  24.744  0.00  0.00    -0.276 N 
ATOM     19  C   UNL     1      -5.307   1.052  24.916  0.00  0.00    +0.099 C 
ATOM     20  C   UNL     1      -4.134   0.207  24.476  0.00  0.00    +0.251 C 
ATOM     21  O   UNL     1      -3.515   0.689  24.219  0.00  0.00    -0.270 OA
ATOM     28  C   UNL     1      -4.846   1.716  24.716  0.00  0.00    +0.110 C 
ATOM     29  N   UNL     1      -4.312   1.367  24.515  0.00  0.00    -0.298 N 
ATOM     30  C   UNL     1      -3.559   1.199  24.223  0.00  0.00    +0.276 A 
ATOM     31  O   UNL     1      -3.099   0.534  24.059  0.00  0.00    -0.266 OA
ENDROOT
BRANCH  20  22
ATOM     22  C   UNL     1      -4.050  -0.613  24.464  0.00  0.00    +0.073 A 
ATOM     23  C   UNL     1      -4.295  -1.045  23.806  0.00  0.00    +0.103 A 
ATOM     24  N   UNL     1      -4.211  -1.866  23.794  0.00  0.00    -0.242 NA
ATOM     25  C   UNL     1      -3.880  -2.255  24.443  0.00  0.00    +0.099 A 
ATOM     26  C   UNL     1      -3.634  -1.824  25.101  0.00  0.00    +0.021 A 
ATOM     27  C   UNL     1      -3.719  -1.003  25.113  0.00  0.00    +0.008 A 
ENDBRANCH  20  22
BRANCH  10   9
ATOM      6  N   UNL     1      -1.720   2.183  24.905  0.00  0.00    -0.161 NA
ATOM      7  C   UNL     1      -1.634   1.832  24.163  0.00  0.00    +0.348 C 
ATOM      8  O   UNL     1      -0.880   1.665  23.870  0.00  0.00    -0.248 OA
ATOM      9  N   UNL     1      -2.301   1.648  23.715  0.00  0.00    -0.156 NA
BRANCH   6   5
ATOM      1 CL   UNL     1       0.951   2.917  26.699  0.00  0.00    -0.082 Cl
ATOM      2  C   UNL     1       0.284   2.734  26.251  0.00  0.00    +0.058 A 
ATOM      3  C   UNL     1      -0.081   1.999  26.336  0.00  0.00    +0.013 A 
ATOM      4  C   UNL     1      -0.749   1.816  25.888  0.00  0.00    +0.018 A 
ATOM      5  C   UNL     1      -1.051   2.367  25.354  0.00  0.00    +0.075 A 
ATOM     32  C   UNL     1      -0.686   3.102  25.268  0.00  0.00    +0.018 A 
ATOM     33  C   UNL     1      -0.019   3.285  25.716  0.00  0.00    +0.013 A 
ENDBRANCH   6   5
ENDBRANCH  10   9
TORSDOF 3
ENDMDL
MODEL 5
REMARK VINA RESULT:     -13.0      2.173      4.337
REMARK  Name = 
REMARK  3 active torsions:
REMARK  status: ('A' for Active; 'I' for Inactive)
REMARK    1  A    between atoms: C_5  and  N_6
REMARK    2  A    between atoms: N_9  and  C_10
REMARK    3  A    between atoms: C_20  and  C_22
REMARK                            x       y       z     vdW  Elec       q    Type
REMARK                         _______ _______ _______ _____ _____    ______ ____
ROOT
ATOM     10  C   UNL     1      -3.289   0.579  23.887  0.00  0.00    +0.131 A 
ATOM     11  C   UNL     1      -3.960   0.144  24.090  0.00  0.00    +0.023 A 
ATOM     12  C   UNL     1      -3.882  -0.577  24.483  0.00  0.00    +0.014 A 
ATOM     13  C   UNL     1      -3.132  -0.864  24.673  0.00  0.00    +0.041 A 
ATOM     14  C   UNL     1      -2.723  -1.580  25.079  0.00  0.00    +0.058 C 
ATOM     15  C   UNL     1      -2.868  -2.187  25.399  0.00  0.00    +0.011 C 
ATOM     16  C   UNL     1      -2.208  -1.755  25.197  0.00  0.00    +0.043 C 
ATOM     17  C   UNL     1      -1.304  -1.387  25.041  0.00  0.00    +0.096 C 
ATOM     18  N   UNL     1      -1.508  -0.678  24.649  0.00  0.00    -0.276 N 
ATOM     19  C   UNL     1      -1.844  -1.237  24.935  0.00  0.00    +0.099 C 
ATOM     20  C   UNL     1      -1.406   0.045  24.264  0.00  0.00    +0.251 C 
ATOM     21  O   UNL     1      -2.065   0.469  24.004  0.00  0.00    -0.270 OA
ATOM     28  C   UNL     1      -2.626  -1.003  24.772  0.00  0.00    +0.110 C 
ATOM     29  N   UNL     1      -2.461  -0.429  24.470  0.00  0.00    -0.298 N 
ATOM     30  C   UNL     1      -2.539   0.292  24.077  0.00  0.00    +0.276 A 
ATOM     31  O   UNL     1      -2.049   0.885  23.780  0.00  0.00    -0.266 OA
ENDROOT
BRANCH  20  22
ATOM     22  C   UNL     1      -0.648   0.343  24.139  0.00  0.00    +0.073 A 
ATOM     23  C   UNL     1      -0.186   0.050  23.521  0.00  0.00    +0.103 A 
ATOM     24  N   UNL     1       0.574   0.348  23.396  0.00  0.00    -0.242 NA
ATOM     25  C   UNL     1       0.870   0.939  23.889  0.00  0.00    +0.099 A 
ATOM     26  C   UNL     1       0.409   1.232  24.507  0.00  0.00    +0.021 A 
ATOM     27  C   UNL     1      -0.350   0.934  24.632  0.00  0.00    +0.008 A 
ENDBRANCH  20  22
BRANCH  10   9
ATOM      6  N   UNL     1      -4.183   1.792  24.560  0.00  0.00    -0.161 NA
ATOM      7  C   UNL     1      -3.815   1.906  23.831  0.00  0.00    +0.348 C 
ATOM      8  O   UNL     1      -3.894   2.628  23.437  0.00  0.00    -0.248 OA
ATOM      9  N   UNL     1      -3.368   1.300  23.495  0.00  0.00    -0.156 NA
BRANCH   6   5
ATOM      1 CL   UNL     1      -5.971   4.218  25.903  0.00  0.00    -0.082 Cl
ATOM      2  C   UNL     1      -5.524   3.612  25.568  0.00  0.00    +0.058 A 
ATOM      3  C   UNL     1      -5.897   2.931  25.287  0.00  0.00    +0.013 A 
ATOM      4  C   UNL     1      -5.450   2.325  24.952  0.00  0.00    +0.018 A 
ATOM      5  C   UNL     1      -4.630   2.399  24.896  0.00  0.00    +0.075 A 
ATOM     32  C   UNL     1      -4.257   3.079  25.177  0.00  0.00    +0.018 A 
ATOM     33  C   UNL     1      -4.704   3.686  25.513  0.00  0.00    +0.013 A 
ENDBRANCH   6   5
ENDBRANCH  10   9
TORSDOF 3
ENDMDL
MODEL 6
REMARK VINA RESULT:     -12.5      2.466      4.384
REMARK  Name = 
REMARK  3 active torsions:
REMARK  status: ('A' for Active; 'I' for Inactive)
REMARK    1  A    between atoms: C_5  and  N_6
REMARK    2  A    between atoms: N_9  and  C_10
REMARK    3  A    between atoms: C_20  and  C_22
REMARK                            x       y       z     vdW  Elec       q    Type
REMARK                         _______ _______ _______ _____ _____    ______ ____
ROOT
ATOM     10  C   UNL     1      -1.993  -0.348  25.060  0.00  0.00    +0.131 A 
ATOM     11  C   UNL     1      -1.724  -1.122  24.962  0.00  0.00    +0.023 A 
ATOM     12  C   UNL     1      -2.236  -1.705  24.684  0.00  0.00    +0.014 A 
ATOM     13  C   UNL     1      -3.018  -1.515  24.503  0.00  0.00    +0.041 A 
ATOM     14  C   UNL     1      -3.793  -1.900  24.193  0.00  0.00    +0.058 C 
ATOM     15  C   UNL     1      -4.054  -2.516  23.979  0.00  0.00    +0.011 C 
ATOM     16  C   UNL     1      -4.317  -1.751  24.077  0.00  0.00    +0.043 C 
ATOM     17  C   UNL     1      -4.815  -0.899  24.127  0.00  0.00    +0.096 C 
ATOM     18  N   UNL     1      -4.210  -0.399  24.413  0.00  0.00    -0.276 N 
ATOM     19  C   UNL     1      -4.287  -1.085  24.236  0.00  0.00    +0.099 C 
ATOM     20  C   UNL     1      -3.841   0.291  24.675  0.00  0.00    +0.251 C 
ATOM     21  O   UNL     1      -3.046   0.275  24.899  0.00  0.00    -0.270 OA
ATOM     28  C   UNL     1      -3.512  -1.339  24.400  0.00  0.00    +0.110 C 
ATOM     29  N   UNL     1      -3.287  -0.741  24.600  0.00  0.00    -0.298 N 
ATOM     30  C   UNL     1      -2.775  -0.158  24.879  0.00  0.00    +0.276 A 
ATOM     31  O   UNL     1      -2.801   0.648  25.053  0.00  0.00    -0.266 OA
ENDROOT
BRANCH  20  22
ATOM     22  C   UNL     1      -4.266   0.997  24.712  0.00  0.00    +0.073 A 
ATOM     23  C   UNL     1      -4.169   1.569  24.126  0.00  0.00    +0.103 A 
ATOM     24  N   UNL     1      -4.595   2.275  24.164  0.00  0.00    -0.242 NA
ATOM     25  C   UNL     1      -5.117   2.408  24.788  0.00  0.00    +0.099 A 
ATOM     26  C   UNL     1      -5.215   1.837  25.374  0.00  0.00    +0.021 A 
ATOM     27  C   UNL     1      -4.789   1.131  25.337  0.00  0.00    +0.008 A 
ENDBRANCH  20  22
BRANCH  10   9
ATOM      6  N   UNL     1      -0.578  -0.046  24.267  0.00  0.00    -0.161 NA
ATOM      7  C   UNL     1      -0.773   0.386  24.942  0.00  0.00    +0.348 C 
ATOM      8  O   UNL     1      -0.260   0.969  25.222  0.00  0.00    -0.248 OA
ATOM      9  N   UNL     1      -1.481   0.235  25.338  0.00  0.00    -0.156 NA
BRANCH   6   5
ATOM      1 CL   UNL     1       2.254   0.559  22.684  0.00  0.00    -0.082 Cl
ATOM      2  C   UNL     1       1.546   0.408  23.080  0.00  0.00    +0.058 A 
ATOM      3  C   UNL     1       1.253  -0.362  23.121  0.00  0.00    +0.013 A 
ATOM      4  C   UNL     1       0.545  -0.513  23.516  0.00  0.00    +0.018 A 
ATOM      5  C   UNL     1       0.131   0.106  23.871  0.00  0.00    +0.075 A 
ATOM     32  C   UNL     1       0.424   0.876  23.830  0.00  0.00    +0.018 A 
ATOM     33  C   UNL     1       1.131   1.027  23.434  0.00  0.00    +0.013 A 
ENDBRANCH   6   5
ENDBRANCH  10   9
TORSDOF 3
ENDMDL
