MODEL 1
REMARK VINA RESULT:     -11.6      0.000      0.000
REMARK  Name = 
REMARK  3 active torsions:
REMARK  status: ('A' for Active; 'I' for Inactive)
REMARK    1  A    between atoms: C_5  and  C_6
REMARK    2  A    between atoms: C_6  and  N_7
REMARK    3  A    between atoms: C_17  and  C_19
REMARK                            x       y       z     vdW  Elec       q    Type
REMARK                         _______ _______ _______ _____ _____    ______ ____
ROOT
ATOM      7  N   UNL     1      -4.667   2.582  24.934  0.00  0.00    -0.271 N 
ATOM      8  C   UNL     1      -4.477   1.784  24.836  0.00  0.00    +0.124 C 
ATOM      9  C   UNL     1      -3.891   1.405  24.396  0.00  0.00    +0.116 C 
ATOM     10  N   UNL     1      -3.969   0.593  24.513  0.00  0.00    -0.269 N 
ATOM     11  C   UNL     1      -4.604   0.469  25.026  0.00  0.00    +0.125 C 
ATOM     12  C   UNL     1      -4.918   1.206  25.225  0.00  0.00    +0.155 C 
ATOM     13  O   UNL     1      -5.549   1.424  25.712  0.00  0.00    -0.343 OA
ATOM     14  C   UNL     1      -5.737   2.221  25.808  0.00  0.00    +0.227 C 
ATOM     15  C   UNL     1      -5.296   2.800  25.419  0.00  0.00    +0.256 C 
ATOM     16  O   UNL     1      -5.486   3.596  25.516  0.00  0.00    -0.272 OA
ATOM     17  C   UNL     1      -3.496   0.006  24.177  0.00  0.00    +0.287 C 
ATOM     18  O   UNL     1      -2.878   0.214  23.672  0.00  0.00    -0.266 OA
ENDROOT
BRANCH  17  19
ATOM     19  C   UNL     1      -3.642  -0.788  24.346  0.00  0.00    +0.230 A 
ATOM     20  C   UNL     1      -4.051  -1.319  23.864  0.00  0.00    +0.069 A 
ATOM     21  C   UNL     1      -4.067  -2.049  24.246  0.00  0.00    +0.144 A 
ATOM     22  N   UNL     1      -3.667  -1.971  24.964  0.00  0.00    -0.075 NA
ATOM     23  O   UNL     1      -3.405  -1.191  25.026  0.00  0.00    -0.349 OA
ENDBRANCH  17  19
BRANCH   7   6
ATOM      6  C   UNL     1      -4.225   3.161  24.544  0.00  0.00    +0.120 C 
BRANCH   6   5
ATOM      1  F   UNL     1      -1.592   4.496  26.017  0.00  0.00    -0.204 F 
ATOM      2  C   UNL     1      -2.251   4.162  25.649  0.00  0.00    +0.140 A 
ATOM      3  C   UNL     1      -2.180   3.838  24.893  0.00  0.00    +0.029 A 
ATOM      4  C   UNL     1      -2.839   3.504  24.525  0.00  0.00    -0.000 A 
ATOM      5  C   UNL     1      -3.568   3.495  24.912  0.00  0.00    -0.002 A 
ATOM     24  C   UNL     1      -3.637   3.819  25.667  0.00  0.00    -0.000 A 
ATOM     25  C   UNL     1      -2.979   4.153  26.036  0.00  0.00    +0.029 A 
ENDBRANCH   6   5
ENDBRANCH   7   6
TORSDOF 3
ENDMDL
MODEL 2
REMARK VINA RESULT:     -11.5      2.777      5.262
REMARK  Name = 
REMARK  3 active torsions:
REMARK  status: ('A' for Active; 'I' for Inactive)
REMARK    1  A    between atoms: C_5  and  C_6
REMARK    2  A    between atoms: C_6  and  N_7
REMARK    3  A    between atoms: C_17  and  C_19
REMARK                            x       y       z     vdW  Elec       q    Type
REMARK                         _______ _______ _______ _____ _____    ______ ____
ROOT
ATOM      7  N   UNL     1      -1.827  -0.816  25.216  0.00  0.00    -0.271 N 
ATOM      8  C   UNL     1      -1.687  -0.008  25.118  0.00  0.00    +0.124 C 
ATOM      9  C   UNL     1      -2.161   0.655  25.247  0.00  0.00    +0.116 C 
ATOM     10  N   UNL     1      -1.722   1.325  25.051  0.00  0.00    -0.269 N 
ATOM     11  C   UNL     1      -0.975   1.076  24.802  0.00  0.00    +0.125 C 
ATOM     12  C   UNL     1      -0.954   0.252  24.843  0.00  0.00    +0.155 C 
ATOM     13  O   UNL     1      -0.361  -0.295  24.666  0.00  0.00    -0.343 OA
ATOM     14  C   UNL     1      -0.502  -1.101  24.765  0.00  0.00    +0.227 C 
ATOM     15  C   UNL     1      -1.235  -1.362  25.040  0.00  0.00    +0.256 C 
ATOM     16  O   UNL     1      -1.376  -2.168  25.138  0.00  0.00    -0.272 OA
ATOM     17  C   UNL     1      -1.983   2.106  25.097  0.00  0.00    +0.287 C 
ATOM     18  O   UNL     1      -2.747   2.271  25.357  0.00  0.00    -0.266 OA
ENDROOT
BRANCH  17  19
ATOM     19  C   UNL     1      -1.478   2.722  24.881  0.00  0.00    +0.230 A 
ATOM     20  C   UNL     1      -1.113   3.252  25.397  0.00  0.00    +0.069 A 
ATOM     21  C   UNL     1      -0.659   3.774  24.947  0.00  0.00    +0.144 A 
ATOM     22  N   UNL     1      -0.743   3.566  24.153  0.00  0.00    -0.075 NA
ATOM     23  O   UNL     1      -1.249   2.916  24.112  0.00  0.00    -0.349 OA
ENDBRANCH  17  19
BRANCH   7   6
ATOM      6  C   UNL     1      -2.561  -1.077  25.492  0.00  0.00    +0.120 C 
BRANCH   6   5
ATOM      1  F   UNL     1      -4.698  -2.483  23.410  0.00  0.00    -0.204 F 
ATOM      2  C   UNL     1      -4.164  -2.131  23.930  0.00  0.00    +0.140 A 
ATOM      3  C   UNL     1      -3.673  -2.602  24.398  0.00  0.00    +0.029 A 
ATOM      4  C   UNL     1      -3.139  -2.250  24.919  0.00  0.00    -0.000 A 
ATOM      5  C   UNL     1      -3.095  -1.428  24.971  0.00  0.00    -0.002 A 
ATOM     24  C   UNL     1      -3.585  -0.958  24.504  0.00  0.00    -0.000 A 
ATOM     25  C   UNL     1      -4.120  -1.309  23.983  0.00  0.00    +0.029 A 
ENDBRANCH   6   5
ENDBRANCH   7   6
TORSDOF 3
ENDMDL
MODEL 3
REMARK VINA RESULT:     -11.4      2.706      4.462
REMARK  Name = 
REMARK  3 active torsions:
REMARK  status: ('A' for Active; 'I' for Inactive)
REMARK    1  A    between atoms: C_5  and  C_6
REMARK    2  A    between atoms: C_6  and  N_7
REMARK    3  A    between atoms: C_17  and  C_19
REMARK                            x       y       z     vdW  Elec       q    Type
REMARK                         _______ _______ _______ _____ _____    ______ ____
ROOT
ATOM      7  N   UNL     1      -3.751   0.425  25.019  0.00  0.00    -0.271 N 
ATOM      8  C   UNL     1      -2.968   0.681  24.963  0.00  0.00    +0.124 C 
ATOM      9  C   UNL     1      -2.260   0.359  25.241  0.00  0.00    +0.116 C 
ATOM     10  N   UNL     1      -1.646   0.862  25.017  0.00  0.00    -0.269 N 
ATOM     11  C   UNL     1      -1.974   1.495  24.600  0.00  0.00    +0.125 C 
ATOM     12  C   UNL     1      -2.791   1.382  24.567  0.00  0.00    +0.155 C 
ATOM     13  O   UNL     1      -3.397   1.829  24.227  0.00  0.00    -0.343 OA
ATOM     14  C   UNL     1      -4.179   1.572  24.284  0.00  0.00    +0.227 C 
ATOM     15  C   UNL     1      -4.356   0.871  24.680  0.00  0.00    +0.256 C 
ATOM     16  O   UNL     1      -5.137   0.615  24.736  0.00  0.00    -0.272 OA
ATOM     17  C   UNL     1      -0.845   0.752  25.180  0.00  0.00    +0.287 C 
ATOM     18  O   UNL     1      -0.598   0.090  25.605  0.00  0.00    -0.266 OA
ENDROOT
BRANCH  17  19
ATOM     19  C   UNL     1      -0.292   1.306  24.919  0.00  0.00    +0.230 A 
ATOM     20  C   UNL     1       0.113   1.284  24.199  0.00  0.00    +0.069 A 
ATOM     21  C   UNL     1       0.609   1.942  24.167  0.00  0.00    +0.144 A 
ATOM     22  N   UNL     1       0.512   2.371  24.864  0.00  0.00    -0.075 NA
ATOM     23  O   UNL     1      -0.045   1.978  25.330  0.00  0.00    -0.349 OA
ENDBRANCH  17  19
BRANCH   7   6
ATOM      6  C   UNL     1      -3.928  -0.278  25.415  0.00  0.00    +0.120 C 
BRANCH   6   5
ATOM      1  F   UNL     1      -3.850  -3.150  23.795  0.00  0.00    -0.204 F 
ATOM      2  C   UNL     1      -3.869  -2.432  24.200  0.00  0.00    +0.140 A 
ATOM      3  C   UNL     1      -3.494  -2.361  24.932  0.00  0.00    +0.029 A 
ATOM      4  C   UNL     1      -3.513  -1.642  25.336  0.00  0.00    -0.000 A 
ATOM      5  C   UNL     1      -3.908  -0.995  25.010  0.00  0.00    -0.002 A 
ATOM     24  C   UNL     1      -4.283  -1.067  24.280  0.00  0.00    -0.000 A 
ATOM     25  C   UNL     1      -4.264  -1.785  23.874  0.00  0.00    +0.029 A 
ENDBRANCH   6   5
ENDBRANCH   7   6
TORSDOF 3
ENDMDL
MODEL 4
REMARK VINA RESULT:     -11.2      1.460      2.372
REMARK  Name = 
REMARK  3 active torsions:
REMARK  status: ('A' for Active; 'I' for Inactive)
REMARK    1  A    between atoms: C_5  and  C_6
REMARK    2  A    between atoms: C_6  and  N_7
REMARK    3  A    between atoms: C_17  and  C_19
REMARK                            x       y       z     vdW  Elec       q    Type
REMARK                         _______ _______ _______ _____ _____    ______ ____
ROOT
ATOM      7  N   UNL     1      -2.145   1.994  24.103  0.00  0.00    -0.271 N 
ATOM      8  C   UNL     1      -2.466   1.247  24.246  0.00  0.00    +0.124 C 
ATOM      9  C   UNL     1      -3.241   0.992  24.366  0.00  0.00    +0.116 C 
ATOM     10  N   UNL     1      -3.226   0.176  24.483  0.00  0.00    -0.269 N 
ATOM     11  C   UNL     1      -2.441  -0.074  24.435  0.00  0.00    +0.125 C 
ATOM     12  C   UNL     1      -1.971   0.588  24.289  0.00  0.00    +0.155 C 
ATOM     13  O   UNL     1      -1.156   0.676  24.189  0.00  0.00    -0.343 OA
ATOM     14  C   UNL     1      -0.837   1.424  24.046  0.00  0.00    +0.227 C 
ATOM     15  C   UNL     1      -1.332   2.083  24.003  0.00  0.00    +0.256 C 
ATOM     16  O   UNL     1      -1.013   2.829  23.860  0.00  0.00    -0.272 OA
ATOM     17  C   UNL     1      -3.880  -0.307  24.623  0.00  0.00    +0.287 C 
ATOM     18  O   UNL     1      -4.635   0.023  24.656  0.00  0.00    -0.266 OA
ENDROOT
BRANCH  17  19
ATOM     19  C   UNL     1      -3.779  -1.119  24.730  0.00  0.00    +0.230 A 
ATOM     20  C   UNL     1      -3.902  -1.702  24.160  0.00  0.00    +0.069 A 
ATOM     21  C   UNL     1      -3.736  -2.433  24.503  0.00  0.00    +0.144 A 
ATOM     22  N   UNL     1      -3.509  -2.303  25.285  0.00  0.00    -0.075 NA
ATOM     23  O   UNL     1      -3.535  -1.490  25.426  0.00  0.00    -0.349 OA
ENDBRANCH  17  19
BRANCH   7   6
ATOM      6  C   UNL     1      -2.641   2.654  24.060  0.00  0.00    +0.120 C 
BRANCH   6   5
ATOM      1  F   UNL     1      -3.148   4.513  26.738  0.00  0.00    -0.204 F 
ATOM      2  C   UNL     1      -3.021   4.048  26.068  0.00  0.00    +0.140 A 
ATOM      3  C   UNL     1      -3.657   3.673  25.700  0.00  0.00    +0.029 A 
ATOM      4  C   UNL     1      -3.530   3.208  25.030  0.00  0.00    -0.000 A 
ATOM      5  C   UNL     1      -2.767   3.118  24.729  0.00  0.00    -0.002 A 
ATOM     24  C   UNL     1      -2.132   3.493  25.097  0.00  0.00    -0.000 A 
ATOM     25  C   UNL     1      -2.258   3.958  25.767  0.00  0.00    +0.029 A 
ENDBRANCH   6   5
ENDBRANCH   7   6
TORSDOF 3
ENDMDL
MODEL 5
REMARK VINA RESULT:     -11.0      1.862      2.211
REMARK  Name = 
REMARK  3 active torsions:
REMARK  status: ('A' for Active; 'I' for Inactive)
REMARK    1  A    between atoms: C_5  and  C_6
REMARK    2  A    between atoms: C_6  and  N_7
REMARK    3  A    between atoms: C_17  and  C_19
REMARK                            x       y       z     vdW  Elec       q    Type
REMARK                         _______ _______ _______ _____ _____    ______ ____
ROOT
ATOM      7  N   UNL     1      -2.832   2.520  24.834  0.00  0.00    -0.271 N 
ATOM      8  C   UNL     1      -2.586   1.733  24.809  0.00  0.00    +0.124 C 
ATOM      9  C   UNL     1      -2.099   1.290  25.307  0.00  0.00    +0.116 C 
ATOM     10  N   UNL     1      -2.051   0.525  25.003  0.00  0.00    -0.269 N 
ATOM     11  C   UNL     1      -2.509   0.494  24.317  0.00  0.00    +0.125 C 
ATOM     12  C   UNL     1      -2.840   1.241  24.197  0.00  0.00    +0.155 C 
ATOM     13  O   UNL     1      -3.339   1.536  23.610  0.00  0.00    -0.343 OA
ATOM     14  C   UNL     1      -3.585   2.324  23.636  0.00  0.00    +0.227 C 
ATOM     15  C   UNL     1      -3.331   2.815  24.248  0.00  0.00    +0.256 C 
ATOM     16  O   UNL     1      -3.577   3.602  24.273  0.00  0.00    -0.272 OA
ATOM     17  C   UNL     1      -1.621  -0.100  25.327  0.00  0.00    +0.287 C 
ATOM     18  O   UNL     1      -1.187   0.013  26.018  0.00  0.00    -0.266 OA
ENDROOT
BRANCH  17  19
ATOM     19  C   UNL     1      -1.626  -0.839  24.958  0.00  0.00    +0.230 A 
ATOM     20  C   UNL     1      -2.134  -1.465  25.134  0.00  0.00    +0.069 A 
ATOM     21  C   UNL     1      -1.946  -2.093  24.634  0.00  0.00    +0.144 A 
ATOM     22  N   UNL     1      -1.323  -1.857  24.149  0.00  0.00    -0.075 NA
ATOM     23  O   UNL     1      -1.124  -1.080  24.349  0.00  0.00    -0.349 OA
ENDBRANCH  17  19
BRANCH   7   6
ATOM      6  C   UNL     1      -2.578   3.012  25.447  0.00  0.00    +0.120 C 
BRANCH   6   5
ATOM      1  F   UNL     1      -0.373   5.391  24.846  0.00  0.00    -0.204 F 
ATOM      2  C   UNL     1      -0.924   4.796  24.996  0.00  0.00    +0.140 A 
ATOM      3  C   UNL     1      -1.700   4.994  25.195  0.00  0.00    +0.029 A 
ATOM      4  C   UNL     1      -2.251   4.399  25.345  0.00  0.00    -0.000 A 
ATOM      5  C   UNL     1      -2.027   3.606  25.297  0.00  0.00    -0.002 A 
ATOM     24  C   UNL     1      -1.252   3.409  25.098  0.00  0.00    -0.000 A 
ATOM     25  C   UNL     1      -0.700   4.003  24.947  0.00  0.00    +0.029 A 
ENDBRANCH   6   5
ENDBRANCH   7   6
TORSDOF 3
ENDMDL
MODEL 6
REMARK VINA RESULT:     -10.8      2.048      2.860
REMARK  Name = 
REMARK  3 active torsions:
REMARK  status: ('A' for Active; 'I' for Inactive)
REMARK    1  A    between atoms: C_5  and  C_6
REMARK    2  A    between atoms: C_6  and  N_7
REMARK    3  A    between atoms: C_17  and  C_19
REMARK                            x       y       z     vdW  Elec       q    Type
REMARK                         _______ _______ _______ _____ _____    ______ ____
ROOT
ATOM      7  N   UNL     1      -3.143   2.585  24.490  0.00  0.00    -0.271 N 
ATOM      8  C   UNL     1      -2.715   1.883  24.557  0.00  0.00    +0.124 C 
ATOM      9  C   UNL     1      -2.914   1.098  24.399  0.00  0.00    +0.116 C 
ATOM     10  N   UNL     1      -2.258   0.629  24.571  0.00  0.00    -0.269 N 
ATOM     11  C   UNL     1      -1.653   1.124  24.836  0.00  0.00    +0.125 C 
ATOM     12  C   UNL     1      -1.936   1.899  24.827  0.00  0.00    +0.155 C 
ATOM     13  O   UNL     1      -1.585   2.618  25.031  0.00  0.00    -0.343 OA
ATOM     14  C   UNL     1      -2.013   3.320  24.963  0.00  0.00    +0.227 C 
ATOM     15  C   UNL     1      -2.793   3.303  24.693  0.00  0.00    +0.256 C 
ATOM     16  O   UNL     1      -3.220   4.005  24.626  0.00  0.00    -0.272 OA
ATOM     17  C   UNL     1      -2.213  -0.191  24.493  0.00  0.00    +0.287 C 
ATOM     18  O   UNL     1      -2.865  -0.615  24.220  0.00  0.00    -0.266 OA
ENDROOT
BRANCH  17  19
ATOM     19  C   UNL     1      -1.516  -0.587  24.688  0.00  0.00    +0.230 A 
ATOM     20  C   UNL     1      -1.376  -1.010  25.383  0.00  0.00    +0.069 A 
ATOM     21  C   UNL     1      -0.610  -1.313  25.347  0.00  0.00    +0.144 A 
ATOM     22  N   UNL     1      -0.275  -1.078  24.630  0.00  0.00    -0.075 NA
ATOM     23  O   UNL     1      -0.835  -0.628  24.222  0.00  0.00    -0.349 OA
ENDBRANCH  17  19
BRANCH   7   6
ATOM      6  C   UNL     1      -3.923   2.569  24.220  0.00  0.00    +0.120 C 
BRANCH   6   5
ATOM      1  F   UNL     1      -6.410   2.306  26.372  0.00  0.00    -0.204 F 
ATOM      2  C   UNL     1      -5.788   2.372  25.834  0.00  0.00    +0.140 A 
ATOM      3  C   UNL     1      -5.670   1.784  25.267  0.00  0.00    +0.029 A 
ATOM      4  C   UNL     1      -5.048   1.850  24.729  0.00  0.00    -0.000 A 
ATOM      5  C   UNL     1      -4.545   2.504  24.758  0.00  0.00    -0.002 A 
ATOM     24  C   UNL     1      -4.663   3.091  25.324  0.00  0.00    -0.000 A 
ATOM     25  C   UNL     1      -5.285   3.025  25.863  0.00  0.00    +0.029 A 
ENDBRANCH   6   5
ENDBRANCH   7   6
TORSDOF 3
ENDMDL
