MODEL 1
REMARK VINA RESULT:     -11.4      0.000      0.000
REMARK  Name = 
REMARK  6 active torsions:
REMARK  status: ('A' for Active; 'I' for Inactive)
REMARK    1  A    between atoms: C_2  and  C_5
REMARK    2  A    between atoms: C_9  and  N_10
REMARK    3  A    between atoms: N_13  and  C_14
REMARK    4  A    between atoms: C_18  and  O_22
REMARK    5  A    between atoms: O_22  and  C_23
REMARK    6  A    between atoms: C_23  and  C_24
REMARK                            x       y       z     vdW  Elec       q    Type
REMARK                         _______ _______ _______ _____ _____    ______ ____
ROOT
ATOM     14  C   UNL     1      -4.103   1.477  24.404  0.00  0.00    +0.156 C 
ATOM     15  C   UNL     1      -3.637   1.642  23.744  0.00  0.00    +0.166 C 
ATOM     16  O   UNL     1      -3.297   2.386  23.853  0.00  0.00    -0.349 OA
ATOM     17  C   UNL     1      -3.552   2.679  24.580  0.00  0.00    +0.173 C 
ATOM     18  C   UNL     1      -3.500   3.320  25.097  0.00  0.00    +0.175 C 
ATOM     19  C   UNL     1      -3.967   3.154  25.757  0.00  0.00    +0.174 C 
ATOM     20  O   UNL     1      -4.307   2.411  25.648  0.00  0.00    -0.349 OA
ATOM     21  C   UNL     1      -4.051   2.117  24.920  0.00  0.00    +0.167 C 
ENDROOT
BRANCH  14  13
ATOM     10  N   UNL     1      -4.652  -0.634  24.491  0.00  0.00    -0.161 NA
ATOM     11  C   UNL     1      -4.212   0.052  24.370  0.00  0.00    +0.344 C 
ATOM     12  O   UNL     1      -3.436   0.001  24.092  0.00  0.00    -0.249 OA
ATOM     13  N   UNL     1      -4.545   0.790  24.525  0.00  0.00    -0.184 NA
BRANCH  10   9
ATOM      5  C   UNL     1      -3.457  -2.446  24.716  0.00  0.00    +0.073 A 
ATOM      6  C   UNL     1      -3.652  -2.849  24.023  0.00  0.00    +0.004 A 
ATOM      7  C   UNL     1      -4.182  -2.514  23.486  0.00  0.00    +0.001 A 
ATOM      8  C   UNL     1      -4.515  -1.776  23.643  0.00  0.00    +0.017 A 
ATOM      9  C   UNL     1      -4.319  -1.373  24.335  0.00  0.00    +0.075 A 
ATOM     30  C   UNL     1      -3.790  -1.708  24.872  0.00  0.00    +0.021 A 
BRANCH   5   2
ATOM      1  F   UNL     1      -2.398  -3.118  25.789  0.00  0.00    -0.166 F 
ATOM      2  C   UNL     1      -2.928  -2.782  25.252  0.00  0.00    +0.419 C 
ATOM      3  F   UNL     1      -2.313  -2.676  24.713  0.00  0.00    -0.166 F 
ATOM      4  F   UNL     1      -3.542  -2.888  25.793  0.00  0.00    -0.166 F 
ENDBRANCH   5   2
ENDBRANCH  10   9
ENDBRANCH  14  13
BRANCH  18  22
ATOM     22  O   UNL     1      -3.059   4.006  24.976  0.00  0.00    -0.346 OA
BRANCH  22  23
ATOM     23  C   UNL     1      -2.459   4.210  25.504  0.00  0.00    +0.169 C 
BRANCH  23  24
ATOM     24  C   UNL     1      -1.810   4.648  25.243  0.00  0.00    +0.007 A 
ATOM     25  C   UNL     1      -1.084   4.276  25.122  0.00  0.00    -0.002 A 
ATOM     26  C   UNL     1      -0.434   4.713  24.861  0.00  0.00    -0.000 A 
ATOM     27  C   UNL     1      -0.512   5.523  24.721  0.00  0.00    -0.000 A 
ATOM     28  C   UNL     1      -1.239   5.894  24.842  0.00  0.00    -0.000 A 
ATOM     29  C   UNL     1      -1.888   5.457  25.103  0.00  0.00    -0.002 A 
ENDBRANCH  23  24
ENDBRANCH  22  23
ENDBRANCH  18  22
TORSDOF 6
ENDMDL
MODEL 2
REMARK VINA RESULT:     -10.8      3.147      6.396
REMARK  Name = 
REMARK  6 active torsions:
REMARK  status: ('A' for Active; 'I' for Inactive)
REMARK    1  A    between atoms: C_2  and  C_5
REMARK    2  A    between atoms: C_9  and  N_10
REMARK    3  A    between atoms: N_13  and  C_14
REMARK    4  A    between atoms: C_18  and  O_22
REMARK    5  A    between atoms: O_22  and  C_23
REMARK    6  A    between atoms: C_23  and  C_24
REMARK                            x       y       z     vdW  Elec       q    Type
REMARK                         _______ _______ _______ _____ _____    ______ ____
ROOT
ATOM     14  C   UNL     1      -0.644   0.938  24.790  0.00  0.00    +0.156 C 
ATOM     15  C   UNL     1      -0.705   0.739  23.992  0.00  0.00    +0.166 C 
ATOM     16  O   UNL     1      -1.079   0.005  23.941  0.00  0.00    -0.349 OA
ATOM     17  C   UNL     1      -1.249  -0.249  24.706  0.00  0.00    +0.173 C 
ATOM     18  C   UNL     1      -1.585  -0.859  25.148  0.00  0.00    +0.175 C 
ATOM     19  C   UNL     1      -1.524  -0.660  25.946  0.00  0.00    +0.174 C 
ATOM     20  O   UNL     1      -1.150   0.073  25.998  0.00  0.00    -0.349 OA
ATOM     21  C   UNL     1      -0.980   0.327  25.231  0.00  0.00    +0.167 C 
ENDROOT
BRANCH  14  13
ATOM     10  N   UNL     1      -0.361   3.037  25.317  0.00  0.00    -0.161 NA
ATOM     11  C   UNL     1      -0.698   2.349  25.014  0.00  0.00    +0.344 C 
ATOM     12  O   UNL     1      -1.429   2.380  24.630  0.00  0.00    -0.249 OA
ATOM     13  N   UNL     1      -0.307   1.627  25.093  0.00  0.00    -0.184 NA
BRANCH  10   9
ATOM      5  C   UNL     1      -1.899   4.578  25.475  0.00  0.00    +0.073 A 
ATOM      6  C   UNL     1      -1.536   5.203  25.077  0.00  0.00    +0.004 A 
ATOM      7  C   UNL     1      -0.781   5.105  24.758  0.00  0.00    +0.001 A 
ATOM      8  C   UNL     1      -0.390   4.383  24.838  0.00  0.00    +0.017 A 
ATOM      9  C   UNL     1      -0.753   3.759  25.237  0.00  0.00    +0.075 A 
ATOM     30  C   UNL     1      -1.507   3.857  25.555  0.00  0.00    +0.021 A 
BRANCH   5   2
ATOM      1  F   UNL     1      -3.408   4.774  26.113  0.00  0.00    -0.166 F 
ATOM      2  C   UNL     1      -2.653   4.676  25.794  0.00  0.00    +0.419 C 
ATOM      3  F   UNL     1      -2.342   4.600  26.553  0.00  0.00    -0.166 F 
ATOM      4  F   UNL     1      -2.965   4.753  25.034  0.00  0.00    -0.166 F 
ENDBRANCH   5   2
ENDBRANCH  10   9
ENDBRANCH  14  13
BRANCH  18  22
ATOM     22  O   UNL     1      -1.923  -1.548  24.845  0.00  0.00    -0.346 OA
BRANCH  22  23
ATOM     23  C   UNL     1      -2.623  -1.841  25.167  0.00  0.00    +0.169 C 
BRANCH  23  24
ATOM     24  C   UNL     1      -3.185  -2.198  24.679  0.00  0.00    +0.007 A 
ATOM     25  C   UNL     1      -3.121  -2.999  24.494  0.00  0.00    -0.002 A 
ATOM     26  C   UNL     1      -3.682  -3.357  24.006  0.00  0.00    -0.000 A 
ATOM     27  C   UNL     1      -4.308  -2.911  23.703  0.00  0.00    -0.000 A 
ATOM     28  C   UNL     1      -4.371  -2.111  23.889  0.00  0.00    -0.000 A 
ATOM     29  C   UNL     1      -3.810  -1.753  24.377  0.00  0.00    -0.002 A 
ENDBRANCH  23  24
ENDBRANCH  22  23
ENDBRANCH  18  22
TORSDOF 6
ENDMDL
MODEL 3
REMARK VINA RESULT:     -10.8      1.990      2.483
REMARK  Name = 
REMARK  6 active torsions:
REMARK  status: ('A' for Active; 'I' for Inactive)
REMARK    1  A    between atoms: C_2  and  C_5
REMARK    2  A    between atoms: C_9  and  N_10
REMARK    3  A    between atoms: N_13  and  C_14
REMARK    4  A    between atoms: C_18  and  O_22
REMARK    5  A    between atoms: O_22  and  C_23
REMARK    6  A    between atoms: C_23  and  C_24
REMARK                            x       y       z     vdW  Elec       q    Type
REMARK                         _______ _______ _______ _____ _____    ______ ____
ROOT
ATOM     14  C   UNL     1      -1.000   0.555  24.130  0.00  0.00    +0.156 C 
ATOM     15  C   UNL     1      -1.372   0.970  23.521  0.00  0.00    +0.166 C 
ATOM     16  O   UNL     1      -1.235   1.774  23.641  0.00  0.00    -0.349 OA
ATOM     17  C   UNL     1      -0.780   1.858  24.322  0.00  0.00    +0.173 C 
ATOM     18  C   UNL     1      -0.414   2.405  24.819  0.00  0.00    +0.175 C 
ATOM     19  C   UNL     1      -0.042   1.991  25.428  0.00  0.00    +0.174 C 
ATOM     20  O   UNL     1      -0.179   1.187  25.308  0.00  0.00    -0.349 OA
ATOM     21  C   UNL     1      -0.635   1.104  24.625  0.00  0.00    +0.167 C 
ENDROOT
BRANCH  14  13
ATOM     10  N   UNL     1      -1.681  -1.477  24.546  0.00  0.00    -0.161 NA
ATOM     11  C   UNL     1      -1.686  -0.658  24.449  0.00  0.00    +0.344 C 
ATOM     12  O   UNL     1      -2.381  -0.231  24.575  0.00  0.00    -0.249 OA
ATOM     13  N   UNL     1      -0.995  -0.264  24.226  0.00  0.00    -0.184 NA
BRANCH  10   9
ATOM      5  C   UNL     1      -3.606  -2.499  24.418  0.00  0.00    +0.073 A 
ATOM      6  C   UNL     1      -3.751  -2.657  25.215  0.00  0.00    +0.004 A 
ATOM      7  C   UNL     1      -3.207  -2.421  25.789  0.00  0.00    +0.001 A 
ATOM      8  C   UNL     1      -2.517  -2.028  25.565  0.00  0.00    +0.017 A 
ATOM      9  C   UNL     1      -2.371  -1.870  24.768  0.00  0.00    +0.075 A 
ATOM     30  C   UNL     1      -2.915  -2.106  24.196  0.00  0.00    +0.021 A 
BRANCH   5   2
ATOM      1  F   UNL     1      -4.695  -2.970  23.272  0.00  0.00    -0.166 F 
ATOM      2  C   UNL     1      -4.150  -2.735  23.846  0.00  0.00    +0.419 C 
ATOM      3  F   UNL     1      -4.553  -2.022  23.936  0.00  0.00    -0.166 F 
ATOM      4  F   UNL     1      -3.747  -3.449  23.755  0.00  0.00    -0.166 F 
ENDBRANCH   5   2
ENDBRANCH  10   9
ENDBRANCH  14  13
BRANCH  18  22
ATOM     22  O   UNL     1      -0.418   3.225  24.722  0.00  0.00    -0.346 OA
BRANCH  22  23
ATOM     23  C   UNL     1      -0.619   3.714  25.356  0.00  0.00    +0.169 C 
BRANCH  23  24
ATOM     24  C   UNL     1      -0.994   4.436  25.217  0.00  0.00    +0.007 A 
ATOM     25  C   UNL     1      -0.597   5.037  24.816  0.00  0.00    -0.002 A 
ATOM     26  C   UNL     1      -0.971   5.759  24.677  0.00  0.00    -0.000 A 
ATOM     27  C   UNL     1      -1.745   5.879  24.941  0.00  0.00    -0.000 A 
ATOM     28  C   UNL     1      -2.141   5.278  25.342  0.00  0.00    -0.000 A 
ATOM     29  C   UNL     1      -1.767   4.556  25.481  0.00  0.00    -0.002 A 
ENDBRANCH  23  24
ENDBRANCH  22  23
ENDBRANCH  18  22
TORSDOF 6
ENDMDL
MODEL 4
REMARK VINA RESULT:     -10.7      4.451      5.604
REMARK  Name = 
REMARK  6 active torsions:
REMARK  status: ('A' for Active; 'I' for Inactive)
REMARK    1  A    between atoms: C_2  and  C_5
REMARK    2  A    between atoms: C_9  and  N_10
REMARK    3  A    between atoms: N_13  and  C_14
REMARK    4  A    between atoms: C_18  and  O_22
REMARK    5  A    between atoms: O_22  and  C_23
REMARK    6  A    between atoms: C_23  and  C_24
REMARK                            x       y       z     vdW  Elec       q    Type
REMARK                         _______ _______ _______ _____ _____    ______ ____
ROOT
ATOM     14  C   UNL     1      -0.569   0.995  24.048  0.00  0.00    +0.156 C 
ATOM     15  C   UNL     1      -0.178   1.606  24.439  0.00  0.00    +0.166 C 
ATOM     16  O   UNL     1       0.621   1.566  24.238  0.00  0.00    -0.349 OA
ATOM     17  C   UNL     1       0.724   0.931  23.723  0.00  0.00    +0.173 C 
ATOM     18  C   UNL     1       1.280   0.512  23.280  0.00  0.00    +0.175 C 
ATOM     19  C   UNL     1       0.889  -0.099  22.889  0.00  0.00    +0.174 C 
ATOM     20  O   UNL     1       0.090  -0.059  23.090  0.00  0.00    -0.349 OA
ATOM     21  C   UNL     1      -0.012   0.577  23.606  0.00  0.00    +0.167 C 
ENDROOT
BRANCH  14  13
ATOM     10  N   UNL     1      -2.731   1.282  24.150  0.00  0.00    -0.161 NA
ATOM     11  C   UNL     1      -1.924   1.446  24.106  0.00  0.00    +0.344 C 
ATOM     12  O   UNL     1      -1.663   2.229  24.076  0.00  0.00    -0.249 OA
ATOM     13  N   UNL     1      -1.376   0.829  24.092  0.00  0.00    -0.184 NA
BRANCH  10   9
ATOM      5  C   UNL     1      -4.271   2.657  24.858  0.00  0.00    +0.073 A 
ATOM      6  C   UNL     1      -4.373   3.133  24.192  0.00  0.00    +0.004 A 
ATOM      7  C   UNL     1      -3.927   2.993  23.512  0.00  0.00    +0.001 A 
ATOM      8  C   UNL     1      -3.379   2.375  23.498  0.00  0.00    +0.017 A 
ATOM      9  C   UNL     1      -3.278   1.899  24.164  0.00  0.00    +0.075 A 
ATOM     30  C   UNL     1      -3.724   2.040  24.843  0.00  0.00    +0.021 A 
BRANCH   5   2
ATOM      1  F   UNL     1      -5.164   2.938  26.216  0.00  0.00    -0.166 F 
ATOM      2  C   UNL     1      -4.717   2.798  25.537  0.00  0.00    +0.419 C 
ATOM      3  F   UNL     1      -5.299   2.283  25.261  0.00  0.00    -0.166 F 
ATOM      4  F   UNL     1      -4.135   3.313  25.813  0.00  0.00    -0.166 F 
ENDBRANCH   5   2
ENDBRANCH  10   9
ENDBRANCH  14  13
BRANCH  18  22
ATOM     22  O   UNL     1       2.088   0.678  23.236  0.00  0.00    -0.346 OA
BRANCH  22  23
ATOM     23  C   UNL     1       2.593   0.161  22.838  0.00  0.00    +0.169 C 
BRANCH  23  24
ATOM     24  C   UNL     1       3.408   0.206  22.960  0.00  0.00    +0.007 A 
ATOM     25  C   UNL     1       3.808  -0.422  23.316  0.00  0.00    -0.002 A 
ATOM     26  C   UNL     1       4.622  -0.378  23.438  0.00  0.00    -0.000 A 
ATOM     27  C   UNL     1       5.038   0.296  23.203  0.00  0.00    -0.000 A 
ATOM     28  C   UNL     1       4.638   0.923  22.848  0.00  0.00    -0.000 A 
ATOM     29  C   UNL     1       3.823   0.879  22.725  0.00  0.00    -0.002 A 
ENDBRANCH  23  24
ENDBRANCH  22  23
ENDBRANCH  18  22
TORSDOF 6
ENDMDL
MODEL 5
REMARK VINA RESULT:     -10.7      4.274      4.939
REMARK  Name = 
REMARK  6 active torsions:
REMARK  status: ('A' for Active; 'I' for Inactive)
REMARK    1  A    between atoms: C_2  and  C_5
REMARK    2  A    between atoms: C_9  and  N_10
REMARK    3  A    between atoms: N_13  and  C_14
REMARK    4  A    between atoms: C_18  and  O_22
REMARK    5  A    between atoms: O_22  and  C_23
REMARK    6  A    between atoms: C_23  and  C_24
REMARK                            x       y       z     vdW  Elec       q    Type
REMARK                         _______ _______ _______ _____ _____    ______ ____
ROOT
ATOM     14  C   UNL     1      -0.412   0.697  23.792  0.00  0.00    +0.156 C 
ATOM     15  C   UNL     1      -0.074   1.141  24.400  0.00  0.00    +0.166 C 
ATOM     16  O   UNL     1       0.743   1.140  24.291  0.00  0.00    -0.349 OA
ATOM     17  C   UNL     1       0.911   0.696  23.617  0.00  0.00    +0.173 C 
ATOM     18  C   UNL     1       1.519   0.420  23.132  0.00  0.00    +0.175 C 
ATOM     19  C   UNL     1       1.181  -0.024  22.525  0.00  0.00    +0.174 C 
ATOM     20  O   UNL     1       0.364  -0.023  22.634  0.00  0.00    -0.349 OA
ATOM     21  C   UNL     1       0.196   0.422  23.309  0.00  0.00    +0.167 C 
ENDROOT
BRANCH  14  13
ATOM     10  N   UNL     1      -2.423  -0.096  24.099  0.00  0.00    -0.161 NA
ATOM     11  C   UNL     1      -1.618   0.048  24.203  0.00  0.00    +0.344 C 
ATOM     12  O   UNL     1      -1.211  -0.314  24.824  0.00  0.00    -0.249 OA
ATOM     13  N   UNL     1      -1.218   0.553  23.688  0.00  0.00    -0.184 NA
BRANCH  10   9
ATOM      5  C   UNL     1      -3.424  -1.868  24.887  0.00  0.00    +0.073 A 
ATOM      6  C   UNL     1      -3.622  -1.611  25.646  0.00  0.00    +0.004 A 
ATOM      7  C   UNL     1      -3.420  -0.848  25.889  0.00  0.00    +0.001 A 
ATOM      8  C   UNL     1      -3.021  -0.344  25.372  0.00  0.00    +0.017 A 
ATOM      9  C   UNL     1      -2.823  -0.601  24.614  0.00  0.00    +0.075 A 
ATOM     30  C   UNL     1      -3.025  -1.363  24.372  0.00  0.00    +0.021 A 
BRANCH   5   2
ATOM      1  F   UNL     1      -3.829  -3.392  24.403  0.00  0.00    -0.166 F 
ATOM      2  C   UNL     1      -3.626  -2.630  24.645  0.00  0.00    +0.419 C 
ATOM      3  F   UNL     1      -4.268  -2.327  24.226  0.00  0.00    -0.166 F 
ATOM      4  F   UNL     1      -2.984  -2.935  25.064  0.00  0.00    -0.166 F 
ENDBRANCH   5   2
ENDBRANCH  10   9
ENDBRANCH  14  13
BRANCH  18  22
ATOM     22  O   UNL     1       2.325   0.564  23.237  0.00  0.00    -0.346 OA
BRANCH  22  23
ATOM     23  C   UNL     1       2.880   0.138  22.800  0.00  0.00    +0.169 C 
BRANCH  23  24
ATOM     24  C   UNL     1       3.677   0.160  23.012  0.00  0.00    +0.007 A 
ATOM     25  C   UNL     1       4.028  -0.496  23.368  0.00  0.00    -0.002 A 
ATOM     26  C   UNL     1       4.825  -0.475  23.581  0.00  0.00    -0.000 A 
ATOM     27  C   UNL     1       5.271   0.205  23.437  0.00  0.00    -0.000 A 
ATOM     28  C   UNL     1       4.920   0.860  23.081  0.00  0.00    -0.000 A 
ATOM     29  C   UNL     1       4.123   0.839  22.869  0.00  0.00    -0.002 A 
ENDBRANCH  23  24
ENDBRANCH  22  23
ENDBRANCH  18  22
TORSDOF 6
ENDMDL
MODEL 6
REMARK VINA RESULT:     -10.2      5.088      6.545
REMARK  Name = 
REMARK  6 active torsions:
REMARK  status: ('A' for Active; 'I' for Inactive)
REMARK    1  A    between atoms: C_2  and  C_5
REMARK    2  A    between atoms: C_9  and  N_10
REMARK    3  A    between atoms: N_13  and  C_14
REMARK    4  A    between atoms: C_18  and  O_22
REMARK    5  A    between atoms: O_22  and  C_23
REMARK    6  A    between atoms: C_23  and  C_24
REMARK                            x       y       z     vdW  Elec       q    Type
REMARK                         _______ _______ _______ _____ _____    ______ ____
ROOT
ATOM     14  C   UNL     1       0.526   0.057  23.314  0.00  0.00    +0.156 C 
ATOM     15  C   UNL     1       0.356   0.864  23.284  0.00  0.00    +0.166 C 
ATOM     16  O   UNL     1      -0.375   0.983  23.646  0.00  0.00    -0.349 OA
ATOM     17  C   UNL     1      -0.657   0.251  23.899  0.00  0.00    +0.173 C 
ATOM     18  C   UNL     1      -1.283  -0.129  24.280  0.00  0.00    +0.175 C 
ATOM     19  C   UNL     1      -1.113  -0.936  24.309  0.00  0.00    +0.174 C 
ATOM     20  O   UNL     1      -0.382  -1.055  23.947  0.00  0.00    -0.349 OA
ATOM     21  C   UNL     1      -0.100  -0.322  23.694  0.00  0.00    +0.167 C 
ENDROOT
BRANCH  14  13
ATOM     10  N   UNL     1       2.616  -0.304  22.798  0.00  0.00    -0.161 NA
ATOM     11  C   UNL     1       1.939   0.059  23.096  0.00  0.00    +0.344 C 
ATOM     12  O   UNL     1       1.996   0.789  23.477  0.00  0.00    -0.249 OA
ATOM     13  N   UNL     1       1.204  -0.307  23.015  0.00  0.00    -0.184 NA
BRANCH  10   9
ATOM      5  C   UNL     1       4.648   0.116  23.479  0.00  0.00    +0.073 A 
ATOM      6  C   UNL     1       4.821   0.794  23.042  0.00  0.00    +0.004 A 
ATOM      7  C   UNL     1       4.260   1.106  22.524  0.00  0.00    +0.001 A 
ATOM      8  C   UNL     1       3.525   0.740  22.444  0.00  0.00    +0.017 A 
ATOM      9  C   UNL     1       3.352   0.062  22.880  0.00  0.00    +0.075 A 
ATOM     30  C   UNL     1       3.913  -0.250  23.397  0.00  0.00    +0.021 A 
BRANCH   5   2
ATOM      1  F   UNL     1       5.771  -0.508  24.514  0.00  0.00    -0.166 F 
ATOM      2  C   UNL     1       5.209  -0.196  23.996  0.00  0.00    +0.419 C 
ATOM      3  F   UNL     1       5.278   0.538  24.364  0.00  0.00    -0.166 F 
ATOM      4  F   UNL     1       5.141  -0.932  23.628  0.00  0.00    -0.166 F 
ENDBRANCH   5   2
ENDBRANCH  10   9
ENDBRANCH  14  13
BRANCH  18  22
ATOM     22  O   UNL     1      -1.961   0.235  24.578  0.00  0.00    -0.346 OA
BRANCH  22  23
ATOM     23  C   UNL     1      -2.701  -0.108  24.456  0.00  0.00    +0.169 C 
BRANCH  23  24
ATOM     24  C   UNL     1      -3.386   0.308  24.652  0.00  0.00    +0.007 A 
ATOM     25  C   UNL     1      -3.544   1.035  24.296  0.00  0.00    -0.002 A 
ATOM     26  C   UNL     1      -4.229   1.451  24.491  0.00  0.00    -0.000 A 
ATOM     27  C   UNL     1      -4.756   1.140  25.045  0.00  0.00    -0.000 A 
ATOM     28  C   UNL     1      -4.598   0.413  25.401  0.00  0.00    -0.000 A 
ATOM     29  C   UNL     1      -3.914  -0.004  25.205  0.00  0.00    -0.002 A 
ENDBRANCH  23  24
ENDBRANCH  22  23
ENDBRANCH  18  22
TORSDOF 6
ENDMDL
MODEL 7
REMARK VINA RESULT:     -10.0      4.332      5.422
REMARK  Name = 
REMARK  6 active torsions:
REMARK  status: ('A' for Active; 'I' for Inactive)
REMARK    1  A    between atoms: C_2  and  C_5
REMARK    2  A    between atoms: C_9  and  N_10
REMARK    3  A    between atoms: N_13  and  C_14
REMARK    4  A    between atoms: C_18  and  O_22
REMARK    5  A    between atoms: O_22  and  C_23
REMARK    6  A    between atoms: C_23  and  C_24
REMARK                            x       y       z     vdW  Elec       q    Type
REMARK                         _______ _______ _______ _____ _____    ______ ____
ROOT
ATOM     14  C   UNL     1      -0.657   0.462  24.430  0.00  0.00    +0.156 C 
ATOM     15  C   UNL     1      -0.516   1.231  24.694  0.00  0.00    +0.166 C 
ATOM     16  O   UNL     1      -1.245   1.582  24.853  0.00  0.00    -0.349 OA
ATOM     17  C   UNL     1      -1.836   1.033  24.687  0.00  0.00    +0.173 C 
ATOM     18  C   UNL     1      -2.651   0.909  24.681  0.00  0.00    +0.175 C 
ATOM     19  C   UNL     1      -2.792   0.141  24.417  0.00  0.00    +0.174 C 
ATOM     20  O   UNL     1      -2.063  -0.211  24.258  0.00  0.00    -0.349 OA
ATOM     21  C   UNL     1      -1.472   0.340  24.425  0.00  0.00    +0.167 C 
ENDROOT
BRANCH  14  13
ATOM     10  N   UNL     1       1.081  -0.424  23.450  0.00  0.00    -0.161 NA
ATOM     11  C   UNL     1       0.507   0.125  23.671  0.00  0.00    +0.344 C 
ATOM     12  O   UNL     1       0.521   0.887  23.355  0.00  0.00    -0.249 OA
ATOM     13  N   UNL     1      -0.082  -0.087  24.209  0.00  0.00    -0.184 NA
BRANCH  10   9
ATOM      5  C   UNL     1       2.975   0.308  22.647  0.00  0.00    +0.073 A 
ATOM      6  C   UNL     1       2.848   0.212  21.838  0.00  0.00    +0.004 A 
ATOM      7  C   UNL     1       2.133  -0.097  21.566  0.00  0.00    +0.001 A 
ATOM      8  C   UNL     1       1.544  -0.308  22.104  0.00  0.00    +0.017 A 
ATOM      9  C   UNL     1       1.670  -0.212  22.913  0.00  0.00    +0.075 A 
ATOM     30  C   UNL     1       2.385   0.096  23.185  0.00  0.00    +0.021 A 
BRANCH   5   2
ATOM      1  F   UNL     1       4.405   0.924  23.191  0.00  0.00    -0.166 F 
ATOM      2  C   UNL     1       3.690   0.616  22.919  0.00  0.00    +0.419 C 
ATOM      3  F   UNL     1       3.398   1.381  22.818  0.00  0.00    -0.166 F 
ATOM      4  F   UNL     1       3.982  -0.149  23.020  0.00  0.00    -0.166 F 
ENDBRANCH   5   2
ENDBRANCH  10   9
ENDBRANCH  14  13
BRANCH  18  22
ATOM     22  O   UNL     1      -3.226   1.459  24.903  0.00  0.00    -0.346 OA
BRANCH  22  23
ATOM     23  C   UNL     1      -4.013   1.344  24.682  0.00  0.00    +0.169 C 
BRANCH  23  24
ATOM     24  C   UNL     1      -4.598   1.852  24.965  0.00  0.00    +0.007 A 
ATOM     25  C   UNL     1      -4.526   2.667  24.855  0.00  0.00    -0.002 A 
ATOM     26  C   UNL     1      -5.111   3.175  25.138  0.00  0.00    -0.000 A 
ATOM     27  C   UNL     1      -5.770   2.867  25.530  0.00  0.00    -0.000 A 
ATOM     28  C   UNL     1      -5.841   2.054  25.639  0.00  0.00    -0.000 A 
ATOM     29  C   UNL     1      -5.256   1.545  25.357  0.00  0.00    -0.002 A 
ENDBRANCH  23  24
ENDBRANCH  22  23
ENDBRANCH  18  22
TORSDOF 6
ENDMDL
MODEL 8
REMARK VINA RESULT:      -8.6     14.353     16.105
REMARK  Name = 
REMARK  6 active torsions:
REMARK  status: ('A' for Active; 'I' for Inactive)
REMARK    1  A    between atoms: C_2  and  C_5
REMARK    2  A    between atoms: C_9  and  N_10
REMARK    3  A    between atoms: N_13  and  C_14
REMARK    4  A    between atoms: C_18  and  O_22
REMARK    5  A    between atoms: O_22  and  C_23
REMARK    6  A    between atoms: C_23  and  C_24
REMARK                            x       y       z     vdW  Elec       q    Type
REMARK                         _______ _______ _______ _____ _____    ______ ____
ROOT
ATOM     14  C   UNL     1      -3.788 -10.685  14.804  0.00  0.00    +0.156 C 
ATOM     15  C   UNL     1      -4.571 -10.592  14.566  0.00  0.00    +0.166 C 
ATOM     16  O   UNL     1      -5.036 -10.516  15.243  0.00  0.00    -0.349 OA
ATOM     17  C   UNL     1      -4.540 -10.562  15.900  0.00  0.00    +0.173 C 
ATOM     18  C   UNL     1      -4.519 -10.544  16.724  0.00  0.00    +0.175 C 
ATOM     19  C   UNL     1      -3.736 -10.637  16.963  0.00  0.00    +0.174 C 
ATOM     20  O   UNL     1      -3.271 -10.713  16.286  0.00  0.00    -0.349 OA
ATOM     21  C   UNL     1      -3.768 -10.667  15.628  0.00  0.00    +0.167 C 
ENDROOT
BRANCH  14  13
ATOM     10  N   UNL     1      -2.539 -10.655  13.014  0.00  0.00    -0.161 NA
ATOM     11  C   UNL     1      -3.189 -10.560  13.512  0.00  0.00    +0.344 C 
ATOM     12  O   UNL     1      -3.893 -10.245  13.218  0.00  0.00    -0.249 OA
ATOM     13  N   UNL     1      -3.137 -10.780  14.306  0.00  0.00    -0.184 NA
BRANCH  10   9
ATOM      5  C   UNL     1      -2.127  -9.651  11.119  0.00  0.00    +0.073 A 
ATOM      6  C   UNL     1      -2.697  -9.996  10.633  0.00  0.00    +0.004 A 
ATOM      7  C   UNL     1      -3.215 -10.561  10.940  0.00  0.00    +0.001 A 
ATOM      8  C   UNL     1      -3.162 -10.780  11.734  0.00  0.00    +0.017 A 
ATOM      9  C   UNL     1      -2.592 -10.435  12.220  0.00  0.00    +0.075 A 
ATOM     30  C   UNL     1      -2.075  -9.871  11.913  0.00  0.00    +0.021 A 
BRANCH   5   2
ATOM      1  F   UNL     1      -1.093  -8.523  10.505  0.00  0.00    -0.166 F 
ATOM      2  C   UNL     1      -1.610  -9.087  10.812  0.00  0.00    +0.419 C 
ATOM      3  F   UNL     1      -2.243  -8.709  10.443  0.00  0.00    -0.166 F 
ATOM      4  F   UNL     1      -0.977  -9.465  11.182  0.00  0.00    -0.166 F 
ENDBRANCH   5   2
ENDBRANCH  10   9
ENDBRANCH  14  13
BRANCH  18  22
ATOM     22  O   UNL     1      -5.170 -10.449  17.223  0.00  0.00    -0.346 OA
BRANCH  22  23
ATOM     23  C   UNL     1      -5.131 -10.705  18.006  0.00  0.00    +0.169 C 
BRANCH  23  24
ATOM     24  C   UNL     1      -5.795 -10.651  18.492  0.00  0.00    +0.007 A 
ATOM     25  C   UNL     1      -6.548 -10.603  18.158  0.00  0.00    -0.002 A 
ATOM     26  C   UNL     1      -7.213 -10.549  18.643  0.00  0.00    -0.000 A 
ATOM     27  C   UNL     1      -7.124 -10.542  19.464  0.00  0.00    -0.000 A 
ATOM     28  C   UNL     1      -6.372 -10.590  19.798  0.00  0.00    -0.000 A 
ATOM     29  C   UNL     1      -5.707 -10.644  19.312  0.00  0.00    -0.002 A 
ENDBRANCH  23  24
ENDBRANCH  22  23
ENDBRANCH  18  22
TORSDOF 6
ENDMDL
MODEL 9
REMARK VINA RESULT:      -8.6     17.205     18.352
REMARK  Name = 
REMARK  6 active torsions:
REMARK  status: ('A' for Active; 'I' for Inactive)
REMARK    1  A    between atoms: C_2  and  C_5
REMARK    2  A    between atoms: C_9  and  N_10
REMARK    3  A    between atoms: N_13  and  C_14
REMARK    4  A    between atoms: C_18  and  O_22
REMARK    5  A    between atoms: O_22  and  C_23
REMARK    6  A    between atoms: C_23  and  C_24
REMARK                            x       y       z     vdW  Elec       q    Type
REMARK                         _______ _______ _______ _____ _____    ______ ____
ROOT
ATOM     14  C   UNL     1      -4.973  -8.712   9.606  0.00  0.00    +0.156 C 
ATOM     15  C   UNL     1      -5.094  -8.128  10.175  0.00  0.00    +0.166 C 
ATOM     16  O   UNL     1      -5.848  -7.814  10.061  0.00  0.00    -0.349 OA
ATOM     17  C   UNL     1      -6.193  -8.203   9.421  0.00  0.00    +0.173 C 
ATOM     18  C   UNL     1      -6.871  -8.250   8.954  0.00  0.00    +0.175 C 
ATOM     19  C   UNL     1      -6.750  -8.834   8.385  0.00  0.00    +0.174 C 
ATOM     20  O   UNL     1      -5.997  -9.149   8.500  0.00  0.00    -0.349 OA
ATOM     21  C   UNL     1      -5.652  -8.759   9.140  0.00  0.00    +0.167 C 
ENDROOT
BRANCH  14  13
ATOM     10  N   UNL     1      -3.096  -9.726  10.067  0.00  0.00    -0.161 NA
ATOM     11  C   UNL     1      -3.776  -9.269  10.154  0.00  0.00    +0.344 C 
ATOM     12  O   UNL     1      -3.942  -8.909  10.879  0.00  0.00    -0.249 OA
ATOM     13  N   UNL     1      -4.292  -9.170   9.518  0.00  0.00    -0.184 NA
BRANCH  10   9
ATOM      5  C   UNL     1      -1.391  -9.450  11.403  0.00  0.00    +0.073 A 
ATOM      6  C   UNL     1      -1.548 -10.023  11.975  0.00  0.00    +0.004 A 
ATOM      7  C   UNL     1      -2.221 -10.497  11.912  0.00  0.00    +0.001 A 
ATOM      8  C   UNL     1      -2.736 -10.397  11.276  0.00  0.00    +0.017 A 
ATOM      9  C   UNL     1      -2.579  -9.825  10.703  0.00  0.00    +0.075 A 
ATOM     30  C   UNL     1      -1.907  -9.352  10.766  0.00  0.00    +0.021 A 
BRANCH   5   2
ATOM      1  F   UNL     1      -0.046  -8.504  11.530  0.00  0.00    -0.166 F 
ATOM      2  C   UNL     1      -0.719  -8.977  11.466  0.00  0.00    +0.419 C 
ATOM      3  F   UNL     1      -0.802  -8.969  12.286  0.00  0.00    -0.166 F 
ATOM      4  F   UNL     1      -0.635  -8.985  10.645  0.00  0.00    -0.166 F 
ENDBRANCH   5   2
ENDBRANCH  10   9
ENDBRANCH  14  13
BRANCH  18  22
ATOM     22  O   UNL     1      -7.552  -7.792   9.042  0.00  0.00    -0.346 OA
BRANCH  22  23
ATOM     23  C   UNL     1      -7.982  -7.559   8.377  0.00  0.00    +0.169 C 
BRANCH  23  24
ATOM     24  C   UNL     1      -8.589  -7.005   8.451  0.00  0.00    +0.007 A 
ATOM     25  C   UNL     1      -9.298  -7.216   8.816  0.00  0.00    -0.002 A 
ATOM     26  C   UNL     1      -9.905  -6.663   8.890  0.00  0.00    -0.000 A 
ATOM     27  C   UNL     1      -9.802  -5.897   8.599  0.00  0.00    -0.000 A 
ATOM     28  C   UNL     1      -9.093  -5.687   8.234  0.00  0.00    -0.000 A 
ATOM     29  C   UNL     1      -8.486  -6.240   8.160  0.00  0.00    -0.002 A 
ENDBRANCH  23  24
ENDBRANCH  22  23
ENDBRANCH  18  22
TORSDOF 6
ENDMDL
MODEL 10
REMARK VINA RESULT:      -8.4     14.136     14.991
REMARK  Name = 
REMARK  6 active torsions:
REMARK  status: ('A' for Active; 'I' for Inactive)
REMARK    1  A    between atoms: C_2  and  C_5
REMARK    2  A    between atoms: C_9  and  N_10
REMARK    3  A    between atoms: N_13  and  C_14
REMARK    4  A    between atoms: C_18  and  O_22
REMARK    5  A    between atoms: O_22  and  C_23
REMARK    6  A    between atoms: C_23  and  C_24
REMARK                            x       y       z     vdW  Elec       q    Type
REMARK                         _______ _______ _______ _____ _____    ______ ____
ROOT
ATOM     14  C   UNL     1      -6.792 -10.098  16.299  0.00  0.00    +0.156 C 
ATOM     15  C   UNL     1      -6.455  -9.877  17.019  0.00  0.00    +0.166 C 
ATOM     16  O   UNL     1      -5.636  -9.950  16.949  0.00  0.00    -0.349 OA
ATOM     17  C   UNL     1      -5.467 -10.217  16.188  0.00  0.00    +0.173 C 
ATOM     18  C   UNL     1      -4.858 -10.428  15.673  0.00  0.00    +0.175 C 
ATOM     19  C   UNL     1      -5.195 -10.649  14.954  0.00  0.00    +0.174 C 
ATOM     20  O   UNL     1      -6.013 -10.575  15.024  0.00  0.00    -0.349 OA
ATOM     21  C   UNL     1      -6.182 -10.308  15.786  0.00  0.00    +0.167 C 
ENDROOT
BRANCH  14  13
ATOM     10  N   UNL     1      -8.888  -9.497  16.199  0.00  0.00    -0.161 NA
ATOM     11  C   UNL     1      -8.082  -9.488  16.374  0.00  0.00    +0.344 C 
ATOM     12  O   UNL     1      -7.759  -8.858  16.799  0.00  0.00    -0.249 OA
ATOM     13  N   UNL     1      -7.598 -10.108  16.124  0.00  0.00    -0.184 NA
BRANCH  10   9
ATOM      5  C   UNL     1     -10.094  -7.677  16.162  0.00  0.00    +0.073 A 
ATOM      6  C   UNL     1     -10.340  -7.638  16.948  0.00  0.00    +0.004 A 
ATOM      7  C   UNL     1     -10.102  -8.218  17.485  0.00  0.00    +0.001 A 
ATOM      8  C   UNL     1      -9.618  -8.837  17.235  0.00  0.00    +0.017 A 
ATOM      9  C   UNL     1      -9.372  -8.877  16.449  0.00  0.00    +0.075 A 
ATOM     30  C   UNL     1      -9.610  -8.297  15.913  0.00  0.00    +0.021 A 
BRANCH   5   2
ATOM      1  F   UNL     1     -10.569  -6.517  15.090  0.00  0.00    -0.166 F 
ATOM      2  C   UNL     1     -10.331  -7.098  15.626  0.00  0.00    +0.419 C 
ATOM      3  F   UNL     1      -9.996  -6.517  16.106  0.00  0.00    -0.166 F 
ATOM      4  F   UNL     1     -10.667  -7.678  15.145  0.00  0.00    -0.166 F 
ENDBRANCH   5   2
ENDBRANCH  10   9
ENDBRANCH  14  13
BRANCH  18  22
ATOM     22  O   UNL     1      -4.051 -10.418  15.849  0.00  0.00    -0.346 OA
BRANCH  22  23
ATOM     23  C   UNL     1      -3.508 -10.723  15.308  0.00  0.00    +0.169 C 
BRANCH  23  24
ATOM     24  C   UNL     1      -2.698 -10.639  15.444  0.00  0.00    +0.007 A 
ATOM     25  C   UNL     1      -2.391 -10.772  16.198  0.00  0.00    -0.002 A 
ATOM     26  C   UNL     1      -1.582 -10.689  16.335  0.00  0.00    -0.000 A 
ATOM     27  C   UNL     1      -1.080 -10.471  15.716  0.00  0.00    -0.000 A 
ATOM     28  C   UNL     1      -1.388 -10.338  14.963  0.00  0.00    -0.000 A 
ATOM     29  C   UNL     1      -2.197 -10.422  14.826  0.00  0.00    -0.002 A 
ENDBRANCH  23  24
ENDBRANCH  22  23
ENDBRANCH  18  22
TORSDOF 6
ENDMDL
