MODEL 1
REMARK VINA RESULT:      -7.9      0.000      0.000
REMARK  Name = 
REMARK  6 active torsions:
REMARK  status: ('A' for Active; 'I' for Inactive)
REMARK    1  A    between atoms: O_2  and  C_3
REMARK    2  A    between atoms: C_4  and  C_9
REMARK    3  A    between atoms: N_14  and  C_15
REMARK    4  A    between atoms: C_19  and  N_23
REMARK    5  A    between atoms: C_24  and  C_26
REMARK    6  A    between atoms: C_29  and  N_32
REMARK                            x       y       z     vdW  Elec       q    Type
REMARK                         _______ _______ _______ _____ _____    ______ ____
ROOT
ATOM     15  C   UNL     1      -0.730   1.612  23.868  0.00  0.00    +0.154 C 
ATOM     16  C   UNL     1      -0.251   2.184  24.218  0.00  0.00    +0.166 C 
ATOM     17  O   UNL     1       0.532   1.928  24.162  0.00  0.00    -0.350 OA
ATOM     18  C   UNL     1       0.536   1.199  23.778  0.00  0.00    +0.166 C 
ATOM     19  C   UNL     1       1.020   0.589  23.507  0.00  0.00    +0.155 C 
ATOM     20  C   UNL     1       0.541   0.017  23.156  0.00  0.00    +0.166 C 
ATOM     21  O   UNL     1      -0.242   0.273  23.212  0.00  0.00    -0.350 OA
ATOM     22  C   UNL     1      -0.245   1.003  23.596  0.00  0.00    +0.166 C 
ENDROOT
BRANCH  15  14
ATOM      9  C   UNL     1      -3.283   2.249  24.986  0.00  0.00    +0.089 A 
ATOM     10  C   UNL     1      -2.915   2.505  25.678  0.00  0.00    +0.040 A 
ATOM     11  C   UNL     1      -2.093   2.474  25.745  0.00  0.00    +0.103 A 
ATOM     12  N   UNL     1      -1.638   2.187  25.119  0.00  0.00    -0.211 NA
ATOM     13  C   UNL     1      -2.007   1.930  24.426  0.00  0.00    +0.237 A 
ATOM     14  N   UNL     1      -1.552   1.643  23.801  0.00  0.00    -0.200 NA
ATOM     35  N   UNL     1      -2.828   1.962  24.360  0.00  0.00    -0.212 NA
BRANCH   9   4
ATOM      3  C   UNL     1      -4.551   1.591  24.990  0.00  0.00    +0.140 A 
ATOM      4  C   UNL     1      -4.104   2.281  24.919  0.00  0.00    +0.052 A 
ATOM      5  C   UNL     1      -4.479   3.003  24.782  0.00  0.00    +0.005 A 
ATOM      6  C   UNL     1      -5.301   3.035  24.715  0.00  0.00    +0.000 A 
ATOM      7  C   UNL     1      -5.748   2.345  24.786  0.00  0.00    +0.003 A 
ATOM      8  C   UNL     1      -5.372   1.622  24.923  0.00  0.00    +0.037 A 
BRANCH   3   2
ATOM      1  C   UNL     1      -4.619   0.175  25.167  0.00  0.00    +0.252 C 
ATOM      2  O   UNL     1      -4.176   0.869  25.127  0.00  0.00    -0.471 OA
ENDBRANCH   3   2
ENDBRANCH   9   4
ENDBRANCH  15  14
BRANCH  19  23
ATOM     23  N   UNL     1       1.843   0.558  23.573  0.00  0.00    -0.198 NA
ATOM     24  C   UNL     1       2.293   0.227  22.967  0.00  0.00    +0.265 C 
ATOM     25  O   UNL     1       1.923  -0.072  22.293  0.00  0.00    -0.268 OA
BRANCH  24  26
ATOM     26  C   UNL     1       3.115   0.196  23.034  0.00  0.00    +0.055 A 
ATOM     27  C   UNL     1       3.479  -0.480  23.336  0.00  0.00    +0.006 A 
ATOM     28  C   UNL     1       4.301  -0.512  23.404  0.00  0.00    +0.015 A 
ATOM     29  C   UNL     1       4.759   0.134  23.167  0.00  0.00    +0.048 A 
ATOM     30  C   UNL     1       4.395   0.808  22.864  0.00  0.00    +0.015 A 
ATOM     31  C   UNL     1       3.573   0.841  22.797  0.00  0.00    +0.006 A 
BRANCH  29  32
ATOM     32  N   UNL     1       5.581   0.102  23.234  0.00  0.00    -0.304 N 
ATOM     33  C   UNL     1       6.030  -0.249  22.637  0.00  0.00    +0.112 C 
ATOM     34  C   UNL     1       5.952   0.421  23.896  0.00  0.00    +0.112 C 
ENDBRANCH  29  32
ENDBRANCH  24  26
ENDBRANCH  19  23
TORSDOF 6
ENDMDL
MODEL 2
REMARK VINA RESULT:      -7.3      1.101      7.567
REMARK  Name = 
REMARK  6 active torsions:
REMARK  status: ('A' for Active; 'I' for Inactive)
REMARK    1  A    between atoms: O_2  and  C_3
REMARK    2  A    between atoms: C_4  and  C_9
REMARK    3  A    between atoms: N_14  and  C_15
REMARK    4  A    between atoms: C_19  and  N_23
REMARK    5  A    between atoms: C_24  and  C_26
REMARK    6  A    between atoms: C_29  and  N_32
REMARK                            x       y       z     vdW  Elec       q    Type
REMARK                         _______ _______ _______ _____ _____    ______ ____
ROOT
ATOM     15  C   UNL     1       0.127   1.072  24.138  0.00  0.00    +0.154 C 
ATOM     16  C   UNL     1      -0.303   0.370  24.095  0.00  0.00    +0.166 C 
ATOM     17  O   UNL     1      -1.103   0.557  24.167  0.00  0.00    -0.350 OA
ATOM     18  C   UNL     1      -1.168   1.374  24.254  0.00  0.00    +0.166 C 
ATOM     19  C   UNL     1      -1.701   1.995  24.352  0.00  0.00    +0.155 C 
ATOM     20  C   UNL     1      -1.271   2.698  24.395  0.00  0.00    +0.166 C 
ATOM     21  O   UNL     1      -0.471   2.510  24.324  0.00  0.00    -0.350 OA
ATOM     22  C   UNL     1      -0.407   1.692  24.236  0.00  0.00    +0.166 C 
ENDROOT
BRANCH  15  14
ATOM      9  C   UNL     1       2.607   0.346  22.917  0.00  0.00    +0.089 A 
ATOM     10  C   UNL     1       2.206  -0.155  22.400  0.00  0.00    +0.040 A 
ATOM     11  C   UNL     1       1.385  -0.225  22.446  0.00  0.00    +0.103 A 
ATOM     12  N   UNL     1       0.965   0.208  23.010  0.00  0.00    -0.211 NA
ATOM     13  C   UNL     1       1.368   0.709  23.528  0.00  0.00    +0.237 A 
ATOM     14  N   UNL     1       0.948   1.141  24.092  0.00  0.00    -0.200 NA
ATOM     35  N   UNL     1       2.188   0.778  23.481  0.00  0.00    -0.212 NA
BRANCH   9   4
ATOM      3  C   UNL     1       3.910  -0.185  23.166  0.00  0.00    +0.140 A 
ATOM      4  C   UNL     1       3.428   0.416  22.870  0.00  0.00    +0.052 A 
ATOM      5  C   UNL     1       3.766   1.085  22.528  0.00  0.00    +0.005 A 
ATOM      6  C   UNL     1       4.587   1.155  22.481  0.00  0.00    +0.000 A 
ATOM      7  C   UNL     1       5.070   0.555  22.776  0.00  0.00    +0.003 A 
ATOM      8  C   UNL     1       4.731  -0.116  23.119  0.00  0.00    +0.037 A 
BRANCH   3   2
ATOM      1  C   UNL     1       4.054  -1.446  23.823  0.00  0.00    +0.252 C 
ATOM      2  O   UNL     1       3.572  -0.855  23.509  0.00  0.00    -0.471 OA
ENDBRANCH   3   2
ENDBRANCH   9   4
ENDBRANCH  15  14
BRANCH  19  23
ATOM     23  N   UNL     1      -2.523   1.926  24.399  0.00  0.00    -0.198 NA
ATOM     24  C   UNL     1      -2.938   2.332  24.984  0.00  0.00    +0.265 C 
ATOM     25  O   UNL     1      -2.534   2.807  25.523  0.00  0.00    -0.268 OA
BRANCH  24  26
ATOM     26  C   UNL     1      -3.759   2.262  25.031  0.00  0.00    +0.055 A 
ATOM     27  C   UNL     1      -4.226   2.936  25.124  0.00  0.00    +0.006 A 
ATOM     28  C   UNL     1      -5.047   2.868  25.171  0.00  0.00    +0.015 A 
ATOM     29  C   UNL     1      -5.401   2.123  25.124  0.00  0.00    +0.048 A 
ATOM     30  C   UNL     1      -4.934   1.450  25.031  0.00  0.00    +0.015 A 
ATOM     31  C   UNL     1      -4.113   1.519  24.984  0.00  0.00    +0.006 A 
BRANCH  29  32
ATOM     32  N   UNL     1      -6.222   2.054  25.170  0.00  0.00    -0.304 N 
ATOM     33  C   UNL     1      -6.616   2.278  25.860  0.00  0.00    +0.112 C 
ATOM     34  C   UNL     1      -6.647   1.761  24.528  0.00  0.00    +0.112 C 
ENDBRANCH  29  32
ENDBRANCH  24  26
ENDBRANCH  19  23
TORSDOF 6
ENDMDL
