MODEL 1
REMARK VINA RESULT:     -11.7      0.000      0.000
REMARK  Name = 
REMARK  5 active torsions:
REMARK  status: ('A' for Active; 'I' for Inactive)
REMARK    1  A    between atoms: O_2  and  C_3
REMARK    2  A    between atoms: C_6  and  C_9
REMARK    3  A    between atoms: C_15  and  N_16
REMARK    4  A    between atoms: C_17  and  C_19
REMARK    5  A    between atoms: C_23  and  O_24
REMARK                            x       y       z     vdW  Elec       q    Type
REMARK                         _______ _______ _______ _____ _____    ______ ____
ROOT
ATOM      9  C   UNL     1      -3.782   2.213  24.676  0.00  0.00    +0.048 C 
ATOM     10  C   UNL     1      -4.230   2.858  24.928  0.00  0.00    +0.042 C 
ATOM     11  C   UNL     1      -5.005   2.600  25.043  0.00  0.00    +0.184 C 
ATOM     12  O   UNL     1      -5.639   3.066  25.294  0.00  0.00    -0.220 OA
ATOM     13  C   UNL     1      -5.036   1.797  24.862  0.00  0.00    +0.202 C 
ATOM     14  O   UNL     1      -5.706   1.316  24.902  0.00  0.00    -0.219 OA
ATOM     15  C   UNL     1      -4.280   1.557  24.636  0.00  0.00    +0.132 C 
ENDROOT
BRANCH   9   6
ATOM      3  C   UNL     1      -1.367   2.242  24.137  0.00  0.00    +0.139 A 
ATOM      4  C   UNL     1      -1.613   2.262  24.925  0.00  0.00    +0.037 A 
ATOM      5  C   UNL     1      -2.419   2.252  25.104  0.00  0.00    -0.001 A 
ATOM      6  C   UNL     1      -2.977   2.223  24.497  0.00  0.00    -0.020 A 
ATOM      7  C   UNL     1      -2.730   2.203  23.709  0.00  0.00    -0.001 A 
ATOM      8  C   UNL     1      -1.924   2.212  23.530  0.00  0.00    +0.037 A 
BRANCH   3   2
ATOM      1  C   UNL     1      -0.046   1.735  24.345  0.00  0.00    +0.252 C 
ATOM      2  O   UNL     1      -0.561   2.251  23.958  0.00  0.00    -0.471 OA
ENDBRANCH   3   2
ENDBRANCH   9   6
BRANCH  15  16
ATOM     16  N   UNL     1      -4.061   0.795  24.409  0.00  0.00    -0.200 NA
ATOM     17  C   UNL     1      -4.232   0.153  24.898  0.00  0.00    +0.265 C 
ATOM     18  O   UNL     1      -4.623   0.273  25.614  0.00  0.00    -0.268 OA
BRANCH  17  19
ATOM     19  C   UNL     1      -4.013  -0.609  24.671  0.00  0.00    +0.058 A 
ATOM     20  C   UNL     1      -4.441  -1.005  24.087  0.00  0.00    +0.005 A 
ATOM     21  C   UNL     1      -4.222  -1.767  23.860  0.00  0.00    +0.003 A 
ATOM     22  C   UNL     1      -3.574  -2.133  24.216  0.00  0.00    +0.037 A 
ATOM     23  C   UNL     1      -3.146  -1.737  24.800  0.00  0.00    +0.139 A 
ATOM     26  C   UNL     1      -3.365  -0.975  25.027  0.00  0.00    +0.041 A 
BRANCH  23  24
ATOM     24  O   UNL     1      -2.497  -2.104  25.156  0.00  0.00    -0.471 OA
ATOM     25  C   UNL     1      -1.822  -2.270  24.712  0.00  0.00    +0.252 C 
ENDBRANCH  23  24
ENDBRANCH  17  19
ENDBRANCH  15  16
TORSDOF 5
ENDMDL
MODEL 2
REMARK VINA RESULT:     -11.6      1.020      3.590
REMARK  Name = 
REMARK  5 active torsions:
REMARK  status: ('A' for Active; 'I' for Inactive)
REMARK    1  A    between atoms: O_2  and  C_3
REMARK    2  A    between atoms: C_6  and  C_9
REMARK    3  A    between atoms: C_15  and  N_16
REMARK    4  A    between atoms: C_17  and  C_19
REMARK    5  A    between atoms: C_23  and  O_24
REMARK                            x       y       z     vdW  Elec       q    Type
REMARK                         _______ _______ _______ _____ _____    ______ ____
ROOT
ATOM      9  C   UNL     1      -4.529   0.723  24.900  0.00  0.00    +0.048 C 
ATOM     10  C   UNL     1      -5.333   0.906  24.886  0.00  0.00    +0.042 C 
ATOM     11  C   UNL     1      -5.410   1.725  24.941  0.00  0.00    +0.184 C 
ATOM     12  O   UNL     1      -6.119   2.146  24.947  0.00  0.00    -0.220 OA
ATOM     13  C   UNL     1      -4.654   2.049  24.988  0.00  0.00    +0.202 C 
ATOM     14  O   UNL     1      -4.473   2.852  25.049  0.00  0.00    -0.219 OA
ATOM     15  C   UNL     1      -4.109   1.430  24.962  0.00  0.00    +0.132 C 
ENDROOT
BRANCH   9   6
ATOM      3  C   UNL     1      -3.548  -1.546  24.774  0.00  0.00    +0.139 A 
ATOM      4  C   UNL     1      -3.577  -1.149  25.497  0.00  0.00    +0.037 A 
ATOM      5  C   UNL     1      -3.905  -0.392  25.539  0.00  0.00    -0.001 A 
ATOM      6  C   UNL     1      -4.202  -0.033  24.858  0.00  0.00    -0.020 A 
ATOM      7  C   UNL     1      -4.173  -0.430  24.135  0.00  0.00    -0.001 A 
ATOM      8  C   UNL     1      -3.845  -1.187  24.093  0.00  0.00    +0.037 A 
BRANCH   3   2
ATOM      1  C   UNL     1      -2.434  -2.399  24.504  0.00  0.00    +0.252 C 
ATOM      2  O   UNL     1      -3.221  -2.302  24.732  0.00  0.00    -0.471 OA
ENDBRANCH   3   2
ENDBRANCH   9   6
BRANCH  15  16
ATOM     16  N   UNL     1      -3.288   1.506  24.994  0.00  0.00    -0.200 NA
ATOM     17  C   UNL     1      -2.901   2.030  24.488  0.00  0.00    +0.265 C 
ATOM     18  O   UNL     1      -3.336   2.480  23.950  0.00  0.00    -0.268 OA
BRANCH  17  19
ATOM     19  C   UNL     1      -2.080   2.105  24.520  0.00  0.00    +0.058 A 
ATOM     20  C   UNL     1      -1.617   1.831  23.895  0.00  0.00    +0.005 A 
ATOM     21  C   UNL     1      -0.795   1.906  23.927  0.00  0.00    +0.003 A 
ATOM     22  C   UNL     1      -0.438   2.255  24.583  0.00  0.00    +0.037 A 
ATOM     23  C   UNL     1      -0.902   2.529  25.208  0.00  0.00    +0.139 A 
ATOM     26  C   UNL     1      -1.723   2.454  25.176  0.00  0.00    +0.041 A 
BRANCH  23  24
ATOM     24  O   UNL     1      -0.544   2.878  25.865  0.00  0.00    -0.471 OA
ATOM     25  C   UNL     1       0.068   2.489  26.257  0.00  0.00    +0.252 C 
ENDBRANCH  23  24
ENDBRANCH  17  19
ENDBRANCH  15  16
TORSDOF 5
ENDMDL
MODEL 3
REMARK VINA RESULT:     -10.9      1.338      3.094
REMARK  Name = 
REMARK  5 active torsions:
REMARK  status: ('A' for Active; 'I' for Inactive)
REMARK    1  A    between atoms: O_2  and  C_3
REMARK    2  A    between atoms: C_6  and  C_9
REMARK    3  A    between atoms: C_15  and  N_16
REMARK    4  A    between atoms: C_17  and  C_19
REMARK    5  A    between atoms: C_23  and  O_24
REMARK                            x       y       z     vdW  Elec       q    Type
REMARK                         _______ _______ _______ _____ _____    ______ ____
ROOT
ATOM      9  C   UNL     1      -1.836   2.465  24.736  0.00  0.00    +0.048 C 
ATOM     10  C   UNL     1      -1.150   2.873  24.530  0.00  0.00    +0.042 C 
ATOM     11  C   UNL     1      -0.525   2.335  24.527  0.00  0.00    +0.184 C 
ATOM     12  O   UNL     1       0.263   2.506  24.351  0.00  0.00    -0.220 OA
ATOM     13  C   UNL     1      -0.825   1.595  24.730  0.00  0.00    +0.202 C 
ATOM     14  O   UNL     1      -0.391   0.896  24.794  0.00  0.00    -0.219 OA
ATOM     15  C   UNL     1      -1.636   1.675  24.859  0.00  0.00    +0.132 C 
ENDROOT
BRANCH   9   6
ATOM      3  C   UNL     1      -4.101   3.442  24.945  0.00  0.00    +0.139 A 
ATOM      4  C   UNL     1      -3.630   3.347  25.615  0.00  0.00    +0.037 A 
ATOM      5  C   UNL     1      -2.874   3.021  25.546  0.00  0.00    -0.001 A 
ATOM      6  C   UNL     1      -2.591   2.791  24.805  0.00  0.00    -0.020 A 
ATOM      7  C   UNL     1      -3.063   2.885  24.135  0.00  0.00    -0.001 A 
ATOM      8  C   UNL     1      -3.818   3.211  24.204  0.00  0.00    +0.037 A 
BRANCH   3   2
ATOM      1  C   UNL     1      -5.412   3.418  25.515  0.00  0.00    +0.252 C 
ATOM      2  O   UNL     1      -4.856   3.767  25.014  0.00  0.00    -0.471 OA
ENDBRANCH   3   2
ENDBRANCH   9   6
BRANCH  15  16
ATOM     16  N   UNL     1      -2.155   1.071  25.075  0.00  0.00    -0.200 NA
ATOM     17  C   UNL     1      -2.172   0.368  24.643  0.00  0.00    +0.265 C 
ATOM     18  O   UNL     1      -1.671   0.269  23.995  0.00  0.00    -0.268 OA
BRANCH  17  19
ATOM     19  C   UNL     1      -2.692  -0.236  24.858  0.00  0.00    +0.058 A 
ATOM     20  C   UNL     1      -2.665  -0.551  25.620  0.00  0.00    +0.005 A 
ATOM     21  C   UNL     1      -3.184  -1.155  25.835  0.00  0.00    +0.003 A 
ATOM     22  C   UNL     1      -3.730  -1.444  25.289  0.00  0.00    +0.037 A 
ATOM     23  C   UNL     1      -3.756  -1.128  24.527  0.00  0.00    +0.139 A 
ATOM     26  C   UNL     1      -3.238  -0.525  24.311  0.00  0.00    +0.041 A 
BRANCH  23  24
ATOM     24  O   UNL     1      -4.303  -1.418  23.980  0.00  0.00    -0.471 OA
ATOM     25  C   UNL     1      -4.315  -2.221  23.794  0.00  0.00    +0.252 C 
ENDBRANCH  23  24
ENDBRANCH  17  19
ENDBRANCH  15  16
TORSDOF 5
ENDMDL
MODEL 4
REMARK VINA RESULT:     -10.8      1.695      2.267
REMARK  Name = 
REMARK  5 active torsions:
REMARK  status: ('A' for Active; 'I' for Inactive)
REMARK    1  A    between atoms: O_2  and  C_3
REMARK    2  A    between atoms: C_6  and  C_9
REMARK    3  A    between atoms: C_15  and  N_16
REMARK    4  A    between atoms: C_17  and  C_19
REMARK    5  A    between atoms: C_23  and  O_24
REMARK                            x       y       z     vdW  Elec       q    Type
REMARK                         _______ _______ _______ _____ _____    ______ ____
ROOT
ATOM      9  C   UNL     1      -4.042   2.617  25.026  0.00  0.00    +0.048 C 
ATOM     10  C   UNL     1      -4.846   2.748  24.903  0.00  0.00    +0.042 C 
ATOM     11  C   UNL     1      -5.218   2.014  24.842  0.00  0.00    +0.184 C 
ATOM     12  O   UNL     1      -6.024   1.888  24.717  0.00  0.00    -0.220 OA
ATOM     13  C   UNL     1      -4.643   1.430  24.927  0.00  0.00    +0.202 C 
ATOM     14  O   UNL     1      -4.773   0.615  24.902  0.00  0.00    -0.219 OA
ATOM     15  C   UNL     1      -3.916   1.802  25.041  0.00  0.00    +0.132 C 
ENDROOT
BRANCH   9   6
ATOM      3  C   UNL     1      -2.308   4.362  25.302  0.00  0.00    +0.139 A 
ATOM      4  C   UNL     1      -2.618   3.980  25.965  0.00  0.00    +0.037 A 
ATOM      5  C   UNL     1      -3.197   3.398  25.873  0.00  0.00    -0.001 A 
ATOM      6  C   UNL     1      -3.464   3.198  25.118  0.00  0.00    -0.020 A 
ATOM      7  C   UNL     1      -3.153   3.579  24.455  0.00  0.00    -0.001 A 
ATOM      8  C   UNL     1      -2.575   4.162  24.547  0.00  0.00    +0.037 A 
BRANCH   3   2
ATOM      1  C   UNL     1      -1.001   4.864  25.014  0.00  0.00    +0.252 C 
ATOM      2  O   UNL     1      -1.730   4.943  25.394  0.00  0.00    -0.471 OA
ENDBRANCH   3   2
ENDBRANCH   9   6
BRANCH  15  16
ATOM     16  N   UNL     1      -3.190   1.425  25.150  0.00  0.00    -0.200 NA
ATOM     17  C   UNL     1      -2.947   0.837  24.625  0.00  0.00    +0.265 C 
ATOM     18  O   UNL     1      -3.430   0.625  23.990  0.00  0.00    -0.268 OA
BRANCH  17  19
ATOM     19  C   UNL     1      -2.221   0.460  24.735  0.00  0.00    +0.058 A 
ATOM     20  C   UNL     1      -2.126  -0.078  25.352  0.00  0.00    +0.005 A 
ATOM     21  C   UNL     1      -1.400  -0.456  25.462  0.00  0.00    +0.003 A 
ATOM     22  C   UNL     1      -0.770  -0.294  24.954  0.00  0.00    +0.037 A 
ATOM     23  C   UNL     1      -0.867   0.245  24.336  0.00  0.00    +0.139 A 
ATOM     26  C   UNL     1      -1.592   0.621  24.227  0.00  0.00    +0.041 A 
BRANCH  23  24
ATOM     24  O   UNL     1      -0.236   0.406  23.828  0.00  0.00    -0.471 OA
ATOM     25  C   UNL     1       0.239  -0.209  23.552  0.00  0.00    +0.252 C 
ENDBRANCH  23  24
ENDBRANCH  17  19
ENDBRANCH  15  16
TORSDOF 5
ENDMDL
MODEL 5
REMARK VINA RESULT:     -10.7      1.346      4.139
REMARK  Name = 
REMARK  5 active torsions:
REMARK  status: ('A' for Active; 'I' for Inactive)
REMARK    1  A    between atoms: O_2  and  C_3
REMARK    2  A    between atoms: C_6  and  C_9
REMARK    3  A    between atoms: C_15  and  N_16
REMARK    4  A    between atoms: C_17  and  C_19
REMARK    5  A    between atoms: C_23  and  O_24
REMARK                            x       y       z     vdW  Elec       q    Type
REMARK                         _______ _______ _______ _____ _____    ______ ____
ROOT
ATOM      9  C   UNL     1      -3.463  -0.859  24.705  0.00  0.00    +0.048 C 
ATOM     10  C   UNL     1      -3.767  -1.622  24.783  0.00  0.00    +0.042 C 
ATOM     11  C   UNL     1      -3.137  -2.152  24.754  0.00  0.00    +0.184 C 
ATOM     12  O   UNL     1      -3.191  -2.974  24.811  0.00  0.00    -0.220 OA
ATOM     13  C   UNL     1      -2.443  -1.718  24.658  0.00  0.00    +0.202 C 
ATOM     14  O   UNL     1      -1.680  -2.029  24.602  0.00  0.00    -0.219 OA
ATOM     15  C   UNL     1      -2.644  -0.919  24.627  0.00  0.00    +0.132 C 
ENDROOT
BRANCH   9   6
ATOM      3  C   UNL     1      -4.775   1.239  24.703  0.00  0.00    +0.139 A 
ATOM      4  C   UNL     1      -4.699   0.801  25.398  0.00  0.00    +0.037 A 
ATOM      5  C   UNL     1      -4.261   0.101  25.399  0.00  0.00    -0.001 A 
ATOM      6  C   UNL     1      -3.900  -0.160  24.704  0.00  0.00    -0.020 A 
ATOM      7  C   UNL     1      -3.976   0.278  24.009  0.00  0.00    -0.001 A 
ATOM      8  C   UNL     1      -4.415   0.978  24.008  0.00  0.00    +0.037 A 
BRANCH   3   2
ATOM      1  C   UNL     1      -4.887   2.630  25.014  0.00  0.00    +0.252 C 
ATOM      2  O   UNL     1      -5.213   1.938  24.702  0.00  0.00    -0.471 OA
ENDBRANCH   3   2
ENDBRANCH   9   6
BRANCH  15  16
ATOM     16  N   UNL     1      -2.118  -0.290  24.536  0.00  0.00    -0.200 NA
ATOM     17  C   UNL     1      -1.475  -0.212  25.046  0.00  0.00    +0.265 C 
ATOM     18  O   UNL     1      -1.356  -0.763  25.648  0.00  0.00    -0.268 OA
BRANCH  17  19
ATOM     19  C   UNL     1      -0.949   0.417  24.954  0.00  0.00    +0.058 A 
ATOM     20  C   UNL     1      -0.483   0.469  24.276  0.00  0.00    +0.005 A 
ATOM     21  C   UNL     1       0.043   1.099  24.184  0.00  0.00    +0.003 A 
ATOM     22  C   UNL     1       0.102   1.676  24.771  0.00  0.00    +0.037 A 
ATOM     23  C   UNL     1      -0.364   1.623  25.449  0.00  0.00    +0.139 A 
ATOM     26  C   UNL     1      -0.890   0.994  25.541  0.00  0.00    +0.041 A 
BRANCH  23  24
ATOM     24  O   UNL     1      -0.305   2.200  26.036  0.00  0.00    -0.471 OA
ATOM     25  C   UNL     1      -0.645   2.942  25.921  0.00  0.00    +0.252 C 
ENDBRANCH  23  24
ENDBRANCH  17  19
ENDBRANCH  15  16
TORSDOF 5
ENDMDL
