MODEL 1
REMARK VINA RESULT:      -9.4      0.000      0.000
REMARK  Name = 
REMARK  8 active torsions:
REMARK  status: ('A' for Active; 'I' for Inactive)
REMARK    1  A    between atoms: O_2  and  C_3
REMARK    2  A    between atoms: C_3  and  C_4
REMARK    3  A    between atoms: C_4  and  O_5
REMARK    4  A    between atoms: O_5  and  C_6
REMARK    5  A    between atoms: C_8  and  C_12
REMARK    6  A    between atoms: C_15  and  C_17
REMARK    7  A    between atoms: N_21  and  C_22
REMARK    8  A    between atoms: C_22  and  C_23
REMARK                            x       y       z     vdW  Elec       q    Type
REMARK                         _______ _______ _______ _____ _____    ______ ____
ROOT
ATOM     12  C   UNL     1      -4.034   1.468  24.444  0.00  0.00    +0.221 A 
ATOM     13  N   UNL     1      -3.830   1.384  23.650  0.00  0.00    -0.054 NA
ATOM     14  O   UNL     1      -3.651   0.591  23.515  0.00  0.00    -0.336 OA
ATOM     15  C   UNL     1      -3.744   0.184  24.226  0.00  0.00    +0.251 A 
ATOM     16  N   UNL     1      -3.981   0.725  24.801  0.00  0.00    -0.188 NA
ENDROOT
BRANCH  12   8
ATOM      6  C   UNL     1      -3.894   3.380  25.488  0.00  0.00    +0.142 A 
ATOM      7  C   UNL     1      -3.675   2.678  25.115  0.00  0.00    +0.059 A 
ATOM      8  C   UNL     1      -4.253   2.170  24.818  0.00  0.00    +0.123 A 
ATOM      9  N   UNL     1      -5.052   2.366  24.894  0.00  0.00    -0.240 NA
ATOM     10  C   UNL     1      -5.271   3.068  25.267  0.00  0.00    +0.102 A 
ATOM     11  C   UNL     1      -4.692   3.575  25.564  0.00  0.00    +0.058 A 
BRANCH   6   5
ATOM      5  O   UNL     1      -3.315   3.887  25.785  0.00  0.00    -0.473 OA
BRANCH   5   4
ATOM      4  C   UNL     1      -2.759   4.221  25.275  0.00  0.00    +0.237 C 
BRANCH   4   3
ATOM      3  C   UNL     1      -2.066   4.550  25.578  0.00  0.00    +0.189 C 
BRANCH   3   2
ATOM      1  C   UNL     1      -0.874   5.040  24.961  0.00  0.00    +0.174 C 
ATOM      2  O   UNL     1      -1.670   5.138  25.156  0.00  0.00    -0.347 OA
ENDBRANCH   3   2
ENDBRANCH   4   3
ENDBRANCH   5   4
ENDBRANCH   6   5
ENDBRANCH  12   8
BRANCH  15  17
ATOM     17  C   UNL     1      -3.621  -0.624  24.343  0.00  0.00    +0.138 C 
ATOM     18  C   UNL     1      -4.172  -1.222  24.210  0.00  0.00    +0.027 C 
ATOM     19  C   UNL     1      -3.817  -1.943  24.397  0.00  0.00    +0.019 C 
ATOM     20  C   UNL     1      -3.045  -1.790  24.645  0.00  0.00    +0.073 C 
ATOM     21  N   UNL     1      -2.924  -0.975  24.612  0.00  0.00    -0.260 NA
BRANCH  21  22
ATOM     22  C   UNL     1      -2.228  -0.579  24.812  0.00  0.00    +0.138 C 
BRANCH  22  23
ATOM     23  C   UNL     1      -1.524  -1.001  24.896  0.00  0.00    +0.139 A 
ATOM     24  C   UNL     1      -1.176  -1.228  25.609  0.00  0.00    +0.038 A 
ATOM     25  C   UNL     1      -0.483  -1.637  25.434  0.00  0.00    +0.043 A 
ATOM     26  C   UNL     1      -0.400  -1.664  24.614  0.00  0.00    +0.179 A 
ATOM     27  O   UNL     1      -1.045  -1.271  24.281  0.00  0.00    -0.453 OA
ENDBRANCH  22  23
ENDBRANCH  21  22
ENDBRANCH  15  17
TORSDOF 8
ENDMDL
MODEL 2
REMARK VINA RESULT:      -9.3      1.939      5.666
REMARK  Name = 
REMARK  8 active torsions:
REMARK  status: ('A' for Active; 'I' for Inactive)
REMARK    1  A    between atoms: O_2  and  C_3
REMARK    2  A    between atoms: C_3  and  C_4
REMARK    3  A    between atoms: C_4  and  O_5
REMARK    4  A    between atoms: O_5  and  C_6
REMARK    5  A    between atoms: C_8  and  C_12
REMARK    6  A    between atoms: C_15  and  C_17
REMARK    7  A    between atoms: N_21  and  C_22
REMARK    8  A    between atoms: C_22  and  C_23
REMARK                            x       y       z     vdW  Elec       q    Type
REMARK                         _______ _______ _______ _____ _____    ______ ____
ROOT
ATOM     12  C   UNL     1      -0.490   1.649  25.064  0.00  0.00    +0.221 A 
ATOM     13  N   UNL     1      -0.256   1.828  25.834  0.00  0.00    -0.054 NA
ATOM     14  O   UNL     1      -0.505   2.596  26.004  0.00  0.00    -0.336 OA
ATOM     15  C   UNL     1      -0.893   2.891  25.339  0.00  0.00    +0.251 A 
ATOM     16  N   UNL     1      -0.884   2.306  24.758  0.00  0.00    -0.188 NA
ENDROOT
BRANCH  12   8
ATOM      6  C   UNL     1      -0.573  -0.469  24.543  0.00  0.00    +0.142 A 
ATOM      7  C   UNL     1      -0.708   0.242  24.938  0.00  0.00    +0.059 A 
ATOM      8  C   UNL     1      -0.355   0.937  24.669  0.00  0.00    +0.123 A 
ATOM      9  N   UNL     1       0.135   0.921  24.005  0.00  0.00    -0.240 NA
ATOM     10  C   UNL     1       0.271   0.209  23.610  0.00  0.00    +0.102 A 
ATOM     11  C   UNL     1      -0.084  -0.486  23.879  0.00  0.00    +0.058 A 
BRANCH   6   5
ATOM      5  O   UNL     1      -0.927  -1.164  24.812  0.00  0.00    -0.473 OA
BRANCH   5   4
ATOM      4  C   UNL     1      -1.615  -1.443  24.450  0.00  0.00    +0.237 C 
BRANCH   4   3
ATOM      3  C   UNL     1      -2.026  -2.078  24.779  0.00  0.00    +0.189 C 
BRANCH   3   2
ATOM      1  C   UNL     1      -3.340  -2.637  24.751  0.00  0.00    +0.174 C 
ATOM      2  O   UNL     1      -2.642  -2.432  24.361  0.00  0.00    -0.347 OA
ENDBRANCH   3   2
ENDBRANCH   4   3
ENDBRANCH   5   4
ENDBRANCH   6   5
ENDBRANCH  12   8
BRANCH  15  17
ATOM     17  C   UNL     1      -1.231   3.641  25.267  0.00  0.00    +0.138 C 
ATOM     18  C   UNL     1      -0.831   4.336  25.075  0.00  0.00    +0.027 C 
ATOM     19  C   UNL     1      -1.381   4.951  25.065  0.00  0.00    +0.019 C 
ATOM     20  C   UNL     1      -2.120   4.636  25.251  0.00  0.00    +0.073 C 
ATOM     21  N   UNL     1      -2.027   3.826  25.376  0.00  0.00    -0.260 NA
BRANCH  21  22
ATOM     22  C   UNL     1      -2.626   3.294  25.575  0.00  0.00    +0.138 C 
BRANCH  22  23
ATOM     23  C   UNL     1      -3.409   3.463  25.379  0.00  0.00    +0.139 A 
ATOM     24  C   UNL     1      -3.997   3.713  25.901  0.00  0.00    +0.038 A 
ATOM     25  C   UNL     1      -4.692   3.817  25.470  0.00  0.00    +0.043 A 
ATOM     26  C   UNL     1      -4.536   3.632  24.682  0.00  0.00    +0.179 A 
ATOM     27  O   UNL     1      -3.742   3.413  24.625  0.00  0.00    -0.453 OA
ENDBRANCH  22  23
ENDBRANCH  21  22
ENDBRANCH  15  17
TORSDOF 8
ENDMDL
MODEL 3
REMARK VINA RESULT:      -9.1      1.534      2.815
REMARK  Name = 
REMARK  8 active torsions:
REMARK  status: ('A' for Active; 'I' for Inactive)
REMARK    1  A    between atoms: O_2  and  C_3
REMARK    2  A    between atoms: C_3  and  C_4
REMARK    3  A    between atoms: C_4  and  O_5
REMARK    4  A    between atoms: O_5  and  C_6
REMARK    5  A    between atoms: C_8  and  C_12
REMARK    6  A    between atoms: C_15  and  C_17
REMARK    7  A    between atoms: N_21  and  C_22
REMARK    8  A    between atoms: C_22  and  C_23
REMARK                            x       y       z     vdW  Elec       q    Type
REMARK                         _______ _______ _______ _____ _____    ______ ____
ROOT
ATOM     12  C   UNL     1      -1.598   1.885  24.496  0.00  0.00    +0.221 A 
ATOM     13  N   UNL     1      -1.497   1.703  23.698  0.00  0.00    -0.054 NA
ATOM     14  O   UNL     1      -1.281   0.909  23.643  0.00  0.00    -0.336 OA
ATOM     15  C   UNL     1      -1.248   0.600  24.407  0.00  0.00    +0.251 A 
ATOM     16  N   UNL     1      -1.444   1.202  24.934  0.00  0.00    -0.188 NA
ENDROOT
BRANCH  12   8
ATOM      6  C   UNL     1      -2.823   3.583  25.113  0.00  0.00    +0.142 A 
ATOM      7  C   UNL     1      -2.607   2.848  24.806  0.00  0.00    +0.059 A 
ATOM      8  C   UNL     1      -1.814   2.619  24.803  0.00  0.00    +0.123 A 
ATOM      9  N   UNL     1      -1.238   3.126  25.107  0.00  0.00    -0.240 NA
ATOM     10  C   UNL     1      -1.454   3.860  25.414  0.00  0.00    +0.102 A 
ATOM     11  C   UNL     1      -2.247   4.088  25.417  0.00  0.00    +0.058 A 
BRANCH   6   5
ATOM      5  O   UNL     1      -3.616   3.811  25.116  0.00  0.00    -0.473 OA
BRANCH   5   4
ATOM      4  C   UNL     1      -4.148   3.447  25.631  0.00  0.00    +0.237 C 
BRANCH   4   3
ATOM      3  C   UNL     1      -4.960   3.523  25.509  0.00  0.00    +0.189 C 
BRANCH   3   2
ATOM      1  C   UNL     1      -6.026   2.643  25.871  0.00  0.00    +0.174 C 
ATOM      2  O   UNL     1      -5.491   3.238  26.072  0.00  0.00    -0.347 OA
ENDBRANCH   3   2
ENDBRANCH   4   3
ENDBRANCH   5   4
ENDBRANCH   6   5
ENDBRANCH  12   8
BRANCH  15  17
ATOM     17  C   UNL     1      -1.054  -0.177  24.607  0.00  0.00    +0.138 C 
ATOM     18  C   UNL     1      -0.293  -0.469  24.732  0.00  0.00    +0.027 C 
ATOM     19  C   UNL     1      -0.355  -1.270  24.920  0.00  0.00    +0.019 C 
ATOM     20  C   UNL     1      -1.156  -1.472  24.911  0.00  0.00    +0.073 C 
ATOM     21  N   UNL     1      -1.587  -0.797  24.718  0.00  0.00    -0.260 NA
BRANCH  21  22
ATOM     22  C   UNL     1      -2.408  -0.749  24.647  0.00  0.00    +0.138 C 
BRANCH  22  23
ATOM     23  C   UNL     1      -2.865  -1.435  24.685  0.00  0.00    +0.139 A 
ATOM     24  C   UNL     1      -3.276  -1.709  25.345  0.00  0.00    +0.038 A 
ATOM     25  C   UNL     1      -3.655  -2.410  25.135  0.00  0.00    +0.043 A 
ATOM     26  C   UNL     1      -3.479  -2.571  24.346  0.00  0.00    +0.179 A 
ATOM     27  O   UNL     1      -2.990  -1.967  24.066  0.00  0.00    -0.453 OA
ENDBRANCH  22  23
ENDBRANCH  21  22
ENDBRANCH  15  17
TORSDOF 8
ENDMDL
MODEL 4
REMARK VINA RESULT:      -9.1      1.824      3.334
REMARK  Name = 
REMARK  8 active torsions:
REMARK  status: ('A' for Active; 'I' for Inactive)
REMARK    1  A    between atoms: O_2  and  C_3
REMARK    2  A    between atoms: C_3  and  C_4
REMARK    3  A    between atoms: C_4  and  O_5
REMARK    4  A    between atoms: O_5  and  C_6
REMARK    5  A    between atoms: C_8  and  C_12
REMARK    6  A    between atoms: C_15  and  C_17
REMARK    7  A    between atoms: N_21  and  C_22
REMARK    8  A    between atoms: C_22  and  C_23
REMARK                            x       y       z     vdW  Elec       q    Type
REMARK                         _______ _______ _______ _____ _____    ______ ____
ROOT
ATOM     12  C   UNL     1      -3.121   3.445  24.719  0.00  0.00    +0.221 A 
ATOM     13  N   UNL     1      -3.591   3.636  24.069  0.00  0.00    -0.054 NA
ATOM     14  O   UNL     1      -4.280   3.186  24.112  0.00  0.00    -0.336 OA
ATOM     15  C   UNL     1      -4.236   2.716  24.788  0.00  0.00    +0.251 A 
ATOM     16  N   UNL     1      -3.520   2.876  25.164  0.00  0.00    -0.188 NA
ENDROOT
BRANCH  12   8
ATOM      6  C   UNL     1      -0.977   3.600  25.100  0.00  0.00    +0.142 A 
ATOM      7  C   UNL     1      -1.716   3.279  24.925  0.00  0.00    +0.059 A 
ATOM      8  C   UNL     1      -2.381   3.766  24.894  0.00  0.00    +0.123 A 
ATOM      9  N   UNL     1      -2.306   4.576  25.040  0.00  0.00    -0.240 NA
ATOM     10  C   UNL     1      -1.567   4.897  25.215  0.00  0.00    +0.102 A 
ATOM     11  C   UNL     1      -0.902   4.408  25.245  0.00  0.00    +0.058 A 
BRANCH   6   5
ATOM      5  O   UNL     1      -0.312   3.112  25.130  0.00  0.00    -0.473 OA
BRANCH   5   4
ATOM      4  C   UNL     1      -0.115   2.645  24.479  0.00  0.00    +0.237 C 
BRANCH   4   3
ATOM      3  C   UNL     1       0.373   1.987  24.576  0.00  0.00    +0.189 C 
BRANCH   3   2
ATOM      1  C   UNL     1       0.820   0.939  23.713  0.00  0.00    +0.174 C 
ATOM      2  O   UNL     1       0.847   1.728  23.952  0.00  0.00    -0.347 OA
ENDBRANCH   3   2
ENDBRANCH   4   3
ENDBRANCH   5   4
ENDBRANCH   6   5
ENDBRANCH  12   8
BRANCH  15  17
ATOM     17  C   UNL     1      -4.809   2.180  25.044  0.00  0.00    +0.138 C 
ATOM     18  C   UNL     1      -5.491   2.366  25.469  0.00  0.00    +0.027 C 
ATOM     19  C   UNL     1      -5.904   1.665  25.607  0.00  0.00    +0.019 C 
ATOM     20  C   UNL     1      -5.476   1.046  25.268  0.00  0.00    +0.073 C 
ATOM     21  N   UNL     1      -4.800   1.365  24.920  0.00  0.00    -0.260 NA
BRANCH  21  22
ATOM     22  C   UNL     1      -4.216   0.942  24.518  0.00  0.00    +0.138 C 
BRANCH  22  23
ATOM     23  C   UNL     1      -4.128   0.133  24.652  0.00  0.00    +0.139 A 
ATOM     24  C   UNL     1      -4.307  -0.471  24.120  0.00  0.00    +0.038 A 
ATOM     25  C   UNL     1      -4.134  -1.190  24.482  0.00  0.00    +0.043 A 
ATOM     26  C   UNL     1      -3.848  -1.033  25.239  0.00  0.00    +0.179 A 
ATOM     27  O   UNL     1      -3.844  -0.215  25.345  0.00  0.00    -0.453 OA
ENDBRANCH  22  23
ENDBRANCH  21  22
ENDBRANCH  15  17
TORSDOF 8
ENDMDL
MODEL 5
REMARK VINA RESULT:      -9.0      1.934      4.420
REMARK  Name = 
REMARK  8 active torsions:
REMARK  status: ('A' for Active; 'I' for Inactive)
REMARK    1  A    between atoms: O_2  and  C_3
REMARK    2  A    between atoms: C_3  and  C_4
REMARK    3  A    between atoms: C_4  and  O_5
REMARK    4  A    between atoms: O_5  and  C_6
REMARK    5  A    between atoms: C_8  and  C_12
REMARK    6  A    between atoms: C_15  and  C_17
REMARK    7  A    between atoms: N_21  and  C_22
REMARK    8  A    between atoms: C_22  and  C_23
REMARK                            x       y       z     vdW  Elec       q    Type
REMARK                         _______ _______ _______ _____ _____    ______ ____
ROOT
ATOM     12  C   UNL     1      -3.907   3.368  25.689  0.00  0.00    +0.221 A 
ATOM     13  N   UNL     1      -3.829   3.784  26.396  0.00  0.00    -0.054 NA
ATOM     14  O   UNL     1      -3.114   4.195  26.373  0.00  0.00    -0.336 OA
ATOM     15  C   UNL     1      -2.750   4.032  25.650  0.00  0.00    +0.251 A 
ATOM     16  N   UNL     1      -3.240   3.521  25.227  0.00  0.00    -0.188 NA
ENDROOT
BRANCH  12   8
ATOM      6  C   UNL     1      -5.037   1.682  24.884  0.00  0.00    +0.142 A 
ATOM      7  C   UNL     1      -4.403   2.167  25.094  0.00  0.00    +0.059 A 
ATOM      8  C   UNL     1      -4.541   2.883  25.478  0.00  0.00    +0.123 A 
ATOM      9  N   UNL     1      -5.314   3.116  25.652  0.00  0.00    -0.240 NA
ATOM     10  C   UNL     1      -5.948   2.631  25.442  0.00  0.00    +0.102 A 
ATOM     11  C   UNL     1      -5.808   1.914  25.058  0.00  0.00    +0.058 A 
BRANCH   6   5
ATOM      5  O   UNL     1      -4.897   0.965  24.500  0.00  0.00    -0.473 OA
BRANCH   5   4
ATOM      4  C   UNL     1      -4.521   0.350  24.900  0.00  0.00    +0.237 C 
BRANCH   4   3
ATOM      3  C   UNL     1      -4.328  -0.346  24.501  0.00  0.00    +0.189 C 
BRANCH   3   2
ATOM      1  C   UNL     1      -3.767  -1.660  24.531  0.00  0.00    +0.174 C 
ATOM      2  O   UNL     1      -4.103  -1.017  24.925  0.00  0.00    -0.347 OA
ENDBRANCH   3   2
ENDBRANCH   4   3
ENDBRANCH   5   4
ENDBRANCH   6   5
ENDBRANCH  12   8
BRANCH  15  17
ATOM     17  C   UNL     1      -2.023   4.329  25.396  0.00  0.00    +0.138 C 
ATOM     18  C   UNL     1      -1.883   5.090  25.111  0.00  0.00    +0.027 C 
ATOM     19  C   UNL     1      -1.083   5.147  24.921  0.00  0.00    +0.019 C 
ATOM     20  C   UNL     1      -0.728   4.422  25.089  0.00  0.00    +0.073 C 
ATOM     21  N   UNL     1      -1.309   3.916  25.383  0.00  0.00    -0.260 NA
BRANCH  21  22
ATOM     22  C   UNL     1      -1.196   3.134  25.622  0.00  0.00    +0.138 C 
BRANCH  22  23
ATOM     23  C   UNL     1      -0.596   2.682  25.281  0.00  0.00    +0.139 A 
ATOM     24  C   UNL     1       0.079   2.403  25.664  0.00  0.00    +0.038 A 
ATOM     25  C   UNL     1       0.525   1.979  25.116  0.00  0.00    +0.043 A 
ATOM     26  C   UNL     1       0.127   1.995  24.394  0.00  0.00    +0.179 A 
ATOM     27  O   UNL     1      -0.567   2.430  24.496  0.00  0.00    -0.453 OA
ENDBRANCH  22  23
ENDBRANCH  21  22
ENDBRANCH  15  17
TORSDOF 8
ENDMDL
MODEL 6
REMARK VINA RESULT:      -8.8      0.984      4.631
REMARK  Name = 
REMARK  8 active torsions:
REMARK  status: ('A' for Active; 'I' for Inactive)
REMARK    1  A    between atoms: O_2  and  C_3
REMARK    2  A    between atoms: C_3  and  C_4
REMARK    3  A    between atoms: C_4  and  O_5
REMARK    4  A    between atoms: O_5  and  C_6
REMARK    5  A    between atoms: C_8  and  C_12
REMARK    6  A    between atoms: C_15  and  C_17
REMARK    7  A    between atoms: N_21  and  C_22
REMARK    8  A    between atoms: C_22  and  C_23
REMARK                            x       y       z     vdW  Elec       q    Type
REMARK                         _______ _______ _______ _____ _____    ______ ____
ROOT
ATOM     12  C   UNL     1      -3.999  -0.045  24.724  0.00  0.00    +0.221 A 
ATOM     13  N   UNL     1      -4.354   0.167  24.010  0.00  0.00    -0.054 NA
ATOM     14  O   UNL     1      -4.731   0.892  24.119  0.00  0.00    -0.336 OA
ATOM     15  C   UNL     1      -4.609   1.129  24.899  0.00  0.00    +0.251 A 
ATOM     16  N   UNL     1      -4.156   0.551  25.274  0.00  0.00    -0.188 NA
ENDROOT
BRANCH  12   8
ATOM      6  C   UNL     1      -2.302  -1.385  25.024  0.00  0.00    +0.142 A 
ATOM      7  C   UNL     1      -2.738  -0.699  24.884  0.00  0.00    +0.059 A 
ATOM      8  C   UNL     1      -3.562  -0.731  24.864  0.00  0.00    +0.123 A 
ATOM      9  N   UNL     1      -3.950  -1.450  24.984  0.00  0.00    -0.240 NA
ATOM     10  C   UNL     1      -3.514  -2.136  25.124  0.00  0.00    +0.102 A 
ATOM     11  C   UNL     1      -2.689  -2.103  25.144  0.00  0.00    +0.058 A 
BRANCH   6   5
ATOM      5  O   UNL     1      -1.477  -1.352  25.044  0.00  0.00    -0.473 OA
BRANCH   5   4
ATOM      4  C   UNL     1      -1.057  -1.154  24.363  0.00  0.00    +0.237 C 
BRANCH   4   3
ATOM      3  C   UNL     1      -0.283  -0.874  24.422  0.00  0.00    +0.189 C 
BRANCH   3   2
ATOM      1  C   UNL     1       0.534  -0.168  23.487  0.00  0.00    +0.174 C 
ATOM      2  O   UNL     1       0.209  -0.875  23.759  0.00  0.00    -0.347 OA
ENDBRANCH   3   2
ENDBRANCH   4   3
ENDBRANCH   5   4
ENDBRANCH   6   5
ENDBRANCH  12   8
BRANCH  15  17
ATOM     17  C   UNL     1      -4.890   1.824  25.245  0.00  0.00    +0.138 C 
ATOM     18  C   UNL     1      -5.597   1.907  25.660  0.00  0.00    +0.027 C 
ATOM     19  C   UNL     1      -5.657   2.691  25.907  0.00  0.00    +0.019 C 
ATOM     20  C   UNL     1      -4.987   3.094  25.644  0.00  0.00    +0.073 C 
ATOM     21  N   UNL     1      -4.513   2.558  25.235  0.00  0.00    -0.260 NA
BRANCH  21  22
ATOM     22  C   UNL     1      -3.788   2.725  24.878  0.00  0.00    +0.138 C 
BRANCH  22  23
ATOM     23  C   UNL     1      -3.321   3.342  25.163  0.00  0.00    +0.139 A 
ATOM     24  C   UNL     1      -3.167   4.054  24.776  0.00  0.00    +0.038 A 
ATOM     25  C   UNL     1      -2.678   4.507  25.261  0.00  0.00    +0.043 A 
ATOM     26  C   UNL     1      -2.528   4.076  25.948  0.00  0.00    +0.179 A 
ATOM     27  O   UNL     1      -2.926   3.356  25.888  0.00  0.00    -0.453 OA
ENDBRANCH  22  23
ENDBRANCH  21  22
ENDBRANCH  15  17
TORSDOF 8
ENDMDL
MODEL 7
REMARK VINA RESULT:      -8.7      2.430      5.560
REMARK  Name = 
REMARK  8 active torsions:
REMARK  status: ('A' for Active; 'I' for Inactive)
REMARK    1  A    between atoms: O_2  and  C_3
REMARK    2  A    between atoms: C_3  and  C_4
REMARK    3  A    between atoms: C_4  and  O_5
REMARK    4  A    between atoms: O_5  and  C_6
REMARK    5  A    between atoms: C_8  and  C_12
REMARK    6  A    between atoms: C_15  and  C_17
REMARK    7  A    between atoms: N_21  and  C_22
REMARK    8  A    between atoms: C_22  and  C_23
REMARK                            x       y       z     vdW  Elec       q    Type
REMARK                         _______ _______ _______ _____ _____    ______ ____
ROOT
ATOM     12  C   UNL     1      -0.638   1.413  25.064  0.00  0.00    +0.221 A 
ATOM     13  N   UNL     1      -0.506   1.552  25.866  0.00  0.00    -0.054 NA
ATOM     14  O   UNL     1      -0.791   2.305  26.044  0.00  0.00    -0.336 OA
ATOM     15  C   UNL     1      -1.100   2.631  25.352  0.00  0.00    +0.251 A 
ATOM     16  N   UNL     1      -1.005   2.080  24.746  0.00  0.00    -0.188 NA
ENDROOT
BRANCH  12   8
ATOM      6  C   UNL     1       0.293   0.077  23.610  0.00  0.00    +0.142 A 
ATOM      7  C   UNL     1       0.093   0.763  24.023  0.00  0.00    +0.059 A 
ATOM      8  C   UNL     1      -0.438   0.726  24.652  0.00  0.00    +0.123 A 
ATOM      9  N   UNL     1      -0.771   0.003  24.869  0.00  0.00    -0.240 NA
ATOM     10  C   UNL     1      -0.571  -0.684  24.457  0.00  0.00    +0.102 A 
ATOM     11  C   UNL     1      -0.039  -0.646  23.828  0.00  0.00    +0.058 A 
BRANCH   6   5
ATOM      5  O   UNL     1       0.825   0.115  22.981  0.00  0.00    -0.473 OA
BRANCH   5   4
ATOM      4  C   UNL     1       1.634   0.028  23.119  0.00  0.00    +0.237 C 
BRANCH   4   3
ATOM      3  C   UNL     1       2.174   0.164  22.511  0.00  0.00    +0.189 C 
BRANCH   3   2
ATOM      1  C   UNL     1       3.535   0.597  22.472  0.00  0.00    +0.174 C 
ATOM      2  O   UNL     1       2.976   0.011  22.628  0.00  0.00    -0.347 OA
ENDBRANCH   3   2
ENDBRANCH   4   3
ENDBRANCH   5   4
ENDBRANCH   6   5
ENDBRANCH  12   8
BRANCH  15  17
ATOM     17  C   UNL     1      -1.443   3.378  25.279  0.00  0.00    +0.138 C 
ATOM     18  C   UNL     1      -1.038   4.094  25.220  0.00  0.00    +0.027 C 
ATOM     19  C   UNL     1      -1.596   4.698  25.157  0.00  0.00    +0.019 C 
ATOM     20  C   UNL     1      -2.346   4.355  25.176  0.00  0.00    +0.073 C 
ATOM     21  N   UNL     1      -2.252   3.540  25.252  0.00  0.00    -0.260 NA
BRANCH  21  22
ATOM     22  C   UNL     1      -2.859   2.983  25.293  0.00  0.00    +0.138 C 
BRANCH  22  23
ATOM     23  C   UNL     1      -3.646   3.231  25.297  0.00  0.00    +0.139 A 
ATOM     24  C   UNL     1      -4.163   3.215  24.655  0.00  0.00    +0.038 A 
ATOM     25  C   UNL     1      -4.890   3.513  24.906  0.00  0.00    +0.043 A 
ATOM     26  C   UNL     1      -4.822   3.714  25.703  0.00  0.00    +0.179 A 
ATOM     27  O   UNL     1      -4.053   3.539  25.945  0.00  0.00    -0.453 OA
ENDBRANCH  22  23
ENDBRANCH  21  22
ENDBRANCH  15  17
TORSDOF 8
ENDMDL
