MODEL 1
REMARK VINA RESULT:     -10.4      0.000      0.000
REMARK  Name = 
REMARK  5 active torsions:
REMARK  status: ('A' for Active; 'I' for Inactive)
REMARK    1  A    between atoms: C_2  and  N_4
REMARK    2  A    between atoms: N_7  and  C_8
REMARK    3  A    between atoms: C_8  and  C_9
REMARK    4  A    between atoms: C_16  and  C_17
REMARK    5  A    between atoms: C_19  and  C_23
REMARK                            x       y       z     vdW  Elec       q    Type
REMARK                         _______ _______ _______ _____ _____    ______ ____
ROOT
ATOM      9  C   UNL     1      -4.011   0.626  24.352  0.00  0.00    +0.079 C 
ATOM     10  C   UNL     1      -3.813   1.214  23.881  0.00  0.00    +0.018 C 
ATOM     11  C   UNL     1      -3.553   1.942  24.119  0.00  0.00    +0.010 C 
ATOM     12  C   UNL     1      -3.377   2.479  23.423  0.00  0.00    +0.018 C 
ATOM     13  C   UNL     1      -3.566   1.926  23.716  0.00  0.00    +0.072 C 
ATOM     14  N   UNL     1      -3.745   1.371  24.587  0.00  0.00    -0.272 NA
ATOM     15  C   UNL     1      -3.601   1.736  25.411  0.00  0.00    +0.078 C 
ATOM     16  C   UNL     1      -3.417   2.287  24.915  0.00  0.00    +0.056 C 
ENDROOT
BRANCH  16  17
ATOM     17  C   UNL     1      -3.147   3.047  25.091  0.00  0.00    +0.058 A 
ATOM     18  C   UNL     1      -2.416   3.362  24.877  0.00  0.00    +0.031 A 
ATOM     19  C   UNL     1      -2.378   4.134  25.165  0.00  0.00    +0.079 A 
ATOM     20  N   UNL     1      -3.086   4.296  25.556  0.00  0.00    -0.174 NA
ATOM     21  N   UNL     1      -3.562   3.623  25.510  0.00  0.00    -0.253 N 
ATOM     22  C   UNL     1      -4.319   3.542  25.828  0.00  0.00    +0.153 C 
BRANCH  19  23
ATOM     23  C   UNL     1      -1.743   4.654  25.077  0.00  0.00    +0.042 C 
ATOM     24  C   UNL     1      -0.950   4.441  24.992  0.00  0.00    +0.006 C 
ATOM     25  C   UNL     1      -0.507   5.134  24.921  0.00  0.00    +0.000 C 
ATOM     26  C   UNL     1      -1.026   5.774  24.963  0.00  0.00    +0.000 C 
ATOM     27  C   UNL     1      -1.789   5.478  25.059  0.00  0.00    +0.006 C 
ENDBRANCH  19  23
ENDBRANCH  16  17
BRANCH   9   8
ATOM      8  C   UNL     1      -4.277  -0.140  24.500  0.00  0.00    +0.133 C 
BRANCH   8   7
ATOM      4  N   UNL     1      -3.564  -2.128  23.947  0.00  0.00    -0.189 NA
ATOM      5  C   UNL     1      -3.845  -1.499  24.402  0.00  0.00    +0.339 C 
ATOM      6  O   UNL     1      -3.975  -1.600  25.210  0.00  0.00    -0.249 OA
ATOM      7  N   UNL     1      -3.996  -0.770  24.046  0.00  0.00    -0.186 NA
BRANCH   4   2
ATOM      1  C   UNL     1      -2.690  -2.993  24.675  0.00  0.00    +0.023 C 
ATOM      2  C   UNL     1      -3.413  -2.858  24.303  0.00  0.00    +0.097 C 
ATOM      3  C   UNL     1      -3.986  -3.452  24.285  0.00  0.00    +0.023 C 
ENDBRANCH   4   2
ENDBRANCH   8   7
ENDBRANCH   9   8
TORSDOF 5
ENDMDL
MODEL 2
REMARK VINA RESULT:      -9.5      2.097      2.379
REMARK  Name = 
REMARK  5 active torsions:
REMARK  status: ('A' for Active; 'I' for Inactive)
REMARK    1  A    between atoms: C_2  and  N_4
REMARK    2  A    between atoms: N_7  and  C_8
REMARK    3  A    between atoms: C_8  and  C_9
REMARK    4  A    between atoms: C_16  and  C_17
REMARK    5  A    between atoms: C_19  and  C_23
REMARK                            x       y       z     vdW  Elec       q    Type
REMARK                         _______ _______ _______ _____ _____    ______ ____
ROOT
ATOM      9  C   UNL     1      -1.119  -0.268  24.916  0.00  0.00    +0.079 C 
ATOM     10  C   UNL     1      -0.734   0.258  24.491  0.00  0.00    +0.018 C 
ATOM     11  C   UNL     1      -0.635   1.038  24.685  0.00  0.00    +0.010 C 
ATOM     12  C   UNL     1      -0.161   1.479  24.064  0.00  0.00    +0.018 C 
ATOM     13  C   UNL     1      -0.454   0.960  24.332  0.00  0.00    +0.072 C 
ATOM     14  N   UNL     1      -1.014   0.528  25.106  0.00  0.00    -0.272 NA
ATOM     15  C   UNL     1      -1.289   1.027  25.819  0.00  0.00    +0.078 C 
ATOM     16  C   UNL     1      -0.903   1.512  25.373  0.00  0.00    +0.056 C 
ENDROOT
BRANCH  16  17
ATOM     17  C   UNL     1      -0.766   2.315  25.511  0.00  0.00    +0.058 A 
ATOM     18  C   UNL     1      -1.116   2.942  25.106  0.00  0.00    +0.031 A 
ATOM     19  C   UNL     1      -0.822   3.644  25.421  0.00  0.00    +0.079 A 
ATOM     20  N   UNL     1      -0.291   3.452  26.022  0.00  0.00    -0.174 NA
ATOM     21  N   UNL     1      -0.256   2.629  26.077  0.00  0.00    -0.253 N 
ATOM     22  C   UNL     1       0.207   2.197  26.606  0.00  0.00    +0.153 C 
BRANCH  19  23
ATOM     23  C   UNL     1      -1.024   4.407  25.180  0.00  0.00    +0.042 C 
ATOM     24  C   UNL     1      -0.543   4.922  24.750  0.00  0.00    +0.006 C 
ATOM     25  C   UNL     1      -0.964   5.622  24.630  0.00  0.00    +0.000 C 
ATOM     26  C   UNL     1      -1.703   5.540  24.986  0.00  0.00    +0.000 C 
ATOM     27  C   UNL     1      -1.741   4.789  25.326  0.00  0.00    +0.006 C 
ENDBRANCH  19  23
ENDBRANCH  16  17
BRANCH   9   8
ATOM      8  C   UNL     1      -1.406  -1.027  25.062  0.00  0.00    +0.133 C 
BRANCH   8   7
ATOM      4  N   UNL     1      -2.876  -2.282  24.046  0.00  0.00    -0.189 NA
ATOM      5  C   UNL     1      -2.484  -1.869  24.643  0.00  0.00    +0.339 C 
ATOM      6  O   UNL     1      -2.773  -1.883  25.415  0.00  0.00    -0.249 OA
ATOM      7  N   UNL     1      -1.800  -1.441  24.466  0.00  0.00    -0.186 NA
BRANCH   4   2
ATOM      1  C   UNL     1      -3.508  -3.408  24.660  0.00  0.00    +0.023 C 
ATOM      2  C   UNL     1      -3.560  -2.710  24.223  0.00  0.00    +0.097 C 
ATOM      3  C   UNL     1      -4.295  -2.440  23.963  0.00  0.00    +0.023 C 
ENDBRANCH   4   2
ENDBRANCH   8   7
ENDBRANCH   9   8
TORSDOF 5
ENDMDL
MODEL 3
REMARK VINA RESULT:      -9.5      3.849      5.131
REMARK  Name = 
REMARK  5 active torsions:
REMARK  status: ('A' for Active; 'I' for Inactive)
REMARK    1  A    between atoms: C_2  and  N_4
REMARK    2  A    between atoms: N_7  and  C_8
REMARK    3  A    between atoms: C_8  and  C_9
REMARK    4  A    between atoms: C_16  and  C_17
REMARK    5  A    between atoms: C_19  and  C_23
REMARK                            x       y       z     vdW  Elec       q    Type
REMARK                         _______ _______ _______ _____ _____    ______ ____
ROOT
ATOM      9  C   UNL     1       0.217   0.653  23.799  0.00  0.00    +0.079 C 
ATOM     10  C   UNL     1      -0.147   1.114  24.310  0.00  0.00    +0.018 C 
ATOM     11  C   UNL     1      -0.928   1.063  24.519  0.00  0.00    +0.010 C 
ATOM     12  C   UNL     1      -1.153   1.686  25.123  0.00  0.00    +0.018 C 
ATOM     13  C   UNL     1      -0.750   1.366  24.720  0.00  0.00    +0.072 C 
ATOM     14  N   UNL     1      -0.578   0.608  24.017  0.00  0.00    -0.272 NA
ATOM     15  C   UNL     1      -1.252   0.050  23.757  0.00  0.00    +0.078 C 
ATOM     16  C   UNL     1      -1.571   0.523  24.264  0.00  0.00    +0.056 C 
ENDROOT
BRANCH  16  17
ATOM     17  C   UNL     1      -2.356   0.526  24.519  0.00  0.00    +0.058 A 
ATOM     18  C   UNL     1      -2.886   1.153  24.446  0.00  0.00    +0.031 A 
ATOM     19  C   UNL     1      -3.605   0.917  24.773  0.00  0.00    +0.079 A 
ATOM     20  N   UNL     1      -3.520   0.144  25.049  0.00  0.00    -0.174 NA
ATOM     21  N   UNL     1      -2.746  -0.098  24.892  0.00  0.00    -0.253 N 
ATOM     22  C   UNL     1      -2.421  -0.834  25.075  0.00  0.00    +0.153 C 
BRANCH  19  23
ATOM     23  C   UNL     1      -4.291   1.373  24.817  0.00  0.00    +0.042 C 
ATOM     24  C   UNL     1      -4.426   2.086  24.423  0.00  0.00    +0.006 C 
ATOM     25  C   UNL     1      -5.181   2.350  24.626  0.00  0.00    +0.000 C 
ATOM     26  C   UNL     1      -5.512   1.802  25.145  0.00  0.00    +0.000 C 
ATOM     27  C   UNL     1      -4.963   1.198  25.264  0.00  0.00    +0.006 C 
ENDBRANCH  19  23
ENDBRANCH  16  17
BRANCH   9   8
ATOM      8  C   UNL     1       0.878   0.404  23.374  0.00  0.00    +0.133 C 
BRANCH   8   7
ATOM      4  N   UNL     1       2.963   0.983  23.083  0.00  0.00    -0.189 NA
ATOM      5  C   UNL     1       2.262   0.548  23.048  0.00  0.00    +0.339 C 
ATOM      6  O   UNL     1       2.245  -0.176  22.653  0.00  0.00    -0.249 OA
ATOM      7  N   UNL     1       1.579   0.838  23.409  0.00  0.00    -0.186 NA
BRANCH   4   2
ATOM      1  C   UNL     1       4.307   0.507  23.180  0.00  0.00    +0.023 C 
ATOM      2  C   UNL     1       3.646   0.693  22.723  0.00  0.00    +0.097 C 
ATOM      3  C   UNL     1       3.669   0.588  21.904  0.00  0.00    +0.023 C 
ENDBRANCH   4   2
ENDBRANCH   8   7
ENDBRANCH   9   8
TORSDOF 5
ENDMDL
MODEL 4
REMARK VINA RESULT:      -9.5      1.563      5.783
REMARK  Name = 
REMARK  5 active torsions:
REMARK  status: ('A' for Active; 'I' for Inactive)
REMARK    1  A    between atoms: C_2  and  N_4
REMARK    2  A    between atoms: N_7  and  C_8
REMARK    3  A    between atoms: C_8  and  C_9
REMARK    4  A    between atoms: C_16  and  C_17
REMARK    5  A    between atoms: C_19  and  C_23
REMARK                            x       y       z     vdW  Elec       q    Type
REMARK                         _______ _______ _______ _____ _____    ______ ____
ROOT
ATOM      9  C   UNL     1      -3.712   2.489  24.781  0.00  0.00    +0.079 C 
ATOM     10  C   UNL     1      -4.217   1.924  24.959  0.00  0.00    +0.018 C 
ATOM     11  C   UNL     1      -4.054   1.131  24.966  0.00  0.00    +0.010 C 
ATOM     12  C   UNL     1      -4.770   0.645  25.198  0.00  0.00    +0.018 C 
ATOM     13  C   UNL     1      -4.440   1.193  25.069  0.00  0.00    +0.072 C 
ATOM     14  N   UNL     1      -3.554   1.679  24.791  0.00  0.00    -0.272 NA
ATOM     15  C   UNL     1      -2.795   1.204  24.612  0.00  0.00    +0.078 C 
ATOM     16  C   UNL     1      -3.321   0.680  24.793  0.00  0.00    +0.056 C 
ENDROOT
BRANCH  16  17
ATOM     17  C   UNL     1      -3.221  -0.139  24.820  0.00  0.00    +0.058 A 
ATOM     18  C   UNL     1      -3.676  -0.696  24.417  0.00  0.00    +0.031 A 
ATOM     19  C   UNL     1      -3.385  -1.445  24.602  0.00  0.00    +0.079 A 
ATOM     20  N   UNL     1      -2.749  -1.351  25.120  0.00  0.00    -0.174 NA
ATOM     21  N   UNL     1      -2.647  -0.543  25.254  0.00  0.00    -0.253 N 
ATOM     22  C   UNL     1      -2.074  -0.200  25.738  0.00  0.00    +0.153 C 
BRANCH  19  23
ATOM     23  C   UNL     1      -3.677  -2.163  24.320  0.00  0.00    +0.042 C 
ATOM     24  C   UNL     1      -3.443  -2.914  24.571  0.00  0.00    +0.006 C 
ATOM     25  C   UNL     1      -3.876  -3.472  24.144  0.00  0.00    +0.000 C 
ATOM     26  C   UNL     1      -4.377  -3.066  23.630  0.00  0.00    +0.000 C 
ATOM     27  C   UNL     1      -4.255  -2.258  23.738  0.00  0.00    +0.006 C 
ENDBRANCH  19  23
ENDBRANCH  16  17
BRANCH   9   8
ATOM      8  C   UNL     1      -3.501   3.278  24.669  0.00  0.00    +0.133 C 
BRANCH   8   7
ATOM      4  N   UNL     1      -1.914   4.590  25.395  0.00  0.00    -0.189 NA
ATOM      5  C   UNL     1      -2.463   4.236  24.891  0.00  0.00    +0.339 C 
ATOM      6  O   UNL     1      -2.522   4.483  24.106  0.00  0.00    -0.249 OA
ATOM      7  N   UNL     1      -2.952   3.633  25.173  0.00  0.00    -0.186 NA
BRANCH   4   2
ATOM      1  C   UNL     1      -1.696   5.971  25.097  0.00  0.00    +0.023 C 
ATOM      2  C   UNL     1      -1.424   5.193  25.113  0.00  0.00    +0.097 C 
ATOM      3  C   UNL     1      -0.664   5.015  24.846  0.00  0.00    +0.023 C 
ENDBRANCH   4   2
ENDBRANCH   8   7
ENDBRANCH   9   8
TORSDOF 5
ENDMDL
MODEL 5
REMARK VINA RESULT:      -9.1      2.513      6.100
REMARK  Name = 
REMARK  5 active torsions:
REMARK  status: ('A' for Active; 'I' for Inactive)
REMARK    1  A    between atoms: C_2  and  N_4
REMARK    2  A    between atoms: N_7  and  C_8
REMARK    3  A    between atoms: C_8  and  C_9
REMARK    4  A    between atoms: C_16  and  C_17
REMARK    5  A    between atoms: C_19  and  C_23
REMARK                            x       y       z     vdW  Elec       q    Type
REMARK                         _______ _______ _______ _____ _____    ______ ____
ROOT
ATOM      9  C   UNL     1      -0.362   1.630  24.630  0.00  0.00    +0.079 C 
ATOM     10  C   UNL     1      -0.340   1.038  24.126  0.00  0.00    +0.018 C 
ATOM     11  C   UNL     1      -0.723   0.330  24.214  0.00  0.00    +0.010 C 
ATOM     12  C   UNL     1      -0.570  -0.220  23.522  0.00  0.00    +0.018 C 
ATOM     13  C   UNL     1      -0.516   0.333  23.866  0.00  0.00    +0.072 C 
ATOM     14  N   UNL     1      -0.749   0.906  24.713  0.00  0.00    -0.272 NA
ATOM     15  C   UNL     1      -1.290   0.574  25.368  0.00  0.00    +0.078 C 
ATOM     16  C   UNL     1      -1.243   0.017  24.847  0.00  0.00    +0.056 C 
ENDROOT
BRANCH  16  17
ATOM     17  C   UNL     1      -1.605  -0.725  24.875  0.00  0.00    +0.058 A 
ATOM     18  C   UNL     1      -2.313  -0.932  24.507  0.00  0.00    +0.031 A 
ATOM     19  C   UNL     1      -2.468  -1.723  24.680  0.00  0.00    +0.079 A 
ATOM     20  N   UNL     1      -1.856  -2.005  25.156  0.00  0.00    -0.174 NA
ATOM     21  N   UNL     1      -1.322  -1.387  25.277  0.00  0.00    -0.253 N 
ATOM     22  C   UNL     1      -0.628  -1.426  25.721  0.00  0.00    +0.153 C 
BRANCH  19  23
ATOM     23  C   UNL     1      -3.121  -2.157  24.423  0.00  0.00    +0.042 C 
ATOM     24  C   UNL     1      -3.205  -2.977  24.467  0.00  0.00    +0.006 C 
ATOM     25  C   UNL     1      -3.941  -3.175  24.148  0.00  0.00    +0.000 C 
ATOM     26  C   UNL     1      -4.310  -2.477  23.908  0.00  0.00    +0.000 C 
ATOM     27  C   UNL     1      -3.805  -1.849  24.077  0.00  0.00    +0.006 C 
ENDBRANCH  19  23
ENDBRANCH  16  17
BRANCH   9   8
ATOM      8  C   UNL     1      -0.159   2.388  24.885  0.00  0.00    +0.133 C 
BRANCH   8   7
ATOM      4  N   UNL     1      -0.934   4.390  24.485  0.00  0.00    -0.189 NA
ATOM      5  C   UNL     1      -0.654   3.729  24.893  0.00  0.00    +0.339 C 
ATOM      6  O   UNL     1      -0.587   3.749  25.715  0.00  0.00    -0.249 OA
ATOM      7  N   UNL     1      -0.439   3.049  24.477  0.00  0.00    -0.186 NA
BRANCH   4   2
ATOM      1  C   UNL     1      -0.666   5.738  24.874  0.00  0.00    +0.023 C 
ATOM      2  C   UNL     1      -1.148   5.070  24.901  0.00  0.00    +0.097 C 
ATOM      3  C   UNL     1      -1.845   5.081  25.343  0.00  0.00    +0.023 C 
ENDBRANCH   4   2
ENDBRANCH   8   7
ENDBRANCH   9   8
TORSDOF 5
ENDMDL
