MODEL 1
REMARK VINA RESULT:     -15.6      0.000      0.000
REMARK  Name = 
REMARK  3 active torsions:
REMARK  status: ('A' for Active; 'I' for Inactive)
REMARK    1  A    between atoms: C_5  and  C_8
REMARK    2  A    between atoms: C_19  and  N_20
REMARK    3  A    between atoms: C_21  and  C_23
REMARK                            x       y       z     vdW  Elec       q    Type
REMARK                         _______ _______ _______ _____ _____    ______ ____
ROOT
ATOM      8  C   UNL     1      -2.058  -0.555  25.300  0.00  0.00    +0.249 C 
ATOM      9  O   UNL     1      -1.316  -0.719  25.734  0.00  0.00    -0.270 OA
ATOM     10  N   UNL     1      -2.359  -1.324  25.157  0.00  0.00    -0.276 N 
ATOM     11  C   UNL     1      -2.287  -2.153  25.231  0.00  0.00    +0.096 C 
ATOM     12  C   UNL     1      -3.113  -2.433  24.766  0.00  0.00    +0.043 C 
ATOM     13  C   UNL     1      -3.740  -2.821  24.420  0.00  0.00    +0.011 C 
ATOM     14  C   UNL     1      -3.529  -2.159  24.516  0.00  0.00    +0.058 C 
ATOM     15  C   UNL     1      -2.727  -1.904  24.968  0.00  0.00    +0.099 C 
ATOM     16  C   UNL     1      -3.775  -1.291  24.339  0.00  0.00    +0.041 A 
ATOM     17  C   UNL     1      -4.374  -0.857  23.976  0.00  0.00    +0.014 A 
ATOM     18  C   UNL     1      -4.337  -0.033  23.964  0.00  0.00    +0.023 A 
ATOM     19  C   UNL     1      -3.701   0.357  24.316  0.00  0.00    +0.130 A 
ATOM     28  C   UNL     1      -3.101  -0.077  24.679  0.00  0.00    +0.276 A 
ATOM     29  O   UNL     1      -2.220   0.161  25.177  0.00  0.00    -0.266 OA
ATOM     30  N   UNL     1      -3.138  -0.901  24.691  0.00  0.00    -0.298 N 
ATOM     31  C   UNL     1      -3.362  -1.524  24.587  0.00  0.00    +0.110 C 
ENDROOT
BRANCH   8   5
ATOM      1  F   UNL     1      -4.652   1.956  23.783  0.00  0.00    -0.204 F 
ATOM      2  C   UNL     1      -3.940   1.338  24.104  0.00  0.00    +0.140 A 
ATOM      3  C   UNL     1      -4.004   0.822  24.841  0.00  0.00    +0.030 A 
ATOM      4  C   UNL     1      -3.415   0.212  25.238  0.00  0.00    +0.007 A 
ATOM      5  C   UNL     1      -2.670   0.052  24.923  0.00  0.00    +0.054 A 
ATOM      6  C   UNL     1      -2.421   0.432  24.235  0.00  0.00    +0.007 A 
ATOM      7  C   UNL     1      -2.918   0.975  23.861  0.00  0.00    +0.030 A 
ENDBRANCH   8   5
BRANCH  19  20
ATOM     20  N   UNL     1      -3.551   1.212  24.368  0.00  0.00    -0.170 NA
ATOM     21  C   UNL     1      -4.335   1.450  24.914  0.00  0.00    +0.275 C 
ATOM     22  O   UNL     1      -5.118   1.201  25.374  0.00  0.00    -0.267 OA
BRANCH  21  23
ATOM     23  C   UNL     1      -4.205   2.371  24.991  0.00  0.00    +0.085 A 
ATOM     24  C   UNL     1      -4.454   2.764  25.671  0.00  0.00    +0.012 A 
ATOM     25  C   UNL     1      -4.270   3.564  25.586  0.00  0.00    +0.008 A 
ATOM     26  C   UNL     1      -3.907   3.665  24.852  0.00  0.00    +0.036 A 
ATOM     27  S   UNL     1      -3.867   2.927  24.484  0.00  0.00    -0.082 S 
ENDBRANCH  21  23
ENDBRANCH  19  20
TORSDOF 3
ENDMDL
MODEL 2
REMARK VINA RESULT:     -15.6      1.412      3.677
REMARK  Name = 
REMARK  3 active torsions:
REMARK  status: ('A' for Active; 'I' for Inactive)
REMARK    1  A    between atoms: C_5  and  C_8
REMARK    2  A    between atoms: C_19  and  N_20
REMARK    3  A    between atoms: C_21  and  C_23
REMARK                            x       y       z     vdW  Elec       q    Type
REMARK                         _______ _______ _______ _____ _____    ______ ____
ROOT
ATOM      8  C   UNL     1      -2.288   1.972  24.552  0.00  0.00    +0.249 C 
ATOM      9  O   UNL     1      -1.471   2.280  24.502  0.00  0.00    -0.270 OA
ATOM     10  N   UNL     1      -2.720   2.640  24.815  0.00  0.00    -0.276 N 
ATOM     11  C   UNL     1      -2.738   3.443  25.046  0.00  0.00    +0.096 C 
ATOM     12  C   UNL     1      -3.703   3.538  25.236  0.00  0.00    +0.043 C 
ATOM     13  C   UNL     1      -4.457   3.777  25.431  0.00  0.00    +0.011 C 
ATOM     14  C   UNL     1      -4.140   3.192  25.211  0.00  0.00    +0.058 C 
ATOM     15  C   UNL     1      -3.205   3.115  25.032  0.00  0.00    +0.099 C 
ATOM     16  C   UNL     1      -4.313   2.316  24.991  0.00  0.00    +0.041 A 
ATOM     17  C   UNL     1      -4.938   1.780  24.944  0.00  0.00    +0.014 A 
ATOM     18  C   UNL     1      -4.797   1.004  24.700  0.00  0.00    +0.023 A 
ATOM     19  C   UNL     1      -4.032   0.765  24.503  0.00  0.00    +0.130 A 
ATOM     28  C   UNL     1      -3.408   1.302  24.550  0.00  0.00    +0.276 A 
ATOM     29  O   UNL     1      -2.386   1.258  24.366  0.00  0.00    -0.266 OA
ATOM     30  N   UNL     1      -3.548   2.077  24.795  0.00  0.00    -0.298 N 
ATOM     31  C   UNL     1      -3.875   2.622  25.005  0.00  0.00    +0.110 C 
ENDROOT
BRANCH   8   5
ATOM      1  F   UNL     1      -4.864  -0.959  24.225  0.00  0.00    -0.204 F 
ATOM      2  C   UNL     1      -4.206  -0.212  24.223  0.00  0.00    +0.140 A 
ATOM      3  C   UNL     1      -3.874   0.179  24.964  0.00  0.00    +0.030 A 
ATOM      4  C   UNL     1      -3.261   0.877  25.089  0.00  0.00    +0.007 A 
ATOM      5  C   UNL     1      -2.906   1.269  24.456  0.00  0.00    +0.054 A 
ATOM      6  C   UNL     1      -3.085   1.051  23.681  0.00  0.00    +0.007 A 
ATOM      7  C   UNL     1      -3.621   0.440  23.539  0.00  0.00    +0.030 A 
ENDBRANCH   8   5
BRANCH  19  20
ATOM     20  N   UNL     1      -3.760  -0.016  24.235  0.00  0.00    -0.170 NA
ATOM     21  C   UNL     1      -3.941  -0.510  25.067  0.00  0.00    +0.275 C 
ATOM     22  O   UNL     1      -4.249  -0.530  25.957  0.00  0.00    -0.267 OA
BRANCH  21  23
ATOM     23  C   UNL     1      -3.658  -1.363  24.813  0.00  0.00    +0.085 A 
ATOM     24  C   UNL     1      -3.157  -1.792  25.308  0.00  0.00    +0.012 A 
ATOM     25  C   UNL     1      -3.001  -2.517  24.946  0.00  0.00    +0.008 A 
ATOM     26  C   UNL     1      -3.406  -2.535  24.228  0.00  0.00    +0.036 A 
ATOM     27  S   UNL     1      -3.812  -1.822  24.146  0.00  0.00    -0.082 S 
ENDBRANCH  21  23
ENDBRANCH  19  20
TORSDOF 3
ENDMDL
MODEL 3
REMARK VINA RESULT:     -14.8      1.835      4.272
REMARK  Name = 
REMARK  3 active torsions:
REMARK  status: ('A' for Active; 'I' for Inactive)
REMARK    1  A    between atoms: C_5  and  C_8
REMARK    2  A    between atoms: C_19  and  N_20
REMARK    3  A    between atoms: C_21  and  C_23
REMARK                            x       y       z     vdW  Elec       q    Type
REMARK                         _______ _______ _______ _____ _____    ______ ____
ROOT
ATOM      8  C   UNL     1      -3.580   3.431  25.453  0.00  0.00    +0.249 C 
ATOM      9  O   UNL     1      -4.177   3.887  25.902  0.00  0.00    -0.270 OA
ATOM     10  N   UNL     1      -2.915   3.940  25.464  0.00  0.00    -0.276 N 
ATOM     11  C   UNL     1      -2.560   4.660  25.696  0.00  0.00    +0.096 C 
ATOM     12  C   UNL     1      -1.662   4.537  25.303  0.00  0.00    +0.043 C 
ATOM     13  C   UNL     1      -0.891   4.589  25.045  0.00  0.00    +0.011 C 
ATOM     14  C   UNL     1      -1.420   4.129  25.009  0.00  0.00    +0.058 C 
ATOM     15  C   UNL     1      -2.284   4.263  25.394  0.00  0.00    +0.099 C 
ATOM     16  C   UNL     1      -1.635   3.302  24.672  0.00  0.00    +0.041 A 
ATOM     17  C   UNL     1      -1.305   2.682  24.239  0.00  0.00    +0.014 A 
ATOM     18  C   UNL     1      -1.757   2.012  24.069  0.00  0.00    +0.023 A 
ATOM     19  C   UNL     1      -2.538   1.963  24.331  0.00  0.00    +0.130 A 
ATOM     28  C   UNL     1      -2.867   2.583  24.764  0.00  0.00    +0.276 A 
ATOM     29  O   UNL     1      -3.794   2.766  25.197  0.00  0.00    -0.266 OA
ATOM     30  N   UNL     1      -2.415   3.252  24.935  0.00  0.00    -0.298 N 
ATOM     31  C   UNL     1      -1.895   3.673  24.954  0.00  0.00    +0.110 C 
ENDROOT
BRANCH   8   5
ATOM      1  F   UNL     1      -2.485   0.211  23.512  0.00  0.00    -0.204 F 
ATOM      2  C   UNL     1      -2.812   1.050  23.938  0.00  0.00    +0.140 A 
ATOM      3  C   UNL     1      -2.569   1.335  24.758  0.00  0.00    +0.030 A 
ATOM      4  C   UNL     1      -2.804   2.092  25.258  0.00  0.00    +0.007 A 
ATOM      5  C   UNL     1      -3.327   2.662  24.973  0.00  0.00    +0.054 A 
ATOM      6  C   UNL     1      -3.664   2.578  24.226  0.00  0.00    +0.007 A 
ATOM      7  C   UNL     1      -3.477   1.922  23.761  0.00  0.00    +0.030 A 
ENDBRANCH   8   5
BRANCH  19  20
ATOM     20  N   UNL     1      -3.108   1.317  24.217  0.00  0.00    -0.170 NA
ATOM     21  C   UNL     1      -2.647   0.636  24.757  0.00  0.00    +0.275 C 
ATOM     22  O   UNL     1      -1.924   0.376  25.304  0.00  0.00    -0.267 OA
BRANCH  21  23
ATOM     23  C   UNL     1      -3.237  -0.079  24.656  0.00  0.00    +0.085 A 
ATOM     24  C   UNL     1      -3.391  -0.577  25.295  0.00  0.00    +0.012 A 
ATOM     25  C   UNL     1      -3.927  -1.153  25.047  0.00  0.00    +0.008 A 
ATOM     26  C   UNL     1      -4.104  -1.010  24.254  0.00  0.00    +0.036 A 
ATOM     27  S   UNL     1      -3.678  -0.346  24.012  0.00  0.00    -0.082 S 
ENDBRANCH  21  23
ENDBRANCH  19  20
TORSDOF 3
ENDMDL
MODEL 4
REMARK VINA RESULT:     -14.7      1.973      3.646
REMARK  Name = 
REMARK  3 active torsions:
REMARK  status: ('A' for Active; 'I' for Inactive)
REMARK    1  A    between atoms: C_5  and  C_8
REMARK    2  A    between atoms: C_19  and  N_20
REMARK    3  A    between atoms: C_21  and  C_23
REMARK                            x       y       z     vdW  Elec       q    Type
REMARK                         _______ _______ _______ _____ _____    ______ ____
ROOT
ATOM      8  C   UNL     1      -3.888   3.243  24.586  0.00  0.00    +0.249 C 
ATOM      9  O   UNL     1      -3.970   4.114  24.603  0.00  0.00    -0.270 OA
ATOM     10  N   UNL     1      -4.624   2.984  24.892  0.00  0.00    -0.276 N 
ATOM     11  C   UNL     1      -5.381   3.160  25.199  0.00  0.00    +0.096 C 
ATOM     12  C   UNL     1      -5.715   2.243  25.353  0.00  0.00    +0.043 C 
ATOM     13  C   UNL     1      -6.130   1.567  25.535  0.00  0.00    +0.011 C 
ATOM     14  C   UNL     1      -5.500   1.735  25.274  0.00  0.00    +0.058 C 
ATOM     15  C   UNL     1      -5.192   2.627  25.131  0.00  0.00    +0.099 C 
ATOM     16  C   UNL     1      -4.724   1.353  24.964  0.00  0.00    +0.041 A 
ATOM     17  C   UNL     1      -4.379   0.615  24.836  0.00  0.00    +0.014 A 
ATOM     18  C   UNL     1      -3.617   0.564  24.525  0.00  0.00    +0.023 A 
ATOM     19  C   UNL     1      -3.200   1.252  24.341  0.00  0.00    +0.130 A 
ATOM     28  C   UNL     1      -3.544   1.990  24.468  0.00  0.00    +0.276 A 
ATOM     29  O   UNL     1      -3.244   2.975  24.327  0.00  0.00    -0.266 OA
ATOM     30  N   UNL     1      -4.306   2.041  24.780  0.00  0.00    -0.298 N 
ATOM     31  C   UNL     1      -4.900   1.854  25.026  0.00  0.00    +0.110 C 
ENDROOT
BRANCH   8   5
ATOM      1  F   UNL     1      -1.788   0.018  23.860  0.00  0.00    -0.204 F 
ATOM      2  C   UNL     1      -2.330   0.847  23.960  0.00  0.00    +0.140 A 
ATOM      3  C   UNL     1      -2.557   1.219  24.750  0.00  0.00    +0.030 A 
ATOM      4  C   UNL     1      -3.053   1.982  24.969  0.00  0.00    +0.007 A 
ATOM      5  C   UNL     1      -3.386   2.471  24.394  0.00  0.00    +0.054 A 
ATOM      6  C   UNL     1      -3.287   2.295  23.595  0.00  0.00    +0.007 A 
ATOM      7  C   UNL     1      -2.855   1.629  23.369  0.00  0.00    +0.030 A 
ENDBRANCH   8   5
BRANCH  19  20
ATOM     20  N   UNL     1      -2.398   1.327  24.011  0.00  0.00    -0.170 NA
ATOM     21  C   UNL     1      -1.904   0.965  24.782  0.00  0.00    +0.275 C 
ATOM     22  O   UNL     1      -1.896   0.601  25.651  0.00  0.00    -0.267 OA
BRANCH  21  23
ATOM     23  C   UNL     1      -1.031   1.032  24.461  0.00  0.00    +0.085 A 
ATOM     24  C   UNL     1      -0.472   1.466  24.882  0.00  0.00    +0.012 A 
ATOM     25  C   UNL     1       0.244   1.429  24.472  0.00  0.00    +0.008 A 
ATOM     26  C   UNL     1       0.125   0.970  23.796  0.00  0.00    +0.036 A 
ATOM     27  S   UNL     1      -0.663   0.725  23.789  0.00  0.00    -0.082 S 
ENDBRANCH  21  23
ENDBRANCH  19  20
TORSDOF 3
ENDMDL
