MODEL 1
REMARK VINA RESULT:     -11.9      0.000      0.000
REMARK  Name = 
REMARK  8 active torsions:
REMARK  status: ('A' for Active; 'I' for Inactive)
REMARK    1  A    between atoms: N_4  and  C_5
REMARK    2  A    between atoms: C_8  and  S_11
REMARK    3  A    between atoms: S_11  and  N_14
REMARK    4  A    between atoms: N_14  and  C_15
REMARK    5  A    between atoms: C_19  and  N_23
REMARK    6  A    between atoms: C_27  and  O_28
REMARK    7  A    between atoms: O_28  and  C_29
REMARK    8  A    between atoms: C_33  and  N_35
REMARK                            x       y       z     vdW  Elec       q    Type
REMARK                         _______ _______ _______ _____ _____    ______ ____
ROOT
ATOM     15  C   UNL     1      -0.512   0.968  24.853  0.00  0.00    +0.157 C 
ATOM     16  C   UNL     1      -0.804   1.239  24.131  0.00  0.00    +0.164 C 
ATOM     17  O   UNL     1      -0.936   2.050  24.197  0.00  0.00    -0.350 OA
ATOM     18  C   UNL     1      -0.726   2.281  24.960  0.00  0.00    +0.169 C 
ATOM     19  C   UNL     1      -0.678   2.925  25.474  0.00  0.00    +0.170 C 
ATOM     20  C   UNL     1      -0.386   2.655  26.196  0.00  0.00    +0.169 C 
ATOM     21  O   UNL     1      -0.254   1.843  26.130  0.00  0.00    -0.350 OA
ATOM     22  C   UNL     1      -0.464   1.612  25.366  0.00  0.00    +0.164 C 
ENDROOT
BRANCH  19  23
ATOM     23  N   UNL     1      -0.885   3.704  25.295  0.00  0.00    -0.180 N 
ATOM     24  N   UNL     1      -0.450   4.227  24.827  0.00  0.00    -0.040 NA
ATOM     25  N   UNL     1      -0.860   4.942  24.797  0.00  0.00    -0.020 NA
ATOM     26  N   UNL     1      -1.547   4.862  25.245  0.00  0.00    -0.071 NA
ATOM     27  C   UNL     1      -1.562   4.096  25.553  0.00  0.00    +0.343 A 
BRANCH  27  28
ATOM     28  O   UNL     1      -2.153   3.780  26.035  0.00  0.00    -0.421 OA
BRANCH  28  29
ATOM     29  C   UNL     1      -2.948   3.897  25.845  0.00  0.00    +0.150 A 
ATOM     30  C   UNL     1      -3.264   4.658  25.845  0.00  0.00    +0.038 A 
ATOM     31  C   UNL     1      -4.058   4.775  25.656  0.00  0.00    +0.004 A 
ATOM     32  C   UNL     1      -4.536   4.130  25.466  0.00  0.00    +0.015 A 
ATOM     33  C   UNL     1      -4.219   3.368  25.466  0.00  0.00    +0.051 A 
ATOM     34  C   UNL     1      -3.425   3.251  25.656  0.00  0.00    +0.052 A 
BRANCH  33  35
ATOM     35  N   UNL     1      -4.697   2.722  25.276  0.00  0.00    -0.303 N 
ATOM     36  C   UNL     1      -5.466   2.677  25.573  0.00  0.00    +0.123 C 
ATOM     37  C   UNL     1      -5.943   2.032  25.383  0.00  0.00    +0.164 C 
ATOM     38  O   UNL     1      -5.653   1.432  24.897  0.00  0.00    -0.350 OA
ATOM     39  C   UNL     1      -4.884   1.478  24.601  0.00  0.00    +0.164 C 
ATOM     40  C   UNL     1      -4.406   2.123  24.790  0.00  0.00    +0.123 C 
ENDBRANCH  33  35
ENDBRANCH  28  29
ENDBRANCH  27  28
ENDBRANCH  19  23
BRANCH  15  14
ATOM     14  N   UNL     1      -0.305   0.190  25.032  0.00  0.00    -0.074 NA
BRANCH  14  11
ATOM     11  S   UNL     1      -0.860  -0.415  24.948  0.00  0.00    +0.077 S 
ATOM     12  O   UNL     1      -1.045  -0.358  25.750  0.00  0.00    -0.152 OA
ATOM     13  O   UNL     1      -0.677  -0.473  24.146  0.00  0.00    -0.152 OA
BRANCH  11   8
ATOM      5  C   UNL     1      -2.526  -2.228  24.694  0.00  0.00    +0.073 A 
ATOM      6  C   UNL     1      -1.813  -2.262  24.281  0.00  0.00    +0.018 A 
ATOM      7  C   UNL     1      -1.258  -1.658  24.366  0.00  0.00    +0.021 A 
ATOM      8  C   UNL     1      -1.415  -1.019  24.863  0.00  0.00    +0.124 A 
ATOM      9  C   UNL     1      -2.129  -0.985  25.277  0.00  0.00    +0.021 A 
ATOM     10  C   UNL     1      -2.684  -1.589  25.192  0.00  0.00    +0.018 A 
BRANCH   5   4
ATOM      1  C   UNL     1      -4.312  -3.316  24.068  0.00  0.00    +0.097 C 
ATOM      2  C   UNL     1      -3.756  -2.711  24.152  0.00  0.00    +0.246 C 
ATOM      3  O   UNL     1      -3.876  -1.986  23.778  0.00  0.00    -0.273 OA
ATOM      4  N   UNL     1      -3.082  -2.832  24.610  0.00  0.00    -0.179 NA
ENDBRANCH   5   4
ENDBRANCH  11   8
ENDBRANCH  14  11
ENDBRANCH  15  14
TORSDOF 8
ENDMDL
MODEL 2
REMARK VINA RESULT:     -10.7      1.590      6.054
REMARK  Name = 
REMARK  8 active torsions:
REMARK  status: ('A' for Active; 'I' for Inactive)
REMARK    1  A    between atoms: N_4  and  C_5
REMARK    2  A    between atoms: C_8  and  S_11
REMARK    3  A    between atoms: S_11  and  N_14
REMARK    4  A    between atoms: N_14  and  C_15
REMARK    5  A    between atoms: C_19  and  N_23
REMARK    6  A    between atoms: C_27  and  O_28
REMARK    7  A    between atoms: O_28  and  C_29
REMARK    8  A    between atoms: C_33  and  N_35
REMARK                            x       y       z     vdW  Elec       q    Type
REMARK                         _______ _______ _______ _____ _____    ______ ____
ROOT
ATOM     15  C   UNL     1      -4.375   1.373  24.561  0.00  0.00    +0.157 C 
ATOM     16  C   UNL     1      -4.068   1.246  23.806  0.00  0.00    +0.164 C 
ATOM     17  O   UNL     1      -3.913   0.439  23.727  0.00  0.00    -0.350 OA
ATOM     18  C   UNL     1      -4.124   0.069  24.432  0.00  0.00    +0.169 C 
ATOM     19  C   UNL     1      -4.160  -0.659  24.821  0.00  0.00    +0.170 C 
ATOM     20  C   UNL     1      -4.467  -0.531  25.575  0.00  0.00    +0.169 C 
ATOM     21  O   UNL     1      -4.622   0.275  25.654  0.00  0.00    -0.350 OA
ATOM     22  C   UNL     1      -4.410   0.646  24.948  0.00  0.00    +0.164 C 
ENDROOT
BRANCH  19  23
ATOM     23  N   UNL     1      -3.928  -1.386  24.508  0.00  0.00    -0.180 N 
ATOM     24  N   UNL     1      -4.336  -1.822  23.939  0.00  0.00    -0.040 NA
ATOM     25  N   UNL     1      -3.908  -2.511  23.789  0.00  0.00    -0.020 NA
ATOM     26  N   UNL     1      -3.235  -2.501  24.265  0.00  0.00    -0.071 NA
ATOM     27  C   UNL     1      -3.247  -1.806  24.709  0.00  0.00    +0.343 A 
BRANCH  27  28
ATOM     28  O   UNL     1      -2.678  -1.572  25.259  0.00  0.00    -0.421 OA
BRANCH  28  29
ATOM     29  C   UNL     1      -1.876  -1.629  25.073  0.00  0.00    +0.150 A 
ATOM     30  C   UNL     1      -1.471  -2.334  25.205  0.00  0.00    +0.038 A 
ATOM     31  C   UNL     1      -0.669  -2.391  25.019  0.00  0.00    +0.004 A 
ATOM     32  C   UNL     1      -0.273  -1.742  24.699  0.00  0.00    +0.015 A 
ATOM     33  C   UNL     1      -0.679  -1.035  24.567  0.00  0.00    +0.051 A 
ATOM     34  C   UNL     1      -1.480  -0.979  24.754  0.00  0.00    +0.052 A 
BRANCH  33  35
ATOM     35  N   UNL     1      -0.283  -0.385  24.248  0.00  0.00    -0.303 N 
ATOM     36  C   UNL     1       0.221  -0.486  23.602  0.00  0.00    +0.123 C 
ATOM     37  C   UNL     1       0.617   0.163  23.283  0.00  0.00    +0.164 C 
ATOM     38  O   UNL     1       0.509   0.913  23.609  0.00  0.00    -0.350 OA
ATOM     39  C   UNL     1       0.005   1.014  24.255  0.00  0.00    +0.164 C 
ATOM     40  C   UNL     1      -0.391   0.364  24.574  0.00  0.00    +0.123 C 
ENDBRANCH  33  35
ENDBRANCH  28  29
ENDBRANCH  27  28
ENDBRANCH  19  23
BRANCH  15  14
ATOM     14  N   UNL     1      -4.607   2.101  24.873  0.00  0.00    -0.074 NA
BRANCH  14  11
ATOM     11  S   UNL     1      -4.060   2.716  24.937  0.00  0.00    +0.077 S 
ATOM     12  O   UNL     1      -4.119   2.853  24.126  0.00  0.00    -0.152 OA
ATOM     13  O   UNL     1      -4.000   2.579  25.748  0.00  0.00    -0.152 OA
BRANCH  11   8
ATOM      5  C   UNL     1      -2.421   4.560  25.129  0.00  0.00    +0.073 A 
ATOM      6  C   UNL     1      -2.482   3.999  25.730  0.00  0.00    +0.018 A 
ATOM      7  C   UNL     1      -3.029   3.384  25.666  0.00  0.00    +0.021 A 
ATOM      8  C   UNL     1      -3.514   3.330  25.001  0.00  0.00    +0.124 A 
ATOM      9  C   UNL     1      -3.453   3.893  24.400  0.00  0.00    +0.021 A 
ATOM     10  C   UNL     1      -2.907   4.507  24.464  0.00  0.00    +0.018 A 
BRANCH   5   4
ATOM      1  C   UNL     1      -0.556   5.686  24.989  0.00  0.00    +0.097 C 
ATOM      2  C   UNL     1      -1.102   5.071  24.925  0.00  0.00    +0.246 C 
ATOM      3  O   UNL     1      -0.875   4.350  24.594  0.00  0.00    -0.273 OA
ATOM      4  N   UNL     1      -1.875   5.175  25.193  0.00  0.00    -0.179 NA
ENDBRANCH   5   4
ENDBRANCH  11   8
ENDBRANCH  14  11
ENDBRANCH  15  14
TORSDOF 8
ENDMDL
MODEL 3
REMARK VINA RESULT:     -10.7      1.355      4.840
REMARK  Name = 
REMARK  8 active torsions:
REMARK  status: ('A' for Active; 'I' for Inactive)
REMARK    1  A    between atoms: N_4  and  C_5
REMARK    2  A    between atoms: C_8  and  S_11
REMARK    3  A    between atoms: S_11  and  N_14
REMARK    4  A    between atoms: N_14  and  C_15
REMARK    5  A    between atoms: C_19  and  N_23
REMARK    6  A    between atoms: C_27  and  O_28
REMARK    7  A    between atoms: O_28  and  C_29
REMARK    8  A    between atoms: C_33  and  N_35
REMARK                            x       y       z     vdW  Elec       q    Type
REMARK                         _______ _______ _______ _____ _____    ______ ____
ROOT
ATOM     15  C   UNL     1      -1.723   2.634  23.900  0.00  0.00    +0.157 C 
ATOM     16  C   UNL     1      -1.953   2.206  23.233  0.00  0.00    +0.164 C 
ATOM     17  O   UNL     1      -1.440   1.565  23.153  0.00  0.00    -0.350 OA
ATOM     18  C   UNL     1      -0.894   1.597  23.769  0.00  0.00    +0.169 C 
ATOM     19  C   UNL     1      -0.239   1.221  24.101  0.00  0.00    +0.170 C 
ATOM     20  C   UNL     1      -0.009   1.648  24.768  0.00  0.00    +0.169 C 
ATOM     21  O   UNL     1      -0.522   2.289  24.848  0.00  0.00    -0.350 OA
ATOM     22  C   UNL     1      -1.069   2.257  24.231  0.00  0.00    +0.164 C 
ENDROOT
BRANCH  19  23
ATOM     23  N   UNL     1       0.123   0.536  23.816  0.00  0.00    -0.180 N 
ATOM     24  N   UNL     1       0.628   0.489  23.164  0.00  0.00    -0.040 NA
ATOM     25  N   UNL     1       0.859  -0.298  23.078  0.00  0.00    -0.020 NA
ATOM     26  N   UNL     1       0.499  -0.737  23.675  0.00  0.00    -0.071 NA
ATOM     27  C   UNL     1       0.043  -0.222  24.131  0.00  0.00    +0.343 A 
BRANCH  27  28
ATOM     28  O   UNL     1      -0.412  -0.429  24.788  0.00  0.00    -0.421 OA
BRANCH  28  29
ATOM     29  C   UNL     1      -0.836  -1.137  24.790  0.00  0.00    +0.150 A 
ATOM     30  C   UNL     1      -0.456  -1.844  24.979  0.00  0.00    +0.038 A 
ATOM     31  C   UNL     1      -0.878  -2.552  24.982  0.00  0.00    +0.004 A 
ATOM     32  C   UNL     1      -1.682  -2.553  24.794  0.00  0.00    +0.015 A 
ATOM     33  C   UNL     1      -2.063  -1.845  24.604  0.00  0.00    +0.051 A 
ATOM     34  C   UNL     1      -1.639  -1.138  24.602  0.00  0.00    +0.052 A 
BRANCH  33  35
ATOM     35  N   UNL     1      -2.866  -1.846  24.416  0.00  0.00    -0.303 N 
ATOM     36  C   UNL     1      -3.291  -1.139  24.426  0.00  0.00    +0.123 C 
ATOM     37  C   UNL     1      -4.095  -1.139  24.238  0.00  0.00    +0.164 C 
ATOM     38  O   UNL     1      -4.472  -1.845  24.041  0.00  0.00    -0.350 OA
ATOM     39  C   UNL     1      -4.046  -2.552  24.032  0.00  0.00    +0.164 C 
ATOM     40  C   UNL     1      -3.243  -2.552  24.220  0.00  0.00    +0.123 C 
ENDBRANCH  33  35
ENDBRANCH  28  29
ENDBRANCH  27  28
ENDBRANCH  19  23
BRANCH  15  14
ATOM     14  N   UNL     1      -2.085   3.319  24.185  0.00  0.00    -0.074 NA
BRANCH  14  11
ATOM     11  S   UNL     1      -2.833   3.277  24.531  0.00  0.00    +0.077 S 
ATOM     12  O   UNL     1      -3.172   3.176  23.786  0.00  0.00    -0.152 OA
ATOM     13  O   UNL     1      -2.494   3.379  25.276  0.00  0.00    -0.152 OA
BRANCH  11   8
ATOM      5  C   UNL     1      -5.075   3.154  25.572  0.00  0.00    +0.073 A 
ATOM      6  C   UNL     1      -4.970   2.916  24.790  0.00  0.00    +0.018 A 
ATOM      7  C   UNL     1      -4.222   2.957  24.442  0.00  0.00    +0.021 A 
ATOM      8  C   UNL     1      -3.580   3.236  24.878  0.00  0.00    +0.124 A 
ATOM      9  C   UNL     1      -3.685   3.475  25.661  0.00  0.00    +0.021 A 
ATOM     10  C   UNL     1      -4.432   3.433  26.007  0.00  0.00    +0.018 A 
BRANCH   5   4
ATOM      1  C   UNL     1      -6.880   2.342  26.492  0.00  0.00    +0.097 C 
ATOM      2  C   UNL     1      -6.133   2.383  26.144  0.00  0.00    +0.246 C 
ATOM      3  O   UNL     1      -5.697   1.694  26.022  0.00  0.00    -0.273 OA
ATOM      4  N   UNL     1      -5.822   3.113  25.919  0.00  0.00    -0.179 NA
ENDBRANCH   5   4
ENDBRANCH  11   8
ENDBRANCH  14  11
ENDBRANCH  15  14
TORSDOF 8
ENDMDL
MODEL 4
REMARK VINA RESULT:     -10.3      3.077      4.998
REMARK  Name = 
REMARK  8 active torsions:
REMARK  status: ('A' for Active; 'I' for Inactive)
REMARK    1  A    between atoms: N_4  and  C_5
REMARK    2  A    between atoms: C_8  and  S_11
REMARK    3  A    between atoms: S_11  and  N_14
REMARK    4  A    between atoms: N_14  and  C_15
REMARK    5  A    between atoms: C_19  and  N_23
REMARK    6  A    between atoms: C_27  and  O_28
REMARK    7  A    between atoms: O_28  and  C_29
REMARK    8  A    between atoms: C_33  and  N_35
REMARK                            x       y       z     vdW  Elec       q    Type
REMARK                         _______ _______ _______ _____ _____    ______ ____
ROOT
ATOM     15  C   UNL     1       0.603   0.241  23.337  0.00  0.00    +0.157 C 
ATOM     16  C   UNL     1       0.602   0.835  23.909  0.00  0.00    +0.164 C 
ATOM     17  O   UNL     1       0.038   0.639  24.477  0.00  0.00    -0.350 OA
ATOM     18  C   UNL     1      -0.309  -0.075  24.257  0.00  0.00    +0.169 C 
ATOM     19  C   UNL     1      -0.873  -0.639  24.472  0.00  0.00    +0.170 C 
ATOM     20  C   UNL     1      -0.871  -1.233  23.900  0.00  0.00    +0.169 C 
ATOM     21  O   UNL     1      -0.307  -1.037  23.331  0.00  0.00    -0.350 OA
ATOM     22  C   UNL     1       0.040  -0.321  23.552  0.00  0.00    +0.164 C 
ENDROOT
BRANCH  19  23
ATOM     23  N   UNL     1      -1.353  -0.612  25.142  0.00  0.00    -0.180 N 
ATOM     24  N   UNL     1      -1.120  -0.787  25.914  0.00  0.00    -0.040 NA
ATOM     25  N   UNL     1      -1.774  -0.689  26.407  0.00  0.00    -0.020 NA
ATOM     26  N   UNL     1      -2.411  -0.454  25.940  0.00  0.00    -0.071 NA
ATOM     27  C   UNL     1      -2.151  -0.406  25.158  0.00  0.00    +0.343 A 
BRANCH  27  28
ATOM     28  O   UNL     1      -2.610  -0.190  24.507  0.00  0.00    -0.421 OA
BRANCH  28  29
ATOM     29  C   UNL     1      -3.330   0.198  24.620  0.00  0.00    +0.150 A 
ATOM     30  C   UNL     1      -4.019  -0.239  24.741  0.00  0.00    +0.038 A 
ATOM     31  C   UNL     1      -4.738   0.147  24.854  0.00  0.00    +0.004 A 
ATOM     32  C   UNL     1      -4.769   0.972  24.845  0.00  0.00    +0.015 A 
ATOM     33  C   UNL     1      -4.080   1.410  24.724  0.00  0.00    +0.051 A 
ATOM     34  C   UNL     1      -3.360   1.022  24.611  0.00  0.00    +0.052 A 
BRANCH  33  35
ATOM     35  N   UNL     1      -4.110   2.234  24.715  0.00  0.00    -0.303 N 
ATOM     36  C   UNL     1      -4.262   2.648  25.412  0.00  0.00    +0.123 C 
ATOM     37  C   UNL     1      -4.292   3.472  25.403  0.00  0.00    +0.164 C 
ATOM     38  O   UNL     1      -4.170   3.882  24.698  0.00  0.00    -0.350 OA
ATOM     39  C   UNL     1      -4.018   3.468  24.001  0.00  0.00    +0.164 C 
ATOM     40  C   UNL     1      -3.988   2.644  24.010  0.00  0.00    +0.123 C 
ENDBRANCH  33  35
ENDBRANCH  28  29
ENDBRANCH  27  28
ENDBRANCH  19  23
BRANCH  15  14
ATOM     14  N   UNL     1       1.084   0.215  22.666  0.00  0.00    -0.074 NA
BRANCH  14  11
ATOM     11  S   UNL     1       1.905   0.214  22.747  0.00  0.00    +0.077 S 
ATOM     12  O   UNL     1       1.874   0.968  23.081  0.00  0.00    -0.152 OA
ATOM     13  O   UNL     1       1.937  -0.540  22.413  0.00  0.00    -0.152 OA
BRANCH  11   8
ATOM      5  C   UNL     1       4.369   0.209  22.987  0.00  0.00    +0.073 A 
ATOM      6  C   UNL     1       3.938  -0.476  23.143  0.00  0.00    +0.018 A 
ATOM      7  C   UNL     1       3.117  -0.475  23.063  0.00  0.00    +0.021 A 
ATOM      8  C   UNL     1       2.726   0.212  22.827  0.00  0.00    +0.124 A 
ATOM      9  C   UNL     1       3.157   0.899  22.671  0.00  0.00    +0.021 A 
ATOM     10  C   UNL     1       3.978   0.897  22.751  0.00  0.00    +0.018 A 
BRANCH   5   4
ATOM      1  C   UNL     1       6.354   0.327  23.887  0.00  0.00    +0.097 C 
ATOM      2  C   UNL     1       5.533   0.327  23.807  0.00  0.00    +0.246 C 
ATOM      3  O   UNL     1       5.055   0.448  24.468  0.00  0.00    -0.273 OA
ATOM      4  N   UNL     1       5.190   0.208  23.067  0.00  0.00    -0.179 NA
ENDBRANCH   5   4
ENDBRANCH  11   8
ENDBRANCH  14  11
ENDBRANCH  15  14
TORSDOF 8
ENDMDL
MODEL 5
REMARK VINA RESULT:      -9.8      1.221      4.917
REMARK  Name = 
REMARK  8 active torsions:
REMARK  status: ('A' for Active; 'I' for Inactive)
REMARK    1  A    between atoms: N_4  and  C_5
REMARK    2  A    between atoms: C_8  and  S_11
REMARK    3  A    between atoms: S_11  and  N_14
REMARK    4  A    between atoms: N_14  and  C_15
REMARK    5  A    between atoms: C_19  and  N_23
REMARK    6  A    between atoms: C_27  and  O_28
REMARK    7  A    between atoms: O_28  and  C_29
REMARK    8  A    between atoms: C_33  and  N_35
REMARK                            x       y       z     vdW  Elec       q    Type
REMARK                         _______ _______ _______ _____ _____    ______ ____
ROOT
ATOM     15  C   UNL     1      -0.123   0.502  24.555  0.00  0.00    +0.157 C 
ATOM     16  C   UNL     1      -0.408   0.438  23.784  0.00  0.00    +0.164 C 
ATOM     17  O   UNL     1      -0.856  -0.253  23.736  0.00  0.00    -0.350 OA
ATOM     18  C   UNL     1      -0.848  -0.615  24.476  0.00  0.00    +0.169 C 
ATOM     19  C   UNL     1      -1.119  -1.266  24.905  0.00  0.00    +0.170 C 
ATOM     20  C   UNL     1      -0.834  -1.201  25.676  0.00  0.00    +0.169 C 
ATOM     21  O   UNL     1      -0.386  -0.511  25.724  0.00  0.00    -0.350 OA
ATOM     22  C   UNL     1      -0.394  -0.148  24.983  0.00  0.00    +0.164 C 
ENDROOT
BRANCH  19  23
ATOM     23  N   UNL     1      -1.593  -1.875  24.613  0.00  0.00    -0.180 N 
ATOM     24  N   UNL     1      -1.340  -2.504  24.142  0.00  0.00    -0.040 NA
ATOM     25  N   UNL     1      -1.994  -2.979  23.979  0.00  0.00    -0.020 NA
ATOM     26  N   UNL     1      -2.651  -2.645  24.348  0.00  0.00    -0.071 NA
ATOM     27  C   UNL     1      -2.403  -1.962  24.740  0.00  0.00    +0.343 A 
BRANCH  27  28
ATOM     28  O   UNL     1      -2.882  -1.456  25.182  0.00  0.00    -0.421 OA
BRANCH  28  29
ATOM     29  C   UNL     1      -3.562  -1.131  24.844  0.00  0.00    +0.150 A 
ATOM     30  C   UNL     1      -4.084  -1.612  24.425  0.00  0.00    +0.038 A 
ATOM     31  C   UNL     1      -4.763  -1.288  24.087  0.00  0.00    +0.004 A 
ATOM     32  C   UNL     1      -4.920  -0.482  24.169  0.00  0.00    +0.015 A 
ATOM     33  C   UNL     1      -4.397  -0.000  24.588  0.00  0.00    +0.051 A 
ATOM     34  C   UNL     1      -3.718  -0.326  24.925  0.00  0.00    +0.052 A 
BRANCH  33  35
ATOM     35  N   UNL     1      -4.553   0.805  24.670  0.00  0.00    -0.303 N 
ATOM     36  C   UNL     1      -4.077   1.359  24.283  0.00  0.00    +0.123 C 
ATOM     37  C   UNL     1      -4.233   2.164  24.365  0.00  0.00    +0.164 C 
ATOM     38  O   UNL     1      -4.864   2.417  24.832  0.00  0.00    -0.350 OA
ATOM     39  C   UNL     1      -5.339   1.864  25.218  0.00  0.00    +0.164 C 
ATOM     40  C   UNL     1      -5.183   1.058  25.136  0.00  0.00    +0.123 C 
ENDBRANCH  33  35
ENDBRANCH  28  29
ENDBRANCH  27  28
ENDBRANCH  19  23
BRANCH  15  14
ATOM     14  N   UNL     1       0.352   1.111  24.847  0.00  0.00    -0.074 NA
BRANCH  14  11
ATOM     11  S   UNL     1       0.062   1.883  24.874  0.00  0.00    +0.077 S 
ATOM     12  O   UNL     1       0.252   1.984  24.078  0.00  0.00    -0.152 OA
ATOM     13  O   UNL     1      -0.129   1.784  25.671  0.00  0.00    -0.152 OA
BRANCH  11   8
ATOM      5  C   UNL     1      -0.808   4.199  24.959  0.00  0.00    +0.073 A 
ATOM      6  C   UNL     1      -0.632   3.851  24.232  0.00  0.00    +0.018 A 
ATOM      7  C   UNL     1      -0.342   3.079  24.204  0.00  0.00    +0.021 A 
ATOM      8  C   UNL     1      -0.228   2.655  24.902  0.00  0.00    +0.124 A 
ATOM      9  C   UNL     1      -0.404   3.003  25.629  0.00  0.00    +0.021 A 
ATOM     10  C   UNL     1      -0.694   3.775  25.657  0.00  0.00    +0.018 A 
BRANCH   5   4
ATOM      1  C   UNL     1      -2.174   5.881  25.223  0.00  0.00    +0.097 C 
ATOM      2  C   UNL     1      -1.884   5.109  25.195  0.00  0.00    +0.246 C 
ATOM      3  O   UNL     1      -2.381   4.475  25.373  0.00  0.00    -0.273 OA
ATOM      4  N   UNL     1      -1.098   4.971  24.988  0.00  0.00    -0.179 NA
ENDBRANCH   5   4
ENDBRANCH  11   8
ENDBRANCH  14  11
ENDBRANCH  15  14
TORSDOF 8
ENDMDL
MODEL 6
REMARK VINA RESULT:      -9.8      1.421      3.539
REMARK  Name = 
REMARK  8 active torsions:
REMARK  status: ('A' for Active; 'I' for Inactive)
REMARK    1  A    between atoms: N_4  and  C_5
REMARK    2  A    between atoms: C_8  and  S_11
REMARK    3  A    between atoms: S_11  and  N_14
REMARK    4  A    between atoms: N_14  and  C_15
REMARK    5  A    between atoms: C_19  and  N_23
REMARK    6  A    between atoms: C_27  and  O_28
REMARK    7  A    between atoms: O_28  and  C_29
REMARK    8  A    between atoms: C_33  and  N_35
REMARK                            x       y       z     vdW  Elec       q    Type
REMARK                         _______ _______ _______ _____ _____    ______ ____
ROOT
ATOM     15  C   UNL     1      -4.670   1.124  24.764  0.00  0.00    +0.157 C 
ATOM     16  C   UNL     1      -4.295   1.223  24.037  0.00  0.00    +0.164 C 
ATOM     17  O   UNL     1      -4.152   2.028  23.932  0.00  0.00    -0.350 OA
ATOM     18  C   UNL     1      -4.438   2.427  24.594  0.00  0.00    +0.169 C 
ATOM     19  C   UNL     1      -4.527   3.170  24.940  0.00  0.00    +0.170 C 
ATOM     20  C   UNL     1      -4.902   3.071  25.668  0.00  0.00    +0.169 C 
ATOM     21  O   UNL     1      -5.046   2.266  25.773  0.00  0.00    -0.350 OA
ATOM     22  C   UNL     1      -4.759   1.867  25.109  0.00  0.00    +0.164 C 
ENDROOT
BRANCH  19  23
ATOM     23  N   UNL     1      -4.283   3.888  24.615  0.00  0.00    -0.180 N 
ATOM     24  N   UNL     1      -4.657   4.296  24.002  0.00  0.00    -0.040 NA
ATOM     25  N   UNL     1      -4.228   4.984  23.853  0.00  0.00    -0.020 NA
ATOM     26  N   UNL     1      -3.588   5.002  24.373  0.00  0.00    -0.071 NA
ATOM     27  C   UNL     1      -3.623   4.325  24.844  0.00  0.00    +0.343 A 
BRANCH  27  28
ATOM     28  O   UNL     1      -3.089   4.121  25.440  0.00  0.00    -0.421 OA
BRANCH  28  29
ATOM     29  C   UNL     1      -2.281   4.249  25.331  0.00  0.00    +0.150 A 
ATOM     30  C   UNL     1      -1.989   5.017  25.267  0.00  0.00    +0.038 A 
ATOM     31  C   UNL     1      -1.182   5.145  25.158  0.00  0.00    +0.004 A 
ATOM     32  C   UNL     1      -0.665   4.502  25.115  0.00  0.00    +0.015 A 
ATOM     33  C   UNL     1      -0.957   3.733  25.180  0.00  0.00    +0.051 A 
ATOM     34  C   UNL     1      -1.765   3.607  25.288  0.00  0.00    +0.052 A 
BRANCH  33  35
ATOM     35  N   UNL     1      -0.441   3.091  25.136  0.00  0.00    -0.303 N 
ATOM     36  C   UNL     1      -0.188   2.718  25.827  0.00  0.00    +0.123 C 
ATOM     37  C   UNL     1       0.328   2.076  25.784  0.00  0.00    +0.164 C 
ATOM     38  O   UNL     1       0.591   1.807  25.050  0.00  0.00    -0.350 OA
ATOM     39  C   UNL     1       0.338   2.180  24.359  0.00  0.00    +0.164 C 
ATOM     40  C   UNL     1      -0.178   2.822  24.402  0.00  0.00    +0.123 C 
ENDBRANCH  33  35
ENDBRANCH  28  29
ENDBRANCH  27  28
ENDBRANCH  19  23
BRANCH  15  14
ATOM     14  N   UNL     1      -4.915   0.406  25.090  0.00  0.00    -0.074 NA
BRANCH  14  11
ATOM     11  S   UNL     1      -4.447  -0.268  25.002  0.00  0.00    +0.077 S 
ATOM     12  O   UNL     1      -4.774  -0.399  24.256  0.00  0.00    -0.152 OA
ATOM     13  O   UNL     1      -4.118  -0.138  25.747  0.00  0.00    -0.152 OA
BRANCH  11   8
ATOM      5  C   UNL     1      -3.042  -2.289  24.740  0.00  0.00    +0.073 A 
ATOM      6  C   UNL     1      -3.614  -2.108  24.174  0.00  0.00    +0.018 A 
ATOM      7  C   UNL     1      -4.083  -1.435  24.261  0.00  0.00    +0.021 A 
ATOM      8  C   UNL     1      -3.978  -0.942  24.914  0.00  0.00    +0.124 A 
ATOM      9  C   UNL     1      -3.406  -1.122  25.480  0.00  0.00    +0.021 A 
ATOM     10  C   UNL     1      -2.938  -1.796  25.393  0.00  0.00    +0.018 A 
BRANCH   5   4
ATOM      1  C   UNL     1      -1.339  -3.571  24.265  0.00  0.00    +0.097 C 
ATOM      2  C   UNL     1      -1.808  -2.897  24.352  0.00  0.00    +0.246 C 
ATOM      3  O   UNL     1      -1.511  -2.158  24.137  0.00  0.00    -0.273 OA
ATOM      4  N   UNL     1      -2.573  -2.962  24.653  0.00  0.00    -0.179 NA
ENDBRANCH   5   4
ENDBRANCH  11   8
ENDBRANCH  14  11
ENDBRANCH  15  14
TORSDOF 8
ENDMDL
MODEL 7
REMARK VINA RESULT:      -9.1      1.683      5.377
REMARK  Name = 
REMARK  8 active torsions:
REMARK  status: ('A' for Active; 'I' for Inactive)
REMARK    1  A    between atoms: N_4  and  C_5
REMARK    2  A    between atoms: C_8  and  S_11
REMARK    3  A    between atoms: S_11  and  N_14
REMARK    4  A    between atoms: N_14  and  C_15
REMARK    5  A    between atoms: C_19  and  N_23
REMARK    6  A    between atoms: C_27  and  O_28
REMARK    7  A    between atoms: O_28  and  C_29
REMARK    8  A    between atoms: C_33  and  N_35
REMARK                            x       y       z     vdW  Elec       q    Type
REMARK                         _______ _______ _______ _____ _____    ______ ____
ROOT
ATOM     15  C   UNL     1      -3.621  -0.565  25.187  0.00  0.00    +0.157 C 
ATOM     16  C   UNL     1      -3.192  -0.256  25.820  0.00  0.00    +0.164 C 
ATOM     17  O   UNL     1      -2.416  -0.527  25.757  0.00  0.00    -0.350 OA
ATOM     18  C   UNL     1      -2.365  -1.002  25.086  0.00  0.00    +0.169 C 
ATOM     19  C   UNL     1      -1.854  -1.464  24.631  0.00  0.00    +0.170 C 
ATOM     20  C   UNL     1      -2.283  -1.772  23.998  0.00  0.00    +0.169 C 
ATOM     21  O   UNL     1      -3.060  -1.502  24.061  0.00  0.00    -0.350 OA
ATOM     22  C   UNL     1      -3.110  -1.026  24.733  0.00  0.00    +0.164 C 
ENDROOT
BRANCH  19  23
ATOM     23  N   UNL     1      -1.053  -1.594  24.783  0.00  0.00    -0.180 N 
ATOM     24  N   UNL     1      -0.744  -2.113  25.346  0.00  0.00    -0.040 NA
ATOM     25  N   UNL     1       0.079  -2.067  25.310  0.00  0.00    -0.020 NA
ATOM     26  N   UNL     1       0.278  -1.520  24.725  0.00  0.00    -0.071 NA
ATOM     27  C   UNL     1      -0.421  -1.228  24.400  0.00  0.00    +0.343 A 
BRANCH  27  28
ATOM     28  O   UNL     1      -0.478  -0.668  23.797  0.00  0.00    -0.421 OA
BRANCH  28  29
ATOM     29  C   UNL     1       0.012  -0.004  23.802  0.00  0.00    +0.150 A 
ATOM     30  C   UNL     1       0.737  -0.023  23.410  0.00  0.00    +0.038 A 
ATOM     31  C   UNL     1       1.227   0.639  23.415  0.00  0.00    +0.004 A 
ATOM     32  C   UNL     1       0.992   1.323  23.814  0.00  0.00    +0.015 A 
ATOM     33  C   UNL     1       0.267   1.343  24.207  0.00  0.00    +0.051 A 
ATOM     34  C   UNL     1      -0.223   0.679  24.201  0.00  0.00    +0.052 A 
BRANCH  33  35
ATOM     35  N   UNL     1       0.031   2.026  24.605  0.00  0.00    -0.303 N 
ATOM     36  C   UNL     1       0.160   2.094  25.418  0.00  0.00    +0.123 C 
ATOM     37  C   UNL     1      -0.076   2.776  25.816  0.00  0.00    +0.164 C 
ATOM     38  O   UNL     1      -0.439   3.391  25.403  0.00  0.00    -0.350 OA
ATOM     39  C   UNL     1      -0.567   3.323  24.590  0.00  0.00    +0.164 C 
ATOM     40  C   UNL     1      -0.332   2.640  24.192  0.00  0.00    +0.123 C 
ENDBRANCH  33  35
ENDBRANCH  28  29
ENDBRANCH  27  28
ENDBRANCH  19  23
BRANCH  15  14
ATOM     14  N   UNL     1      -4.422  -0.435  25.035  0.00  0.00    -0.074 NA
BRANCH  14  11
ATOM     11  S   UNL     1      -4.732   0.329  25.078  0.00  0.00    +0.077 S 
ATOM     12  O   UNL     1      -4.663   0.404  24.260  0.00  0.00    -0.152 OA
ATOM     13  O   UNL     1      -4.801   0.254  25.897  0.00  0.00    -0.152 OA
BRANCH  11   8
ATOM      5  C   UNL     1      -5.662   2.619  25.211  0.00  0.00    +0.073 A 
ATOM      6  C   UNL     1      -5.909   2.042  25.746  0.00  0.00    +0.018 A 
ATOM      7  C   UNL     1      -5.599   1.278  25.702  0.00  0.00    +0.021 A 
ATOM      8  C   UNL     1      -5.042   1.092  25.123  0.00  0.00    +0.124 A 
ATOM      9  C   UNL     1      -4.794   1.669  24.588  0.00  0.00    +0.021 A 
ATOM     10  C   UNL     1      -5.104   2.432  24.632  0.00  0.00    +0.018 A 
BRANCH   5   4
ATOM      1  C   UNL     1      -5.821   4.761  25.597  0.00  0.00    +0.097 C 
ATOM      2  C   UNL     1      -5.511   3.998  25.553  0.00  0.00    +0.246 C 
ATOM      3  O   UNL     1      -4.741   3.850  25.808  0.00  0.00    -0.273 OA
ATOM      4  N   UNL     1      -5.971   3.382  25.255  0.00  0.00    -0.179 NA
ENDBRANCH   5   4
ENDBRANCH  11   8
ENDBRANCH  14  11
ENDBRANCH  15  14
TORSDOF 8
ENDMDL
MODEL 8
REMARK VINA RESULT:      -8.8      3.018      4.860
REMARK  Name = 
REMARK  8 active torsions:
REMARK  status: ('A' for Active; 'I' for Inactive)
REMARK    1  A    between atoms: N_4  and  C_5
REMARK    2  A    between atoms: C_8  and  S_11
REMARK    3  A    between atoms: S_11  and  N_14
REMARK    4  A    between atoms: N_14  and  C_15
REMARK    5  A    between atoms: C_19  and  N_23
REMARK    6  A    between atoms: C_27  and  O_28
REMARK    7  A    between atoms: O_28  and  C_29
REMARK    8  A    between atoms: C_33  and  N_35
REMARK                            x       y       z     vdW  Elec       q    Type
REMARK                         _______ _______ _______ _____ _____    ______ ____
ROOT
ATOM     15  C   UNL     1       0.491   0.364  23.333  0.00  0.00    +0.157 C 
ATOM     16  C   UNL     1       0.554   0.138  24.123  0.00  0.00    +0.164 C 
ATOM     17  O   UNL     1      -0.023   0.543  24.551  0.00  0.00    -0.350 OA
ATOM     18  C   UNL     1      -0.443   1.019  24.026  0.00  0.00    +0.169 C 
ATOM     19  C   UNL     1      -1.060   1.564  23.964  0.00  0.00    +0.170 C 
ATOM     20  C   UNL     1      -1.123   1.790  23.173  0.00  0.00    +0.169 C 
ATOM     21  O   UNL     1      -0.546   1.385  22.746  0.00  0.00    -0.350 OA
ATOM     22  C   UNL     1      -0.125   0.908  23.272  0.00  0.00    +0.164 C 
ENDROOT
BRANCH  19  23
ATOM     23  N   UNL     1      -1.530   1.835  24.585  0.00  0.00    -0.180 N 
ATOM     24  N   UNL     1      -1.268   2.256  25.245  0.00  0.00    -0.040 NA
ATOM     25  N   UNL     1      -1.921   2.414  25.723  0.00  0.00    -0.020 NA
ATOM     26  N   UNL     1      -2.587   2.090  25.359  0.00  0.00    -0.071 NA
ATOM     27  C   UNL     1      -2.345   1.733  24.656  0.00  0.00    +0.343 A 
BRANCH  27  28
ATOM     28  O   UNL     1      -2.834   1.341  24.118  0.00  0.00    -0.421 OA
BRANCH  28  29
ATOM     29  C   UNL     1      -3.449   0.863  24.391  0.00  0.00    +0.150 A 
ATOM     30  C   UNL     1      -4.134   1.205  24.695  0.00  0.00    +0.038 A 
ATOM     31  C   UNL     1      -4.748   0.728  24.968  0.00  0.00    +0.004 A 
ATOM     32  C   UNL     1      -4.676  -0.094  24.937  0.00  0.00    +0.015 A 
ATOM     33  C   UNL     1      -3.990  -0.437  24.634  0.00  0.00    +0.051 A 
ATOM     34  C   UNL     1      -3.376   0.042  24.361  0.00  0.00    +0.052 A 
BRANCH  33  35
ATOM     35  N   UNL     1      -3.917  -1.258  24.603  0.00  0.00    -0.303 N 
ATOM     36  C   UNL     1      -3.521  -1.660  25.206  0.00  0.00    +0.123 C 
ATOM     37  C   UNL     1      -3.449  -2.481  25.175  0.00  0.00    +0.164 C 
ATOM     38  O   UNL     1      -3.771  -2.900  24.543  0.00  0.00    -0.350 OA
ATOM     39  C   UNL     1      -4.167  -2.499  23.940  0.00  0.00    +0.164 C 
ATOM     40  C   UNL     1      -4.240  -1.678  23.971  0.00  0.00    +0.123 C 
ENDBRANCH  33  35
ENDBRANCH  28  29
ENDBRANCH  27  28
ENDBRANCH  19  23
BRANCH  15  14
ATOM     14  N   UNL     1       0.961   0.093  22.711  0.00  0.00    -0.074 NA
BRANCH  14  11
ATOM     11  S   UNL     1       1.784   0.101  22.782  0.00  0.00    +0.077 S 
ATOM     12  O   UNL     1       1.761  -0.644  23.136  0.00  0.00    -0.152 OA
ATOM     13  O   UNL     1       1.807   0.846  22.428  0.00  0.00    -0.152 OA
BRANCH  11   8
ATOM      5  C   UNL     1       4.249   0.129  22.993  0.00  0.00    +0.073 A 
ATOM      6  C   UNL     1       3.831  -0.566  23.140  0.00  0.00    +0.018 A 
ATOM      7  C   UNL     1       3.009  -0.576  23.070  0.00  0.00    +0.021 A 
ATOM      8  C   UNL     1       2.605   0.110  22.852  0.00  0.00    +0.124 A 
ATOM      9  C   UNL     1       3.024   0.806  22.705  0.00  0.00    +0.021 A 
ATOM     10  C   UNL     1       3.846   0.815  22.775  0.00  0.00    +0.018 A 
BRANCH   5   4
ATOM      1  C   UNL     1       6.244   0.334  23.855  0.00  0.00    +0.097 C 
ATOM      2  C   UNL     1       5.422   0.324  23.785  0.00  0.00    +0.246 C 
ATOM      3  O   UNL     1       4.951   0.500  24.439  0.00  0.00    -0.273 OA
ATOM      4  N   UNL     1       5.071   0.139  23.063  0.00  0.00    -0.179 NA
ENDBRANCH   5   4
ENDBRANCH  11   8
ENDBRANCH  14  11
ENDBRANCH  15  14
TORSDOF 8
ENDMDL
