MODEL 1
REMARK VINA RESULT:      -9.8      0.000      0.000
REMARK  Name = 
REMARK  7 active torsions:
REMARK  status: ('A' for Active; 'I' for Inactive)
REMARK    1  A    between atoms: N_6  and  C_7
REMARK    2  A    between atoms: C_7  and  C_8
REMARK    3  A    between atoms: C_17  and  C_18
REMARK    4  A    between atoms: C_18  and  C_19
REMARK    5  A    between atoms: C_19  and  C_20
REMARK    6  A    between atoms: N_22  and  C_23
REMARK    7  A    between atoms: C_23  and  C_24
REMARK                            x       y       z     vdW  Elec       q    Type
REMARK                         _______ _______ _______ _____ _____    ______ ____
ROOT
ATOM      1  C   UNL     1      -1.178   1.099  23.657  0.00  0.00    +0.090 C 
ATOM      2  N   UNL     1      -1.013   1.416  24.400  0.00  0.00    -0.271 NA
ATOM      3  C   UNL     1      -1.094   2.234  24.467  0.00  0.00    +0.083 C 
ATOM      4  C   UNL     1      -1.324   2.721  23.842  0.00  0.00    +0.035 C 
ATOM      5  C   UNL     1      -1.343   3.498  24.117  0.00  0.00    +0.074 C 
ATOM      6  N   UNL     1      -1.125   3.493  24.912  0.00  0.00    -0.265 NA
ATOM     12  C   UNL     1      -0.970   2.712  25.129  0.00  0.00    +0.151 C 
ATOM     13  C   UNL     1      -0.736   2.488  25.887  0.00  0.00    +0.257 C 
ATOM     14  O   UNL     1      -0.660   3.101  26.434  0.00  0.00    -0.272 OA
ATOM     15  N   UNL     1      -0.566   1.733  26.171  0.00  0.00    -0.203 NA
ATOM     16  C   UNL     1      -0.590   1.014  25.767  0.00  0.00    +0.131 C 
ATOM     17  C   UNL     1      -0.788   0.873  24.979  0.00  0.00    +0.080 C 
ENDROOT
BRANCH   6   7
ATOM      7  C   UNL     1      -1.069   4.152  25.405  0.00  0.00    +0.072 C 
BRANCH   7   8
ATOM      8  C   UNL     1      -1.310   4.893  25.130  0.00  0.00    +0.015 C 
ATOM      9  C   UNL     1      -1.551   5.632  24.856  0.00  0.00    +0.001 C 
ATOM     10  C   UNL     1      -0.554   5.027  24.829  0.00  0.00    +0.001 C 
ATOM     11  C   UNL     1      -2.066   4.758  25.432  0.00  0.00    +0.001 C 
ENDBRANCH   7   8
ENDBRANCH   6   7
BRANCH  17  18
ATOM     18  C   UNL     1      -0.759   0.084  24.737  0.00  0.00    +0.027 C 
BRANCH  18  19
ATOM     19  C   UNL     1      -0.913  -0.519  25.277  0.00  0.00    +0.088 C 
BRANCH  19  20
ATOM     20  C   UNL     1      -1.151  -1.263  25.009  0.00  0.00    +0.242 C 
ATOM     21  O   UNL     1      -0.587  -1.840  24.840  0.00  0.00    -0.273 OA
ATOM     22  N   UNL     1      -1.953  -1.429  24.911  0.00  0.00    -0.200 NA
BRANCH  22  23
ATOM     23  C   UNL     1      -2.191  -2.172  24.643  0.00  0.00    +0.143 C 
BRANCH  23  24
ATOM     24  C   UNL     1      -2.968  -2.293  24.397  0.00  0.00    +0.019 A 
ATOM     25  C   UNL     1      -3.443  -1.649  24.198  0.00  0.00    +0.001 A 
ATOM     26  C   UNL     1      -4.221  -1.770  23.952  0.00  0.00    +0.020 A 
ATOM     27  C   UNL     1      -4.524  -2.536  23.905  0.00  0.00    +0.099 A 
ATOM     28  N   UNL     1      -4.049  -3.181  24.104  0.00  0.00    -0.243 NA
ATOM     29  C   UNL     1      -3.271  -3.059  24.350  0.00  0.00    +0.096 A 
ENDBRANCH  23  24
ENDBRANCH  22  23
ENDBRANCH  19  20
ENDBRANCH  18  19
ENDBRANCH  17  18
TORSDOF 7
ENDMDL
MODEL 2
REMARK VINA RESULT:      -9.6      1.200      5.750
REMARK  Name = 
REMARK  7 active torsions:
REMARK  status: ('A' for Active; 'I' for Inactive)
REMARK    1  A    between atoms: N_6  and  C_7
REMARK    2  A    between atoms: C_7  and  C_8
REMARK    3  A    between atoms: C_17  and  C_18
REMARK    4  A    between atoms: C_18  and  C_19
REMARK    5  A    between atoms: C_19  and  C_20
REMARK    6  A    between atoms: N_22  and  C_23
REMARK    7  A    between atoms: C_23  and  C_24
REMARK                            x       y       z     vdW  Elec       q    Type
REMARK                         _______ _______ _______ _____ _____    ______ ____
ROOT
ATOM      1  C   UNL     1      -0.412  -0.500  24.419  0.00  0.00    +0.090 C 
ATOM      2  N   UNL     1      -1.160  -0.402  24.753  0.00  0.00    -0.271 NA
ATOM      3  C   UNL     1      -1.691  -1.021  24.632  0.00  0.00    +0.083 C 
ATOM      4  C   UNL     1      -1.505  -1.703  24.205  0.00  0.00    +0.035 C 
ATOM      5  C   UNL     1      -2.169  -2.191  24.202  0.00  0.00    +0.074 C 
ATOM      6  N   UNL     1      -2.767  -1.812  24.626  0.00  0.00    -0.265 NA
ATOM     12  C   UNL     1      -2.471  -1.089  24.892  0.00  0.00    +0.151 C 
ATOM     13  C   UNL     1      -2.912  -0.554  25.338  0.00  0.00    +0.257 C 
ATOM     14  O   UNL     1      -3.686  -0.784  25.511  0.00  0.00    -0.272 OA
ATOM     15  N   UNL     1      -2.683   0.181  25.635  0.00  0.00    -0.203 NA
ATOM     16  C   UNL     1      -1.955   0.562  25.558  0.00  0.00    +0.131 C 
ATOM     17  C   UNL     1      -1.278   0.303  25.166  0.00  0.00    +0.080 C 
ENDROOT
BRANCH   6   7
ATOM      7  C   UNL     1      -3.526  -2.105  24.762  0.00  0.00    +0.072 C 
BRANCH   7   8
ATOM      8  C   UNL     1      -3.794  -2.764  24.344  0.00  0.00    +0.015 C 
ATOM      9  C   UNL     1      -4.062  -3.422  23.925  0.00  0.00    +0.001 C 
ATOM     10  C   UNL     1      -3.438  -3.261  24.897  0.00  0.00    +0.001 C 
ATOM     11  C   UNL     1      -4.151  -2.266  23.790  0.00  0.00    +0.001 C 
ENDBRANCH   7   8
ENDBRANCH   6   7
BRANCH  17  18
ATOM     18  C   UNL     1      -0.632   0.816  25.189  0.00  0.00    +0.027 C 
BRANCH  18  19
ATOM     19  C   UNL     1      -0.616   1.437  25.731  0.00  0.00    +0.088 C 
BRANCH  19  20
ATOM     20  C   UNL     1      -0.281   2.161  25.522  0.00  0.00    +0.242 C 
ATOM     21  O   UNL     1       0.527   2.211  25.364  0.00  0.00    -0.273 OA
ATOM     22  N   UNL     1      -0.753   2.835  25.470  0.00  0.00    -0.200 NA
BRANCH  22  23
ATOM     23  C   UNL     1      -0.418   3.559  25.260  0.00  0.00    +0.143 C 
BRANCH  23  24
ATOM     24  C   UNL     1      -0.893   4.231  25.197  0.00  0.00    +0.019 A 
ATOM     25  C   UNL     1      -0.603   4.907  24.825  0.00  0.00    +0.001 A 
ATOM     26  C   UNL     1      -1.077   5.579  24.762  0.00  0.00    +0.020 A 
ATOM     27  C   UNL     1      -1.842   5.574  25.071  0.00  0.00    +0.099 A 
ATOM     28  N   UNL     1      -2.132   4.897  25.443  0.00  0.00    -0.243 NA
ATOM     29  C   UNL     1      -1.657   4.226  25.506  0.00  0.00    +0.096 A 
ENDBRANCH  23  24
ENDBRANCH  22  23
ENDBRANCH  19  20
ENDBRANCH  18  19
ENDBRANCH  17  18
TORSDOF 7
ENDMDL
MODEL 3
REMARK VINA RESULT:      -9.2      3.096      4.580
REMARK  Name = 
REMARK  7 active torsions:
REMARK  status: ('A' for Active; 'I' for Inactive)
REMARK    1  A    between atoms: N_6  and  C_7
REMARK    2  A    between atoms: C_7  and  C_8
REMARK    3  A    between atoms: C_17  and  C_18
REMARK    4  A    between atoms: C_18  and  C_19
REMARK    5  A    between atoms: C_19  and  C_20
REMARK    6  A    between atoms: N_22  and  C_23
REMARK    7  A    between atoms: C_23  and  C_24
REMARK                            x       y       z     vdW  Elec       q    Type
REMARK                         _______ _______ _______ _____ _____    ______ ____
ROOT
ATOM      1  C   UNL     1      -2.413  -0.331  24.757  0.00  0.00    +0.090 C 
ATOM      2  N   UNL     1      -2.498   0.451  24.508  0.00  0.00    -0.271 NA
ATOM      3  C   UNL     1      -3.220   0.808  24.689  0.00  0.00    +0.083 C 
ATOM      4  C   UNL     1      -3.829   0.423  25.092  0.00  0.00    +0.035 C 
ATOM      5  C   UNL     1      -4.457   0.952  25.170  0.00  0.00    +0.074 C 
ATOM      6  N   UNL     1      -4.237   1.664  24.815  0.00  0.00    -0.265 NA
ATOM     12  C   UNL     1      -3.472   1.574  24.518  0.00  0.00    +0.151 C 
ATOM     13  C   UNL     1      -3.066   2.173  24.123  0.00  0.00    +0.257 C 
ATOM     14  O   UNL     1      -3.472   2.886  24.038  0.00  0.00    -0.272 OA
ATOM     15  N   UNL     1      -2.306   2.154  23.803  0.00  0.00    -0.203 NA
ATOM     16  C   UNL     1      -1.765   1.530  23.797  0.00  0.00    +0.131 C 
ATOM     17  C   UNL     1      -1.851   0.773  24.111  0.00  0.00    +0.080 C 
ENDROOT
BRANCH   6   7
ATOM      7  C   UNL     1      -4.700   2.345  24.766  0.00  0.00    +0.072 C 
BRANCH   7   8
ATOM      8  C   UNL     1      -5.406   2.394  25.190  0.00  0.00    +0.015 C 
ATOM      9  C   UNL     1      -6.111   2.444  25.614  0.00  0.00    +0.001 C 
ATOM     10  C   UNL     1      -5.790   1.959  24.604  0.00  0.00    +0.001 C 
ATOM     11  C   UNL     1      -5.022   2.830  25.776  0.00  0.00    +0.001 C 
ENDBRANCH   7   8
ENDBRANCH   6   7
BRANCH  17  18
ATOM     18  C   UNL     1      -1.204   0.270  24.016  0.00  0.00    +0.027 C 
BRANCH  18  19
ATOM     19  C   UNL     1      -0.496   0.561  23.709  0.00  0.00    +0.088 C 
BRANCH  19  20
ATOM     20  C   UNL     1       0.144   0.053  23.592  0.00  0.00    +0.242 C 
ATOM     21  O   UNL     1       0.097  -0.733  23.841  0.00  0.00    -0.273 OA
ATOM     22  N   UNL     1       0.829   0.329  23.227  0.00  0.00    -0.200 NA
BRANCH  22  23
ATOM     23  C   UNL     1       1.468  -0.179  23.109  0.00  0.00    +0.143 C 
BRANCH  23  24
ATOM     24  C   UNL     1       2.168   0.107  22.780  0.00  0.00    +0.019 A 
ATOM     25  C   UNL     1       2.666   0.590  23.225  0.00  0.00    +0.001 A 
ATOM     26  C   UNL     1       3.367   0.876  22.896  0.00  0.00    +0.020 A 
ATOM     27  C   UNL     1       3.568   0.679  22.121  0.00  0.00    +0.099 A 
ATOM     28  N   UNL     1       3.070   0.195  21.675  0.00  0.00    -0.243 NA
ATOM     29  C   UNL     1       2.370  -0.091  22.005  0.00  0.00    +0.096 A 
ENDBRANCH  23  24
ENDBRANCH  22  23
ENDBRANCH  19  20
ENDBRANCH  18  19
ENDBRANCH  17  18
TORSDOF 7
ENDMDL
MODEL 4
REMARK VINA RESULT:      -9.0      2.091      6.034
REMARK  Name = 
REMARK  7 active torsions:
REMARK  status: ('A' for Active; 'I' for Inactive)
REMARK    1  A    between atoms: N_6  and  C_7
REMARK    2  A    between atoms: C_7  and  C_8
REMARK    3  A    between atoms: C_17  and  C_18
REMARK    4  A    between atoms: C_18  and  C_19
REMARK    5  A    between atoms: C_19  and  C_20
REMARK    6  A    between atoms: N_22  and  C_23
REMARK    7  A    between atoms: C_23  and  C_24
REMARK                            x       y       z     vdW  Elec       q    Type
REMARK                         _______ _______ _______ _____ _____    ______ ____
ROOT
ATOM      1  C   UNL     1      -3.566   1.432  23.416  0.00  0.00    +0.090 C 
ATOM      2  N   UNL     1      -3.825   1.016  24.079  0.00  0.00    -0.271 NA
ATOM      3  C   UNL     1      -3.708   0.199  24.058  0.00  0.00    +0.083 C 
ATOM      4  C   UNL     1      -3.355  -0.193  23.423  0.00  0.00    +0.035 C 
ATOM      5  C   UNL     1      -3.333  -0.998  23.602  0.00  0.00    +0.074 C 
ATOM      6  N   UNL     1      -3.672  -1.104  24.346  0.00  0.00    -0.265 NA
ATOM     12  C   UNL     1      -3.903  -0.364  24.629  0.00  0.00    +0.151 C 
ATOM     13  C   UNL     1      -4.265  -0.250  25.360  0.00  0.00    +0.257 C 
ATOM     14  O   UNL     1      -4.388  -0.931  25.810  0.00  0.00    -0.272 OA
ATOM     15  N   UNL     1      -4.521   0.456  25.704  0.00  0.00    -0.203 NA
ATOM     16  C   UNL     1      -4.478   1.221  25.398  0.00  0.00    +0.131 C 
ATOM     17  C   UNL     1      -4.169   1.470  24.676  0.00  0.00    +0.080 C 
ENDROOT
BRANCH   6   7
ATOM      7  C   UNL     1      -3.763  -1.823  24.740  0.00  0.00    +0.072 C 
BRANCH   7   8
ATOM      8  C   UNL     1      -3.483  -2.519  24.396  0.00  0.00    +0.015 C 
ATOM      9  C   UNL     1      -3.202  -3.215  24.053  0.00  0.00    +0.001 C 
ATOM     10  C   UNL     1      -4.188  -2.596  23.975  0.00  0.00    +0.001 C 
ATOM     11  C   UNL     1      -2.777  -2.442  24.818  0.00  0.00    +0.001 C 
ENDBRANCH   7   8
ENDBRANCH   6   7
BRANCH  17  18
ATOM     18  C   UNL     1      -4.207   2.282  24.530  0.00  0.00    +0.027 C 
BRANCH  18  19
ATOM     19  C   UNL     1      -4.287   2.811  25.157  0.00  0.00    +0.088 C 
BRANCH  19  20
ATOM     20  C   UNL     1      -3.952   3.564  25.108  0.00  0.00    +0.242 C 
ATOM     21  O   UNL     1      -4.408   4.201  24.849  0.00  0.00    -0.273 OA
ATOM     22  N   UNL     1      -3.163   3.680  25.317  0.00  0.00    -0.200 NA
BRANCH  22  23
ATOM     23  C   UNL     1      -2.829   4.433  25.267  0.00  0.00    +0.143 C 
BRANCH  23  24
ATOM     24  C   UNL     1      -2.013   4.518  25.192  0.00  0.00    +0.019 A 
ATOM     25  C   UNL     1      -1.696   5.228  24.920  0.00  0.00    +0.001 A 
ATOM     26  C   UNL     1      -0.878   5.314  24.844  0.00  0.00    +0.020 A 
ATOM     27  C   UNL     1      -0.378   4.688  25.041  0.00  0.00    +0.099 A 
ATOM     28  N   UNL     1      -0.696   3.976  25.313  0.00  0.00    -0.243 NA
ATOM     29  C   UNL     1      -1.513   3.892  25.389  0.00  0.00    +0.096 A 
ENDBRANCH  23  24
ENDBRANCH  22  23
ENDBRANCH  19  20
ENDBRANCH  18  19
ENDBRANCH  17  18
TORSDOF 7
ENDMDL
MODEL 5
REMARK VINA RESULT:      -9.0      3.187      4.814
REMARK  Name = 
REMARK  7 active torsions:
REMARK  status: ('A' for Active; 'I' for Inactive)
REMARK    1  A    between atoms: N_6  and  C_7
REMARK    2  A    between atoms: C_7  and  C_8
REMARK    3  A    between atoms: C_17  and  C_18
REMARK    4  A    between atoms: C_18  and  C_19
REMARK    5  A    between atoms: C_19  and  C_20
REMARK    6  A    between atoms: N_22  and  C_23
REMARK    7  A    between atoms: C_23  and  C_24
REMARK                            x       y       z     vdW  Elec       q    Type
REMARK                         _______ _______ _______ _____ _____    ______ ____
ROOT
ATOM      1  C   UNL     1      -1.255   1.803  22.908  0.00  0.00    +0.090 C 
ATOM      2  N   UNL     1      -1.491   1.314  23.528  0.00  0.00    -0.271 NA
ATOM      3  C   UNL     1      -2.252   1.444  23.818  0.00  0.00    +0.083 C 
ATOM      4  C   UNL     1      -2.760   2.021  23.518  0.00  0.00    +0.035 C 
ATOM      5  C   UNL     1      -3.466   1.986  23.943  0.00  0.00    +0.074 C 
ATOM      6  N   UNL     1      -3.395   1.386  24.505  0.00  0.00    -0.265 NA
ATOM     12  C   UNL     1      -2.645   1.051  24.428  0.00  0.00    +0.151 C 
ATOM     13  C   UNL     1      -2.374   0.431  24.899  0.00  0.00    +0.257 C 
ATOM     14  O   UNL     1      -2.903   0.154  25.468  0.00  0.00    -0.272 OA
ATOM     15  N   UNL     1      -1.642   0.051  24.877  0.00  0.00    -0.203 NA
ATOM     16  C   UNL     1      -1.001   0.197  24.378  0.00  0.00    +0.131 C 
ATOM     17  C   UNL     1      -0.934   0.758  23.778  0.00  0.00    +0.080 C 
ENDROOT
BRANCH   6   7
ATOM      7  C   UNL     1      -3.973   1.160  25.050  0.00  0.00    +0.072 C 
BRANCH   7   8
ATOM      8  C   UNL     1      -4.725   1.498  25.015  0.00  0.00    +0.015 C 
ATOM      9  C   UNL     1      -5.477   1.834  24.980  0.00  0.00    +0.001 C 
ATOM     10  C   UNL     1      -4.453   2.152  25.437  0.00  0.00    +0.001 C 
ATOM     11  C   UNL     1      -4.999   0.843  24.593  0.00  0.00    +0.001 C 
ENDBRANCH   7   8
ENDBRANCH   6   7
BRANCH  17  18
ATOM     18  C   UNL     1      -0.215   0.767  23.373  0.00  0.00    +0.027 C 
BRANCH  18  19
ATOM     19  C   UNL     1       0.359   0.199  23.540  0.00  0.00    +0.088 C 
BRANCH  19  20
ATOM     20  C   UNL     1       0.948   0.032  22.986  0.00  0.00    +0.242 C 
ATOM     21  O   UNL     1       0.750  -0.324  22.268  0.00  0.00    -0.273 OA
ATOM     22  N   UNL     1       1.734   0.220  23.149  0.00  0.00    -0.200 NA
BRANCH  22  23
ATOM     23  C   UNL     1       2.322   0.053  22.595  0.00  0.00    +0.143 C 
BRANCH  23  24
ATOM     24  C   UNL     1       3.114   0.191  22.780  0.00  0.00    +0.019 A 
ATOM     25  C   UNL     1       3.451   0.928  22.625  0.00  0.00    +0.001 A 
ATOM     26  C   UNL     1       4.243   1.067  22.809  0.00  0.00    +0.020 A 
ATOM     27  C   UNL     1       4.698   0.468  23.149  0.00  0.00    +0.099 A 
ATOM     28  N   UNL     1       4.361  -0.270  23.303  0.00  0.00    -0.243 NA
ATOM     29  C   UNL     1       3.569  -0.407  23.119  0.00  0.00    +0.096 A 
ENDBRANCH  23  24
ENDBRANCH  22  23
ENDBRANCH  19  20
ENDBRANCH  18  19
ENDBRANCH  17  18
TORSDOF 7
ENDMDL
MODEL 6
REMARK VINA RESULT:      -8.9      1.924      2.425
REMARK  Name = 
REMARK  7 active torsions:
REMARK  status: ('A' for Active; 'I' for Inactive)
REMARK    1  A    between atoms: N_6  and  C_7
REMARK    2  A    between atoms: C_7  and  C_8
REMARK    3  A    between atoms: C_17  and  C_18
REMARK    4  A    between atoms: C_18  and  C_19
REMARK    5  A    between atoms: C_19  and  C_20
REMARK    6  A    between atoms: N_22  and  C_23
REMARK    7  A    between atoms: C_23  and  C_24
REMARK                            x       y       z     vdW  Elec       q    Type
REMARK                         _______ _______ _______ _____ _____    ______ ____
ROOT
ATOM      1  C   UNL     1      -3.116   1.812  23.496  0.00  0.00    +0.090 C 
ATOM      2  N   UNL     1      -3.242   2.246  24.186  0.00  0.00    -0.271 NA
ATOM      3  C   UNL     1      -2.726   2.878  24.311  0.00  0.00    +0.083 C 
ATOM      4  C   UNL     1      -2.117   3.078  23.790  0.00  0.00    +0.035 C 
ATOM      5  C   UNL     1      -1.723   3.733  24.098  0.00  0.00    +0.074 C 
ATOM      6  N   UNL     1      -2.088   3.939  24.809  0.00  0.00    -0.265 NA
ATOM     12  C   UNL     1      -2.708   3.411  24.940  0.00  0.00    +0.151 C 
ATOM     13  C   UNL     1      -3.201   3.444  25.600  0.00  0.00    +0.257 C 
ATOM     14  O   UNL     1      -3.040   4.048  26.138  0.00  0.00    -0.272 OA
ATOM     15  N   UNL     1      -3.834   2.952  25.794  0.00  0.00    -0.203 NA
ATOM     16  C   UNL     1      -4.131   2.306  25.375  0.00  0.00    +0.131 C 
ATOM     17  C   UNL     1      -3.868   1.992  24.660  0.00  0.00    +0.080 C 
ENDROOT
BRANCH   6   7
ATOM      7  C   UNL     1      -1.871   4.564  25.302  0.00  0.00    +0.072 C 
BRANCH   7   8
ATOM      8  C   UNL     1      -1.256   5.069  25.082  0.00  0.00    +0.015 C 
ATOM      9  C   UNL     1      -0.641   5.572  24.861  0.00  0.00    +0.001 C 
ATOM     10  C   UNL     1      -1.804   5.656  24.892  0.00  0.00    +0.001 C 
ATOM     11  C   UNL     1      -0.708   4.482  25.271  0.00  0.00    +0.001 C 
ENDBRANCH   7   8
ENDBRANCH   6   7
BRANCH  17  18
ATOM     18  C   UNL     1      -4.284   1.337  24.381  0.00  0.00    +0.027 C 
BRANCH  18  19
ATOM     19  C   UNL     1      -4.490   0.728  24.896  0.00  0.00    +0.088 C 
BRANCH  19  20
ATOM     20  C   UNL     1      -4.620  -0.034  24.606  0.00  0.00    +0.242 C 
ATOM     21  O   UNL     1      -5.326  -0.212  24.219  0.00  0.00    -0.273 OA
ATOM     22  N   UNL     1      -4.044  -0.616  24.703  0.00  0.00    -0.200 NA
BRANCH  22  23
ATOM     23  C   UNL     1      -4.174  -1.378  24.412  0.00  0.00    +0.143 C 
BRANCH  23  24
ATOM     24  C   UNL     1      -3.574  -1.942  24.450  0.00  0.00    +0.019 A 
ATOM     25  C   UNL     1      -3.762  -2.744  24.456  0.00  0.00    +0.001 A 
ATOM     26  C   UNL     1      -3.161  -3.309  24.493  0.00  0.00    +0.020 A 
ATOM     27  C   UNL     1      -2.372  -3.070  24.524  0.00  0.00    +0.099 A 
ATOM     28  N   UNL     1      -2.184  -2.266  24.518  0.00  0.00    -0.243 NA
ATOM     29  C   UNL     1      -2.785  -1.703  24.481  0.00  0.00    +0.096 A 
ENDBRANCH  23  24
ENDBRANCH  22  23
ENDBRANCH  19  20
ENDBRANCH  18  19
ENDBRANCH  17  18
TORSDOF 7
ENDMDL
MODEL 7
REMARK VINA RESULT:      -7.0     16.371     18.068
REMARK  Name = 
REMARK  7 active torsions:
REMARK  status: ('A' for Active; 'I' for Inactive)
REMARK    1  A    between atoms: N_6  and  C_7
REMARK    2  A    between atoms: C_7  and  C_8
REMARK    3  A    between atoms: C_17  and  C_18
REMARK    4  A    between atoms: C_18  and  C_19
REMARK    5  A    between atoms: C_19  and  C_20
REMARK    6  A    between atoms: N_22  and  C_23
REMARK    7  A    between atoms: C_23  and  C_24
REMARK                            x       y       z     vdW  Elec       q    Type
REMARK                         _______ _______ _______ _____ _____    ______ ____
ROOT
ATOM      1  C   UNL     1      12.755   6.860  20.431  0.00  0.00    +0.090 C 
ATOM      2  N   UNL     1      13.313   7.463  20.357  0.00  0.00    -0.271 NA
ATOM      3  C   UNL     1      14.098   7.242  20.484  0.00  0.00    +0.083 C 
ATOM      4  C   UNL     1      14.328   6.473  20.674  0.00  0.00    +0.035 C 
ATOM      5  C   UNL     1      15.149   6.466  20.758  0.00  0.00    +0.074 C 
ATOM      6  N   UNL     1      15.426   7.231  20.620  0.00  0.00    -0.265 NA
ATOM     12  C   UNL     1      14.776   7.710  20.451  0.00  0.00    +0.151 C 
ATOM     13  C   UNL     1      14.837   8.515  20.283  0.00  0.00    +0.257 C 
ATOM     14  O   UNL     1      15.601   8.827  20.293  0.00  0.00    -0.272 OA
ATOM     15  N   UNL     1      14.235   9.051  20.107  0.00  0.00    -0.203 NA
ATOM     16  C   UNL     1      13.423   8.913  20.055  0.00  0.00    +0.131 C 
ATOM     17  C   UNL     1      13.013   8.207  20.166  0.00  0.00    +0.080 C 
ENDROOT
BRANCH   6   7
ATOM      7  C   UNL     1      16.214   7.474  20.647  0.00  0.00    +0.072 C 
BRANCH   7   8
ATOM      8  C   UNL     1      16.810   6.922  20.794  0.00  0.00    +0.015 C 
ATOM      9  C   UNL     1      17.405   6.371  20.941  0.00  0.00    +0.001 C 
ATOM     10  C   UNL     1      16.878   6.778  19.984  0.00  0.00    +0.001 C 
ATOM     11  C   UNL     1      16.742   7.066  21.604  0.00  0.00    +0.001 C 
ENDBRANCH   7   8
ENDBRANCH   6   7
BRANCH  17  18
ATOM     18  C   UNL     1      12.194   8.250  20.074  0.00  0.00    +0.027 C 
BRANCH  18  19
ATOM     19  C   UNL     1      11.857   8.873  19.653  0.00  0.00    +0.088 C 
BRANCH  19  20
ATOM     20  C   UNL     1      11.278   8.722  19.084  0.00  0.00    +0.242 C 
ATOM     21  O   UNL     1      10.533   8.456  19.317  0.00  0.00    -0.273 OA
ATOM     22  N   UNL     1      11.444   8.837  18.285  0.00  0.00    -0.200 NA
BRANCH  22  23
ATOM     23  C   UNL     1      10.865   8.687  17.717  0.00  0.00    +0.143 C 
BRANCH  23  24
ATOM     24  C   UNL     1      11.026   8.815  16.919  0.00  0.00    +0.019 A 
ATOM     25  C   UNL     1      10.415   8.792  16.366  0.00  0.00    +0.001 A 
ATOM     26  C   UNL     1      10.576   8.920  15.567  0.00  0.00    +0.020 A 
ATOM     27  C   UNL     1      11.349   9.071  15.321  0.00  0.00    +0.099 A 
ATOM     28  N   UNL     1      11.961   9.094  15.875  0.00  0.00    -0.243 NA
ATOM     29  C   UNL     1      11.799   8.965  16.673  0.00  0.00    +0.096 A 
ENDBRANCH  23  24
ENDBRANCH  22  23
ENDBRANCH  19  20
ENDBRANCH  18  19
ENDBRANCH  17  18
TORSDOF 7
ENDMDL
MODEL 8
REMARK VINA RESULT:      -5.8     16.045     17.770
REMARK  Name = 
REMARK  7 active torsions:
REMARK  status: ('A' for Active; 'I' for Inactive)
REMARK    1  A    between atoms: N_6  and  C_7
REMARK    2  A    between atoms: C_7  and  C_8
REMARK    3  A    between atoms: C_17  and  C_18
REMARK    4  A    between atoms: C_18  and  C_19
REMARK    5  A    between atoms: C_19  and  C_20
REMARK    6  A    between atoms: N_22  and  C_23
REMARK    7  A    between atoms: C_23  and  C_24
REMARK                            x       y       z     vdW  Elec       q    Type
REMARK                         _______ _______ _______ _____ _____    ______ ____
ROOT
ATOM      1  C   UNL     1      13.431   7.233  19.025  0.00  0.00    +0.090 C 
ATOM      2  N   UNL     1      12.692   7.594  19.092  0.00  0.00    -0.271 NA
ATOM      3  C   UNL     1      12.338   7.822  18.383  0.00  0.00    +0.083 C 
ATOM      4  C   UNL     1      12.685   7.704  17.644  0.00  0.00    +0.035 C 
ATOM      5  C   UNL     1      12.172   8.001  17.070  0.00  0.00    +0.074 C 
ATOM      6  N   UNL     1      11.507   8.302  17.455  0.00  0.00    -0.265 NA
ATOM     12  C   UNL     1      11.610   8.192  18.266  0.00  0.00    +0.151 C 
ATOM     13  C   UNL     1      11.056   8.425  18.830  0.00  0.00    +0.257 C 
ATOM     14  O   UNL     1      10.374   8.785  18.536  0.00  0.00    -0.272 OA
ATOM     15  N   UNL     1      11.092   8.346  19.651  0.00  0.00    -0.203 NA
ATOM     16  C   UNL     1      11.693   8.015  20.109  0.00  0.00    +0.131 C 
ATOM     17  C   UNL     1      12.404   7.681  19.861  0.00  0.00    +0.080 C 
ENDROOT
BRANCH   6   7
ATOM      7  C   UNL     1      10.854   8.653  17.093  0.00  0.00    +0.072 C 
BRANCH   7   8
ATOM      8  C   UNL     1      10.824   8.715  16.270  0.00  0.00    +0.015 C 
ATOM      9  C   UNL     1      10.795   8.778  15.448  0.00  0.00    +0.001 C 
ATOM     10  C   UNL     1      10.077   8.365  16.269  0.00  0.00    +0.001 C 
ATOM     11  C   UNL     1      11.571   9.066  16.271  0.00  0.00    +0.001 C 
ENDBRANCH   7   8
ENDBRANCH   6   7
BRANCH  17  18
ATOM     18  C   UNL     1      12.894   7.394  20.460  0.00  0.00    +0.027 C 
BRANCH  18  19
ATOM     19  C   UNL     1      13.103   7.881  21.091  0.00  0.00    +0.088 C 
BRANCH  19  20
ATOM     20  C   UNL     1      13.719   7.663  21.595  0.00  0.00    +0.242 C 
ATOM     21  O   UNL     1      13.551   7.315  22.325  0.00  0.00    -0.273 OA
ATOM     22  N   UNL     1      14.502   7.792  21.371  0.00  0.00    -0.200 NA
BRANCH  22  23
ATOM     23  C   UNL     1      15.118   7.574  21.875  0.00  0.00    +0.143 C 
BRANCH  23  24
ATOM     24  C   UNL     1      15.878   7.464  21.575  0.00  0.00    +0.019 A 
ATOM     25  C   UNL     1      16.176   6.702  21.475  0.00  0.00    +0.001 A 
ATOM     26  C   UNL     1      16.937   6.592  21.175  0.00  0.00    +0.020 A 
ATOM     27  C   UNL     1      17.399   7.245  20.975  0.00  0.00    +0.099 A 
ATOM     28  N   UNL     1      17.101   8.008  21.075  0.00  0.00    -0.243 NA
ATOM     29  C   UNL     1      16.340   8.117  21.375  0.00  0.00    +0.096 A 
ENDBRANCH  23  24
ENDBRANCH  22  23
ENDBRANCH  19  20
ENDBRANCH  18  19
ENDBRANCH  17  18
TORSDOF 7
ENDMDL
