MODEL 1
REMARK VINA RESULT:      -7.8      0.000      0.000
REMARK  Name = 
REMARK  6 active torsions:
REMARK  status: ('A' for Active; 'I' for Inactive)
REMARK    1  A    between atoms: C_3  and  N_16
REMARK    2  A    between atoms: C_6  and  C_7
REMARK    3  A    between atoms: C_7  and  N_8
REMARK    4  A    between atoms: C_9  and  C_11
REMARK    5  A    between atoms: N_16  and  C_17
REMARK    6  A    between atoms: C_17  and  C_18
REMARK                            x       y       z     vdW  Elec       q    Type
REMARK                         _______ _______ _______ _____ _____    ______ ____
ROOT
ATOM      1  O   UNL     1      -3.774   2.267  24.205  0.00  0.00    -0.219 OA
ATOM      2  C   UNL     1      -3.122   1.883  24.532  0.00  0.00    +0.199 C 
ATOM      3  C   UNL     1      -2.422   2.243  24.781  0.00  0.00    +0.135 C 
ATOM      4  C   UNL     1      -1.921   1.654  25.071  0.00  0.00    +0.162 C 
ATOM      5  O   UNL     1      -2.312   0.930  25.001  0.00  0.00    -0.350 OA
ATOM      6  C   UNL     1      -3.054   1.072  24.669  0.00  0.00    +0.169 C 
ENDROOT
BRANCH   6   7
ATOM      7  C   UNL     1      -3.628   0.503  24.501  0.00  0.00    +0.148 C 
BRANCH   7   8
ATOM      8  N   UNL     1      -3.440  -0.299  24.553  0.00  0.00    -0.199 NA
ATOM      9  C   UNL     1      -4.029  -0.867  24.452  0.00  0.00    +0.271 C 
ATOM     10  O   UNL     1      -4.806  -0.634  24.299  0.00  0.00    -0.268 OA
BRANCH   9  11
ATOM     11  C   UNL     1      -3.841  -1.670  24.504  0.00  0.00    +0.084 A 
ATOM     12  C   UNL     1      -3.503  -2.047  25.155  0.00  0.00    +0.012 A 
ATOM     13  C   UNL     1      -3.412  -2.846  24.968  0.00  0.00    +0.008 A 
ATOM     14  C   UNL     1      -3.694  -2.961  24.200  0.00  0.00    +0.036 A 
ATOM     15  S   UNL     1      -3.960  -2.235  23.914  0.00  0.00    -0.082 S 
ENDBRANCH   9  11
ENDBRANCH   7   8
ENDBRANCH   6   7
BRANCH   3  16
ATOM     16  N   UNL     1      -2.252   3.049  24.745  0.00  0.00    -0.208 NA
BRANCH  16  17
ATOM     17  C   UNL     1      -1.639   3.362  25.200  0.00  0.00    +0.136 C 
BRANCH  17  18
ATOM     18  C   UNL     1      -1.424   4.153  25.113  0.00  0.00    +0.097 A 
ATOM     19  C   UNL     1      -0.699   4.431  24.835  0.00  0.00    +0.117 A 
ATOM     20  N   UNL     1      -0.723   5.256  24.840  0.00  0.00    -0.221 NA
ATOM     21  C   UNL     1      -1.462   5.488  25.121  0.00  0.00    +0.199 A 
ATOM     22  N   UNL     1      -1.896   4.807  25.290  0.00  0.00    -0.225 NA
ENDBRANCH  17  18
ENDBRANCH  16  17
ENDBRANCH   3  16
TORSDOF 6
ENDMDL
MODEL 2
REMARK VINA RESULT:      -7.5      2.006      5.780
REMARK  Name = 
REMARK  6 active torsions:
REMARK  status: ('A' for Active; 'I' for Inactive)
REMARK    1  A    between atoms: C_3  and  N_16
REMARK    2  A    between atoms: C_6  and  C_7
REMARK    3  A    between atoms: C_7  and  N_8
REMARK    4  A    between atoms: C_9  and  C_11
REMARK    5  A    between atoms: N_16  and  C_17
REMARK    6  A    between atoms: C_17  and  C_18
REMARK                            x       y       z     vdW  Elec       q    Type
REMARK                         _______ _______ _______ _____ _____    ______ ____
ROOT
ATOM      1  O   UNL     1      -1.168   0.127  25.140  0.00  0.00    -0.219 OA
ATOM      2  C   UNL     1      -1.880   0.528  25.028  0.00  0.00    +0.199 C 
ATOM      3  C   UNL     1      -2.603   0.186  24.825  0.00  0.00    +0.135 C 
ATOM      4  C   UNL     1      -3.164   0.789  24.772  0.00  0.00    +0.162 C 
ATOM      5  O   UNL     1      -2.788   1.503  24.942  0.00  0.00    -0.350 OA
ATOM      6  C   UNL     1      -1.994   1.342  25.100  0.00  0.00    +0.169 C 
ENDROOT
BRANCH   6   7
ATOM      7  C   UNL     1      -1.416   1.897  25.296  0.00  0.00    +0.148 C 
BRANCH   7   8
ATOM      8  N   UNL     1      -1.544   2.697  25.142  0.00  0.00    -0.199 NA
ATOM      9  C   UNL     1      -0.993   3.258  25.392  0.00  0.00    +0.271 C 
ATOM     10  O   UNL     1      -0.315   3.019  25.797  0.00  0.00    -0.268 OA
BRANCH   9  11
ATOM     11  C   UNL     1      -1.121   4.060  25.237  0.00  0.00    +0.084 A 
ATOM     12  C   UNL     1      -1.776   4.501  25.476  0.00  0.00    +0.012 A 
ATOM     13  C   UNL     1      -1.676   5.273  25.203  0.00  0.00    +0.008 A 
ATOM     14  C   UNL     1      -0.959   5.308  24.795  0.00  0.00    +0.036 A 
ATOM     15  S   UNL     1      -0.616   4.558  24.816  0.00  0.00    -0.082 S 
ENDBRANCH   9  11
ENDBRANCH   7   8
ENDBRANCH   6   7
BRANCH   3  16
ATOM     16  N   UNL     1      -2.741  -0.617  24.698  0.00  0.00    -0.208 NA
BRANCH  16  17
ATOM     17  C   UNL     1      -3.506  -0.920  24.759  0.00  0.00    +0.136 C 
BRANCH  17  18
ATOM     18  C   UNL     1      -3.657  -1.704  24.554  0.00  0.00    +0.097 A 
ATOM     19  C   UNL     1      -4.106  -1.959  23.911  0.00  0.00    +0.117 A 
ATOM     20  N   UNL     1      -4.112  -2.784  23.916  0.00  0.00    -0.221 NA
ATOM     21  C   UNL     1      -3.667  -3.039  24.562  0.00  0.00    +0.199 A 
ATOM     22  N   UNL     1      -3.385  -2.371  24.956  0.00  0.00    -0.225 NA
ENDBRANCH  17  18
ENDBRANCH  16  17
ENDBRANCH   3  16
TORSDOF 6
ENDMDL
MODEL 3
REMARK VINA RESULT:      -6.7      2.989      4.255
REMARK  Name = 
REMARK  6 active torsions:
REMARK  status: ('A' for Active; 'I' for Inactive)
REMARK    1  A    between atoms: C_3  and  N_16
REMARK    2  A    between atoms: C_6  and  C_7
REMARK    3  A    between atoms: C_7  and  N_8
REMARK    4  A    between atoms: C_9  and  C_11
REMARK    5  A    between atoms: N_16  and  C_17
REMARK    6  A    between atoms: C_17  and  C_18
REMARK                            x       y       z     vdW  Elec       q    Type
REMARK                         _______ _______ _______ _____ _____    ______ ____
ROOT
ATOM      1  O   UNL     1      -1.029   2.676  23.756  0.00  0.00    -0.219 OA
ATOM      2  C   UNL     1      -1.278   1.984  24.130  0.00  0.00    +0.199 C 
ATOM      3  C   UNL     1      -0.864   1.271  24.155  0.00  0.00    +0.135 C 
ATOM      4  C   UNL     1      -1.315   0.730  24.586  0.00  0.00    +0.162 C 
ATOM      5  O   UNL     1      -2.007   1.109  24.827  0.00  0.00    -0.350 OA
ATOM      6  C   UNL     1      -1.984   1.884  24.545  0.00  0.00    +0.169 C 
ENDROOT
BRANCH   6   7
ATOM      7  C   UNL     1      -2.565   2.459  24.658  0.00  0.00    +0.148 C 
BRANCH   7   8
ATOM      8  N   UNL     1      -3.335   2.235  24.852  0.00  0.00    -0.199 NA
ATOM      9  C   UNL     1      -3.929   2.804  24.907  0.00  0.00    +0.271 C 
ATOM     10  O   UNL     1      -3.754   3.598  24.768  0.00  0.00    -0.268 OA
BRANCH   9  11
ATOM     11  C   UNL     1      -4.700   2.579  25.100  0.00  0.00    +0.084 A 
ATOM     12  C   UNL     1      -5.149   2.006  24.713  0.00  0.00    +0.012 A 
ATOM     13  C   UNL     1      -5.883   1.961  25.089  0.00  0.00    +0.008 A 
ATOM     14  C   UNL     1      -5.885   2.507  25.708  0.00  0.00    +0.036 A 
ATOM     15  S   UNL     1      -5.155   2.889  25.715  0.00  0.00    -0.082 S 
ENDBRANCH   9  11
ENDBRANCH   7   8
ENDBRANCH   6   7
BRANCH   3  16
ATOM     16  N   UNL     1      -0.130   1.124  23.810  0.00  0.00    -0.208 NA
BRANCH  16  17
ATOM     17  C   UNL     1       0.127   0.347  23.700  0.00  0.00    +0.136 C 
BRANCH  17  18
ATOM     18  C   UNL     1       0.804   0.196  23.254  0.00  0.00    +0.097 A 
ATOM     19  C   UNL     1       0.848  -0.292  22.591  0.00  0.00    +0.117 A 
ATOM     20  N   UNL     1       1.627  -0.284  22.320  0.00  0.00    -0.221 NA
ATOM     21  C   UNL     1       2.064   0.210  22.815  0.00  0.00    +0.199 A 
ATOM     22  N   UNL     1       1.556   0.507  23.392  0.00  0.00    -0.225 NA
ENDBRANCH  17  18
ENDBRANCH  16  17
ENDBRANCH   3  16
TORSDOF 6
ENDMDL
MODEL 4
REMARK VINA RESULT:      -6.1      3.022      4.050
REMARK  Name = 
REMARK  6 active torsions:
REMARK  status: ('A' for Active; 'I' for Inactive)
REMARK    1  A    between atoms: C_3  and  N_16
REMARK    2  A    between atoms: C_6  and  C_7
REMARK    3  A    between atoms: C_7  and  N_8
REMARK    4  A    between atoms: C_9  and  C_11
REMARK    5  A    between atoms: N_16  and  C_17
REMARK    6  A    between atoms: C_17  and  C_18
REMARK                            x       y       z     vdW  Elec       q    Type
REMARK                         _______ _______ _______ _____ _____    ______ ____
ROOT
ATOM      1  O   UNL     1      -1.877   1.125  25.487  0.00  0.00    -0.219 OA
ATOM      2  C   UNL     1      -1.960   1.318  24.689  0.00  0.00    +0.199 C 
ATOM      3  C   UNL     1      -2.507   1.850  24.374  0.00  0.00    +0.135 C 
ATOM      4  C   UNL     1      -2.397   1.874  23.556  0.00  0.00    +0.162 C 
ATOM      5  O   UNL     1      -1.782   1.357  23.367  0.00  0.00    -0.350 OA
ATOM      6  C   UNL     1      -1.513   1.014  24.067  0.00  0.00    +0.169 C 
ENDROOT
BRANCH   6   7
ATOM      7  C   UNL     1      -0.902   0.462  24.134  0.00  0.00    +0.148 C 
BRANCH   7   8
ATOM      8  N   UNL     1      -0.253   0.502  23.626  0.00  0.00    -0.199 NA
ATOM      9  C   UNL     1       0.306  -0.104  23.624  0.00  0.00    +0.271 C 
ATOM     10  O   UNL     1       0.216  -0.751  24.128  0.00  0.00    -0.268 OA
BRANCH   9  11
ATOM     11  C   UNL     1       0.956  -0.064  23.115  0.00  0.00    +0.084 A 
ATOM     12  C   UNL     1       0.989  -0.359  22.346  0.00  0.00    +0.012 A 
ATOM     13  C   UNL     1       1.740  -0.199  22.044  0.00  0.00    +0.008 A 
ATOM     14  C   UNL     1       2.170   0.196  22.627  0.00  0.00    +0.036 A 
ATOM     15  S   UNL     1       1.686   0.280  23.289  0.00  0.00    -0.082 S 
ENDBRANCH   9  11
ENDBRANCH   7   8
ENDBRANCH   6   7
BRANCH   3  16
ATOM     16  N   UNL     1      -3.065   2.282  24.800  0.00  0.00    -0.208 NA
BRANCH  16  17
ATOM     17  C   UNL     1      -3.716   2.610  24.414  0.00  0.00    +0.136 C 
BRANCH  17  18
ATOM     18  C   UNL     1      -4.356   2.891  24.851  0.00  0.00    +0.097 A 
ATOM     19  C   UNL     1      -5.083   2.513  24.946  0.00  0.00    +0.117 A 
ATOM     20  N   UNL     1      -5.558   2.989  25.424  0.00  0.00    -0.221 NA
ATOM     21  C   UNL     1      -5.126   3.661  25.624  0.00  0.00    +0.199 A 
ATOM     22  N   UNL     1      -4.383   3.602  25.270  0.00  0.00    -0.225 NA
ENDBRANCH  17  18
ENDBRANCH  16  17
ENDBRANCH   3  16
TORSDOF 6
ENDMDL
MODEL 5
REMARK VINA RESULT:      -5.4     15.514     17.282
REMARK  Name = 
REMARK  6 active torsions:
REMARK  status: ('A' for Active; 'I' for Inactive)
REMARK    1  A    between atoms: C_3  and  N_16
REMARK    2  A    between atoms: C_6  and  C_7
REMARK    3  A    between atoms: C_7  and  N_8
REMARK    4  A    between atoms: C_9  and  C_11
REMARK    5  A    between atoms: N_16  and  C_17
REMARK    6  A    between atoms: C_17  and  C_18
REMARK                            x       y       z     vdW  Elec       q    Type
REMARK                         _______ _______ _______ _____ _____    ______ ____
ROOT
ATOM      1  O   UNL     1      -1.748  -9.856  12.177  0.00  0.00    -0.219 OA
ATOM      2  C   UNL     1      -2.485 -10.180  12.356  0.00  0.00    +0.199 C 
ATOM      3  C   UNL     1      -2.702 -10.527  13.073  0.00  0.00    +0.135 C 
ATOM      4  C   UNL     1      -3.486 -10.775  13.010  0.00  0.00    +0.162 C 
ATOM      5  O   UNL     1      -3.754 -10.582  12.254  0.00  0.00    -0.350 OA
ATOM      6  C   UNL     1      -3.136 -10.214  11.850  0.00  0.00    +0.169 C 
ENDROOT
BRANCH   6   7
ATOM      7  C   UNL     1      -3.163  -9.930  11.076  0.00  0.00    +0.148 C 
BRANCH   7   8
ATOM      8  N   UNL     1      -3.880  -9.682  10.752  0.00  0.00    -0.199 NA
ATOM      9  C   UNL     1      -3.898  -9.340  10.003  0.00  0.00    +0.271 C 
ATOM     10  O   UNL     1      -3.198  -9.245   9.575  0.00  0.00    -0.268 OA
BRANCH   9  11
ATOM     11  C   UNL     1      -4.616  -9.091   9.679  0.00  0.00    +0.084 A 
ATOM     12  C   UNL     1      -5.067  -8.451   9.936  0.00  0.00    +0.012 A 
ATOM     13  C   UNL     1      -5.738  -8.404   9.457  0.00  0.00    +0.008 A 
ATOM     14  C   UNL     1      -5.700  -9.016   8.905  0.00  0.00    +0.036 A 
ATOM     15  S   UNL     1      -5.007  -9.441   9.042  0.00  0.00    -0.082 S 
ENDBRANCH   9  11
ENDBRANCH   7   8
ENDBRANCH   6   7
BRANCH   3  16
ATOM     16  N   UNL     1      -2.219 -10.610  13.736  0.00  0.00    -0.208 NA
BRANCH  16  17
ATOM     17  C   UNL     1      -2.555 -10.753  14.476  0.00  0.00    +0.136 C 
BRANCH  17  18
ATOM     18  C   UNL     1      -2.086 -10.729  15.154  0.00  0.00    +0.097 A 
ATOM     19  C   UNL     1      -2.357 -10.648  15.929  0.00  0.00    +0.117 A 
ATOM     20  N   UNL     1      -1.701 -10.650  16.430  0.00  0.00    -0.221 NA
ATOM     21  C   UNL     1      -1.025 -10.732  15.965  0.00  0.00    +0.199 A 
ATOM     22  N   UNL     1      -1.262 -10.781  15.177  0.00  0.00    -0.225 NA
ENDBRANCH  17  18
ENDBRANCH  16  17
ENDBRANCH   3  16
TORSDOF 6
ENDMDL
MODEL 6
REMARK VINA RESULT:      -5.4     14.764     16.817
REMARK  Name = 
REMARK  6 active torsions:
REMARK  status: ('A' for Active; 'I' for Inactive)
REMARK    1  A    between atoms: C_3  and  N_16
REMARK    2  A    between atoms: C_6  and  C_7
REMARK    3  A    between atoms: C_7  and  N_8
REMARK    4  A    between atoms: C_9  and  C_11
REMARK    5  A    between atoms: N_16  and  C_17
REMARK    6  A    between atoms: C_17  and  C_18
REMARK                            x       y       z     vdW  Elec       q    Type
REMARK                         _______ _______ _______ _____ _____    ______ ____
ROOT
ATOM      1  O   UNL     1      -2.932 -10.770  14.177  0.00  0.00    -0.219 OA
ATOM      2  C   UNL     1      -3.711 -10.646  13.933  0.00  0.00    +0.199 C 
ATOM      3  C   UNL     1      -4.372 -10.604  14.424  0.00  0.00    +0.135 C 
ATOM      4  C   UNL     1      -5.035 -10.474  13.950  0.00  0.00    +0.162 C 
ATOM      5  O   UNL     1      -4.783 -10.437  13.165  0.00  0.00    -0.350 OA
ATOM      6  C   UNL     1      -3.964 -10.544  13.155  0.00  0.00    +0.169 C 
ENDROOT
BRANCH   6   7
ATOM      7  C   UNL     1      -3.484 -10.547  12.483  0.00  0.00    +0.148 C 
BRANCH   7   8
ATOM      8  N   UNL     1      -3.753 -10.205  11.782  0.00  0.00    -0.199 NA
ATOM      9  C   UNL     1      -3.286 -10.235  11.104  0.00  0.00    +0.271 C 
ATOM     10  O   UNL     1      -2.550 -10.608  11.125  0.00  0.00    -0.268 OA
BRANCH   9  11
ATOM     11  C   UNL     1      -3.555  -9.893  10.401  0.00  0.00    +0.084 A 
ATOM     12  C   UNL     1      -3.406  -9.122  10.151  0.00  0.00    +0.012 A 
ATOM     13  C   UNL     1      -3.779  -9.014   9.422  0.00  0.00    +0.008 A 
ATOM     14  C   UNL     1      -4.158  -9.720   9.224  0.00  0.00    +0.036 A 
ATOM     15  S   UNL     1      -4.020 -10.263   9.829  0.00  0.00    -0.082 S 
ENDBRANCH   9  11
ENDBRANCH   7   8
ENDBRANCH   6   7
BRANCH   3  16
ATOM     16  N   UNL     1      -4.371 -10.677  15.246  0.00  0.00    -0.208 NA
BRANCH  16  17
ATOM     17  C   UNL     1      -5.019 -10.416  15.685  0.00  0.00    +0.136 C 
BRANCH  17  18
ATOM     18  C   UNL     1      -5.033 -10.521  16.502  0.00  0.00    +0.097 A 
ATOM     19  C   UNL     1      -5.700 -10.678  16.960  0.00  0.00    +0.117 A 
ATOM     20  N   UNL     1      -5.461 -10.741  17.747  0.00  0.00    -0.221 NA
ATOM     21  C   UNL     1      -4.646 -10.623  17.776  0.00  0.00    +0.199 A 
ATOM     22  N   UNL     1      -4.381 -10.487  17.007  0.00  0.00    -0.225 NA
ENDBRANCH  17  18
ENDBRANCH  16  17
ENDBRANCH   3  16
TORSDOF 6
ENDMDL
MODEL 7
REMARK VINA RESULT:      -5.1     14.078     15.148
REMARK  Name = 
REMARK  6 active torsions:
REMARK  status: ('A' for Active; 'I' for Inactive)
REMARK    1  A    between atoms: C_3  and  N_16
REMARK    2  A    between atoms: C_6  and  C_7
REMARK    3  A    between atoms: C_7  and  N_8
REMARK    4  A    between atoms: C_9  and  C_11
REMARK    5  A    between atoms: N_16  and  C_17
REMARK    6  A    between atoms: C_17  and  C_18
REMARK                            x       y       z     vdW  Elec       q    Type
REMARK                         _______ _______ _______ _____ _____    ______ ____
ROOT
ATOM      1  O   UNL     1      -4.635  -9.934  16.783  0.00  0.00    -0.219 OA
ATOM      2  C   UNL     1      -5.157 -10.122  16.172  0.00  0.00    +0.199 C 
ATOM      3  C   UNL     1      -4.946 -10.366  15.412  0.00  0.00    +0.135 C 
ATOM      4  C   UNL     1      -5.640 -10.494  14.984  0.00  0.00    +0.162 C 
ATOM      5  O   UNL     1      -6.279 -10.328  15.479  0.00  0.00    -0.350 OA
ATOM      6  C   UNL     1      -5.980 -10.098  16.213  0.00  0.00    +0.169 C 
ENDROOT
BRANCH   6   7
ATOM      7  C   UNL     1      -6.427  -9.883  16.873  0.00  0.00    +0.148 C 
BRANCH   7   8
ATOM      8  N   UNL     1      -7.202  -9.618  16.777  0.00  0.00    -0.199 NA
ATOM      9  C   UNL     1      -7.672  -9.470  17.438  0.00  0.00    +0.271 C 
ATOM     10  O   UNL     1      -7.366  -9.587  18.196  0.00  0.00    -0.268 OA
BRANCH   9  11
ATOM     11  C   UNL     1      -8.448  -9.205  17.343  0.00  0.00    +0.084 A 
ATOM     12  C   UNL     1      -8.677  -8.444  17.123  0.00  0.00    +0.012 A 
ATOM     13  C   UNL     1      -9.501  -8.424  17.094  0.00  0.00    +0.008 A 
ATOM     14  C   UNL     1      -9.781  -9.174  17.297  0.00  0.00    +0.036 A 
ATOM     15  S   UNL     1      -9.131  -9.656  17.450  0.00  0.00    -0.082 S 
ENDBRANCH   9  11
ENDBRANCH   7   8
ENDBRANCH   6   7
BRANCH   3  16
ATOM     16  N   UNL     1      -4.178 -10.466  15.131  0.00  0.00    -0.208 NA
BRANCH  16  17
ATOM     17  C   UNL     1      -4.046 -10.599  14.327  0.00  0.00    +0.136 C 
BRANCH  17  18
ATOM     18  C   UNL     1      -3.277 -10.604  14.030  0.00  0.00    +0.097 A 
ATOM     19  C   UNL     1      -2.593 -10.781  14.457  0.00  0.00    +0.117 A 
ATOM     20  N   UNL     1      -1.950 -10.720  13.944  0.00  0.00    -0.221 NA
ATOM     21  C   UNL     1      -2.235 -10.505  13.201  0.00  0.00    +0.199 A 
ATOM     22  N   UNL     1      -3.055 -10.433  13.254  0.00  0.00    -0.225 NA
ENDBRANCH  17  18
ENDBRANCH  16  17
ENDBRANCH   3  16
TORSDOF 6
ENDMDL
MODEL 8
REMARK VINA RESULT:      -5.0     14.076     15.748
REMARK  Name = 
REMARK  6 active torsions:
REMARK  status: ('A' for Active; 'I' for Inactive)
REMARK    1  A    between atoms: C_3  and  N_16
REMARK    2  A    between atoms: C_6  and  C_7
REMARK    3  A    between atoms: C_7  and  N_8
REMARK    4  A    between atoms: C_9  and  C_11
REMARK    5  A    between atoms: N_16  and  C_17
REMARK    6  A    between atoms: C_17  and  C_18
REMARK                            x       y       z     vdW  Elec       q    Type
REMARK                         _______ _______ _______ _____ _____    ______ ____
ROOT
ATOM      1  O   UNL     1      -2.749 -10.459  16.412  0.00  0.00    -0.219 OA
ATOM      2  C   UNL     1      -3.414 -10.585  15.941  0.00  0.00    +0.199 C 
ATOM      3  C   UNL     1      -4.191 -10.656  16.209  0.00  0.00    +0.135 C 
ATOM      4  C   UNL     1      -4.677 -10.777  15.553  0.00  0.00    +0.162 C 
ATOM      5  O   UNL     1      -4.200 -10.781  14.879  0.00  0.00    -0.350 OA
ATOM      6  C   UNL     1      -3.420 -10.662  15.120  0.00  0.00    +0.169 C 
ENDROOT
BRANCH   6   7
ATOM      7  C   UNL     1      -2.760 -10.626  14.625  0.00  0.00    +0.148 C 
BRANCH   7   8
ATOM      8  N   UNL     1      -2.859 -10.527  13.812  0.00  0.00    -0.199 NA
ATOM      9  C   UNL     1      -2.203 -10.403  13.329  0.00  0.00    +0.271 C 
ATOM     10  O   UNL     1      -1.446 -10.379  13.658  0.00  0.00    -0.268 OA
BRANCH   9  11
ATOM     11  C   UNL     1      -2.302 -10.303  12.515  0.00  0.00    +0.084 A 
ATOM     12  C   UNL     1      -2.973 -10.505  12.080  0.00  0.00    +0.012 A 
ATOM     13  C   UNL     1      -2.834 -10.310  11.290  0.00  0.00    +0.008 A 
ATOM     14  C   UNL     1      -2.075  -9.989  11.238  0.00  0.00    +0.036 A 
ATOM     15  S   UNL     1      -1.747  -9.984  11.994  0.00  0.00    -0.082 S 
ENDBRANCH   9  11
ENDBRANCH   7   8
ENDBRANCH   6   7
BRANCH   3  16
ATOM     16  N   UNL     1      -4.439 -10.614  16.994  0.00  0.00    -0.208 NA
BRANCH  16  17
ATOM     17  C   UNL     1      -5.242 -10.667  17.177  0.00  0.00    +0.136 C 
BRANCH  17  18
ATOM     18  C   UNL     1      -5.489 -10.623  17.963  0.00  0.00    +0.097 A 
ATOM     19  C   UNL     1      -5.027 -10.780  18.627  0.00  0.00    +0.117 A 
ATOM     20  N   UNL     1      -5.495 -10.669  19.296  0.00  0.00    -0.221 NA
ATOM     21  C   UNL     1      -6.248 -10.444  19.047  0.00  0.00    +0.199 A 
ATOM     22  N   UNL     1      -6.245 -10.415  18.222  0.00  0.00    -0.225 NA
ENDBRANCH  17  18
ENDBRANCH  16  17
ENDBRANCH   3  16
TORSDOF 6
ENDMDL
MODEL 9
REMARK VINA RESULT:      -4.9     14.575     16.433
REMARK  Name = 
REMARK  6 active torsions:
REMARK  status: ('A' for Active; 'I' for Inactive)
REMARK    1  A    between atoms: C_3  and  N_16
REMARK    2  A    between atoms: C_6  and  C_7
REMARK    3  A    between atoms: C_7  and  N_8
REMARK    4  A    between atoms: C_9  and  C_11
REMARK    5  A    between atoms: N_16  and  C_17
REMARK    6  A    between atoms: C_17  and  C_18
REMARK                            x       y       z     vdW  Elec       q    Type
REMARK                         _______ _______ _______ _____ _____    ______ ____
ROOT
ATOM      1  O   UNL     1      -6.830  -9.949  13.534  0.00  0.00    -0.219 OA
ATOM      2  C   UNL     1      -6.079 -10.080  13.850  0.00  0.00    +0.199 C 
ATOM      3  C   UNL     1      -5.878 -10.053  14.650  0.00  0.00    +0.135 C 
ATOM      4  C   UNL     1      -5.072 -10.219  14.716  0.00  0.00    +0.162 C 
ATOM      5  O   UNL     1      -4.775 -10.348  13.958  0.00  0.00    -0.350 OA
ATOM      6  C   UNL     1      -5.398 -10.262  13.422  0.00  0.00    +0.169 C 
ENDROOT
BRANCH   6   7
ATOM      7  C   UNL     1      -5.347 -10.344  12.603  0.00  0.00    +0.148 C 
BRANCH   7   8
ATOM      8  N   UNL     1      -4.710 -10.016  12.194  0.00  0.00    -0.199 NA
ATOM      9  C   UNL     1      -4.610 -10.175  11.391  0.00  0.00    +0.271 C 
ATOM     10  O   UNL     1      -5.147 -10.661  10.996  0.00  0.00    -0.268 OA
BRANCH   9  11
ATOM     11  C   UNL     1      -3.972  -9.846  10.981  0.00  0.00    +0.084 A 
ATOM     12  C   UNL     1      -3.181 -10.063  11.063  0.00  0.00    +0.012 A 
ATOM     13  C   UNL     1      -2.734  -9.594  10.551  0.00  0.00    +0.008 A 
ATOM     14  C   UNL     1      -3.251  -9.087  10.154  0.00  0.00    +0.036 A 
ATOM     15  S   UNL     1      -4.016  -9.243  10.420  0.00  0.00    -0.082 S 
ENDBRANCH   9  11
ENDBRANCH   7   8
ENDBRANCH   6   7
BRANCH   3  16
ATOM     16  N   UNL     1      -6.393  -9.890  15.273  0.00  0.00    -0.208 NA
BRANCH  16  17
ATOM     17  C   UNL     1      -6.103  -9.832  16.044  0.00  0.00    +0.136 C 
BRANCH  17  18
ATOM     18  C   UNL     1      -6.625  -9.748  16.676  0.00  0.00    +0.097 A 
ATOM     19  C   UNL     1      -6.610 -10.179  17.378  0.00  0.00    +0.117 A 
ATOM     20  N   UNL     1      -7.230  -9.915  17.854  0.00  0.00    -0.221 NA
ATOM     21  C   UNL     1      -7.629  -9.320  17.445  0.00  0.00    +0.199 A 
ATOM     22  N   UNL     1      -7.255  -9.216  16.718  0.00  0.00    -0.225 NA
ENDBRANCH  17  18
ENDBRANCH  16  17
ENDBRANCH   3  16
TORSDOF 6
ENDMDL
MODEL 10
REMARK VINA RESULT:      -4.9     14.528     16.498
REMARK  Name = 
REMARK  6 active torsions:
REMARK  status: ('A' for Active; 'I' for Inactive)
REMARK    1  A    between atoms: C_3  and  N_16
REMARK    2  A    between atoms: C_6  and  C_7
REMARK    3  A    between atoms: C_7  and  N_8
REMARK    4  A    between atoms: C_9  and  C_11
REMARK    5  A    between atoms: N_16  and  C_17
REMARK    6  A    between atoms: C_17  and  C_18
REMARK                            x       y       z     vdW  Elec       q    Type
REMARK                         _______ _______ _______ _____ _____    ______ ____
ROOT
ATOM      1  O   UNL     1      -6.176  -9.421  12.750  0.00  0.00    -0.219 OA
ATOM      2  C   UNL     1      -5.502  -9.850  12.959  0.00  0.00    +0.199 C 
ATOM      3  C   UNL     1      -4.895 -10.078  12.448  0.00  0.00    +0.135 C 
ATOM      4  C   UNL     1      -4.335 -10.495  12.888  0.00  0.00    +0.162 C 
ATOM      5  O   UNL     1      -4.596 -10.524  13.670  0.00  0.00    -0.350 OA
ATOM      6  C   UNL     1      -5.317 -10.125  13.714  0.00  0.00    +0.169 C 
ENDROOT
BRANCH   6   7
ATOM      7  C   UNL     1      -5.774 -10.020  14.393  0.00  0.00    +0.148 C 
BRANCH   7   8
ATOM      8  N   UNL     1      -5.459 -10.203  15.134  0.00  0.00    -0.199 NA
ATOM      9  C   UNL     1      -5.906 -10.074  15.814  0.00  0.00    +0.271 C 
ATOM     10  O   UNL     1      -6.668  -9.764  15.756  0.00  0.00    -0.268 OA
BRANCH   9  11
ATOM     11  C   UNL     1      -5.590 -10.257  16.556  0.00  0.00    +0.084 A 
ATOM     12  C   UNL     1      -4.792 -10.240  16.760  0.00  0.00    +0.012 A 
ATOM     13  C   UNL     1      -4.727 -10.461  17.553  0.00  0.00    +0.008 A 
ATOM     14  C   UNL     1      -5.486 -10.615  17.837  0.00  0.00    +0.036 A 
ATOM     15  S   UNL     1      -6.020 -10.489  17.222  0.00  0.00    -0.082 S 
ENDBRANCH   9  11
ENDBRANCH   7   8
ENDBRANCH   6   7
BRANCH   3  16
ATOM     16  N   UNL     1      -4.856  -9.919  11.640  0.00  0.00    -0.208 NA
BRANCH  16  17
ATOM     17  C   UNL     1      -4.131  -9.952  11.248  0.00  0.00    +0.136 C 
BRANCH  17  18
ATOM     18  C   UNL     1      -4.081  -9.733  10.454  0.00  0.00    +0.097 A 
ATOM     19  C   UNL     1      -4.295 -10.199   9.808  0.00  0.00    +0.117 A 
ATOM     20  N   UNL     1      -4.154  -9.763   9.122  0.00  0.00    -0.221 NA
ATOM     21  C   UNL     1      -3.853  -9.029   9.343  0.00  0.00    +0.199 A 
ATOM     22  N   UNL     1      -3.807  -9.009  10.167  0.00  0.00    -0.225 NA
ENDBRANCH  17  18
ENDBRANCH  16  17
ENDBRANCH   3  16
TORSDOF 6
ENDMDL
