MODEL 1
REMARK VINA RESULT:     -10.9      0.000      0.000
REMARK  Name = 
REMARK  7 active torsions:
REMARK  status: ('A' for Active; 'I' for Inactive)
REMARK    1  A    between atoms: C_2  and  O_10
REMARK    2  A    between atoms: N_3  and  C_4
REMARK    3  A    between atoms: O_10  and  C_11
REMARK    4  A    between atoms: C_15  and  N_19
REMARK    5  A    between atoms: C_23  and  S_24
REMARK    6  A    between atoms: S_24  and  C_25
REMARK    7  A    between atoms: C_25  and  C_26
REMARK                            x       y       z     vdW  Elec       q    Type
REMARK                         _______ _______ _______ _____ _____    ______ ____
ROOT
ATOM     11  C   UNL     1      -0.687   0.979  24.706  0.00  0.00    +0.229 C 
ATOM     12  C   UNL     1      -0.784   1.308  23.957  0.00  0.00    +0.188 C 
ATOM     13  O   UNL     1      -0.900   2.120  24.049  0.00  0.00    -0.348 OA
ATOM     14  C   UNL     1      -0.874   2.292  24.854  0.00  0.00    +0.171 C 
ATOM     15  C   UNL     1      -0.929   2.899  25.410  0.00  0.00    +0.168 C 
ATOM     16  C   UNL     1      -0.831   2.569  26.160  0.00  0.00    +0.169 C 
ATOM     17  O   UNL     1      -0.716   1.758  26.068  0.00  0.00    -0.348 OA
ATOM     18  C   UNL     1      -0.742   1.586  25.261  0.00  0.00    +0.187 C 
ENDROOT
BRANCH  15  19
ATOM     19  N   UNL     1      -1.059   3.697  25.245  0.00  0.00    -0.205 N 
ATOM     20  N   UNL     1      -0.487   4.244  25.012  0.00  0.00    -0.042 NA
ATOM     21  N   UNL     1      -0.859   4.973  24.906  0.00  0.00    -0.022 NA
ATOM     22  N   UNL     1      -1.660   4.876  25.073  0.00  0.00    -0.101 NA
ATOM     23  C   UNL     1      -1.784   4.088  25.282  0.00  0.00    +0.211 A 
BRANCH  23  24
ATOM     24  S   UNL     1      -2.507   3.750  25.493  0.00  0.00    -0.066 S 
BRANCH  24  25
ATOM     25  C   UNL     1      -3.214   4.121  25.282  0.00  0.00    +0.129 C 
BRANCH  25  26
ATOM     26  C   UNL     1      -3.930   3.720  25.362  0.00  0.00    +0.134 A 
ATOM     27  C   UNL     1      -4.360   3.369  24.751  0.00  0.00    +0.037 A 
ATOM     28  C   UNL     1      -5.037   3.032  25.079  0.00  0.00    +0.043 A 
ATOM     29  C   UNL     1      -5.028   3.175  25.891  0.00  0.00    +0.179 A 
ATOM     30  O   UNL     1      -4.343   3.601  26.066  0.00  0.00    -0.454 OA
ENDBRANCH  25  26
ENDBRANCH  24  25
ENDBRANCH  23  24
ENDBRANCH  15  19
BRANCH  11  10
ATOM     10  O   UNL     1      -0.556   0.181  24.872  0.00  0.00    -0.432 OA
BRANCH  10   2
ATOM      1  O   UNL     1      -1.417  -0.428  23.907  0.00  0.00    -0.224 OA
ATOM      2  C   UNL     1      -1.131  -0.380  24.680  0.00  0.00    +0.425 C 
ATOM      3  N   UNL     1      -1.418  -0.892  25.259  0.00  0.00    -0.142 NA
BRANCH   3   4
ATOM      4  C   UNL     1      -1.992  -1.452  25.068  0.00  0.00    +0.077 A 
ATOM      5  C   UNL     1      -1.779  -2.142  24.669  0.00  0.00    +0.017 A 
ATOM      6  C   UNL     1      -2.353  -2.702  24.477  0.00  0.00    +0.001 A 
ATOM      7  C   UNL     1      -3.141  -2.573  24.684  0.00  0.00    +0.000 A 
ATOM      8  C   UNL     1      -3.355  -1.883  25.083  0.00  0.00    +0.001 A 
ATOM      9  C   UNL     1      -2.780  -1.323  25.275  0.00  0.00    +0.017 A 
ENDBRANCH   3   4
ENDBRANCH  10   2
ENDBRANCH  11  10
TORSDOF 7
ENDMDL
MODEL 2
REMARK VINA RESULT:     -10.3      2.093      3.203
REMARK  Name = 
REMARK  7 active torsions:
REMARK  status: ('A' for Active; 'I' for Inactive)
REMARK    1  A    between atoms: C_2  and  O_10
REMARK    2  A    between atoms: N_3  and  C_4
REMARK    3  A    between atoms: O_10  and  C_11
REMARK    4  A    between atoms: C_15  and  N_19
REMARK    5  A    between atoms: C_23  and  S_24
REMARK    6  A    between atoms: S_24  and  C_25
REMARK    7  A    between atoms: C_25  and  C_26
REMARK                            x       y       z     vdW  Elec       q    Type
REMARK                         _______ _______ _______ _____ _____    ______ ____
ROOT
ATOM     11  C   UNL     1      -4.349   0.270  24.657  0.00  0.00    +0.229 C 
ATOM     12  C   UNL     1      -4.669   0.291  25.417  0.00  0.00    +0.188 C 
ATOM     13  O   UNL     1      -4.802   1.080  25.615  0.00  0.00    -0.348 OA
ATOM     14  C   UNL     1      -4.565   1.547  24.978  0.00  0.00    +0.171 C 
ATOM     15  C   UNL     1      -4.500   2.323  24.706  0.00  0.00    +0.168 C 
ATOM     16  C   UNL     1      -4.180   2.302  23.946  0.00  0.00    +0.169 C 
ATOM     17  O   UNL     1      -4.047   1.513  23.748  0.00  0.00    -0.348 OA
ATOM     18  C   UNL     1      -4.285   1.046  24.386  0.00  0.00    +0.187 C 
ENDROOT
BRANCH  15  19
ATOM     19  N   UNL     1      -4.717   3.002  25.122  0.00  0.00    -0.205 N 
ATOM     20  N   UNL     1      -5.483   3.205  25.353  0.00  0.00    -0.042 NA
ATOM     21  N   UNL     1      -5.446   3.925  25.753  0.00  0.00    -0.022 NA
ATOM     22  N   UNL     1      -4.658   4.168  25.769  0.00  0.00    -0.101 NA
ATOM     23  C   UNL     1      -4.208   3.597  25.379  0.00  0.00    +0.211 A 
BRANCH  23  24
ATOM     24  S   UNL     1      -3.390   3.618  25.266  0.00  0.00    -0.066 S 
BRANCH  24  25
ATOM     25  C   UNL     1      -2.936   4.192  25.648  0.00  0.00    +0.129 C 
BRANCH  25  26
ATOM     26  C   UNL     1      -2.133   4.265  25.473  0.00  0.00    +0.134 A 
ATOM     27  C   UNL     1      -1.765   4.931  25.154  0.00  0.00    +0.037 A 
ATOM     28  C   UNL     1      -0.962   4.762  25.071  0.00  0.00    +0.043 A 
ATOM     29  C   UNL     1      -0.833   3.993  25.336  0.00  0.00    +0.179 A 
ATOM     30  O   UNL     1      -1.558   3.685  25.585  0.00  0.00    -0.454 OA
ENDBRANCH  25  26
ENDBRANCH  24  25
ENDBRANCH  23  24
ENDBRANCH  15  19
BRANCH  11  10
ATOM     10  O   UNL     1      -4.131  -0.409  24.241  0.00  0.00    -0.432 OA
BRANCH  10   2
ATOM      1  O   UNL     1      -3.660  -1.295  25.258  0.00  0.00    -0.224 OA
ATOM      2  C   UNL     1      -3.544  -0.906  24.540  0.00  0.00    +0.425 C 
ATOM      3  N   UNL     1      -2.842  -1.013  24.121  0.00  0.00    -0.142 NA
BRANCH   3   4
ATOM      4  C   UNL     1      -2.254  -1.509  24.420  0.00  0.00    +0.077 A 
ATOM      5  C   UNL     1      -2.333  -2.328  24.354  0.00  0.00    +0.017 A 
ATOM      6  C   UNL     1      -1.745  -2.824  24.652  0.00  0.00    +0.001 A 
ATOM      7  C   UNL     1      -1.079  -2.502  25.017  0.00  0.00    +0.000 A 
ATOM      8  C   UNL     1      -1.001  -1.683  25.083  0.00  0.00    +0.001 A 
ATOM      9  C   UNL     1      -1.588  -1.187  24.785  0.00  0.00    +0.017 A 
ENDBRANCH   3   4
ENDBRANCH  10   2
ENDBRANCH  11  10
TORSDOF 7
ENDMDL
MODEL 3
REMARK VINA RESULT:     -10.3      2.151      5.627
REMARK  Name = 
REMARK  7 active torsions:
REMARK  status: ('A' for Active; 'I' for Inactive)
REMARK    1  A    between atoms: C_2  and  O_10
REMARK    2  A    between atoms: N_3  and  C_4
REMARK    3  A    between atoms: O_10  and  C_11
REMARK    4  A    between atoms: C_15  and  N_19
REMARK    5  A    between atoms: C_23  and  S_24
REMARK    6  A    between atoms: S_24  and  C_25
REMARK    7  A    between atoms: C_25  and  C_26
REMARK                            x       y       z     vdW  Elec       q    Type
REMARK                         _______ _______ _______ _____ _____    ______ ____
ROOT
ATOM     11  C   UNL     1      -3.816   1.682  24.468  0.00  0.00    +0.229 C 
ATOM     12  C   UNL     1      -3.640   1.516  23.680  0.00  0.00    +0.188 C 
ATOM     13  O   UNL     1      -3.697   0.701  23.572  0.00  0.00    -0.348 OA
ATOM     14  C   UNL     1      -3.909   0.362  24.293  0.00  0.00    +0.171 C 
ATOM     15  C   UNL     1      -4.075  -0.351  24.673  0.00  0.00    +0.168 C 
ATOM     16  C   UNL     1      -4.252  -0.186  25.462  0.00  0.00    +0.169 C 
ATOM     17  O   UNL     1      -4.194   0.630  25.570  0.00  0.00    -0.348 OA
ATOM     18  C   UNL     1      -3.983   0.969  24.847  0.00  0.00    +0.187 C 
ENDROOT
BRANCH  15  19
ATOM     19  N   UNL     1      -4.067  -1.099  24.325  0.00  0.00    -0.205 N 
ATOM     20  N   UNL     1      -4.674  -1.433  23.876  0.00  0.00    -0.042 NA
ATOM     21  N   UNL     1      -4.432  -2.184  23.638  0.00  0.00    -0.022 NA
ATOM     22  N   UNL     1      -3.676  -2.316  23.940  0.00  0.00    -0.101 NA
ATOM     23  C   UNL     1      -3.450  -1.645  24.364  0.00  0.00    +0.211 A 
BRANCH  23  24
ATOM     24  S   UNL     1      -2.733  -1.540  24.759  0.00  0.00    -0.066 S 
BRANCH  24  25
ATOM     25  C   UNL     1      -2.091  -2.029  24.586  0.00  0.00    +0.129 C 
BRANCH  25  26
ATOM     26  C   UNL     1      -1.324  -1.776  24.752  0.00  0.00    +0.134 A 
ATOM     27  C   UNL     1      -0.904  -1.925  25.447  0.00  0.00    +0.037 A 
ATOM     28  C   UNL     1      -0.163  -1.570  25.377  0.00  0.00    +0.043 A 
ATOM     29  C   UNL     1      -0.123  -1.203  24.640  0.00  0.00    +0.179 A 
ATOM     30  O   UNL     1      -0.841  -1.330  24.254  0.00  0.00    -0.454 OA
ENDBRANCH  25  26
ENDBRANCH  24  25
ENDBRANCH  23  24
ENDBRANCH  15  19
BRANCH  11  10
ATOM     10  O   UNL     1      -3.825   2.430  24.817  0.00  0.00    -0.432 OA
BRANCH  10   2
ATOM      1  O   UNL     1      -2.953   3.159  23.951  0.00  0.00    -0.224 OA
ATOM      2  C   UNL     1      -3.186   2.941  24.713  0.00  0.00    +0.425 C 
ATOM      3  N   UNL     1      -2.781   3.234  25.368  0.00  0.00    -0.142 NA
BRANCH   3   4
ATOM      4  C   UNL     1      -2.142   3.746  25.264  0.00  0.00    +0.077 A 
ATOM      5  C   UNL     1      -2.265   4.561  25.237  0.00  0.00    +0.017 A 
ATOM      6  C   UNL     1      -1.626   5.072  25.133  0.00  0.00    +0.001 A 
ATOM      7  C   UNL     1      -0.863   4.768  25.055  0.00  0.00    +0.000 A 
ATOM      8  C   UNL     1      -0.739   3.952  25.082  0.00  0.00    +0.001 A 
ATOM      9  C   UNL     1      -1.379   3.442  25.186  0.00  0.00    +0.017 A 
ENDBRANCH   3   4
ENDBRANCH  10   2
ENDBRANCH  11  10
TORSDOF 7
ENDMDL
MODEL 4
REMARK VINA RESULT:     -10.2      1.742      4.649
REMARK  Name = 
REMARK  7 active torsions:
REMARK  status: ('A' for Active; 'I' for Inactive)
REMARK    1  A    between atoms: C_2  and  O_10
REMARK    2  A    between atoms: N_3  and  C_4
REMARK    3  A    between atoms: O_10  and  C_11
REMARK    4  A    between atoms: C_15  and  N_19
REMARK    5  A    between atoms: C_23  and  S_24
REMARK    6  A    between atoms: S_24  and  C_25
REMARK    7  A    between atoms: C_25  and  C_26
REMARK                            x       y       z     vdW  Elec       q    Type
REMARK                         _______ _______ _______ _____ _____    ______ ____
ROOT
ATOM     11  C   UNL     1      -1.977   2.523  24.269  0.00  0.00    +0.229 C 
ATOM     12  C   UNL     1      -2.036   2.285  23.482  0.00  0.00    +0.188 C 
ATOM     13  O   UNL     1      -1.558   1.621  23.380  0.00  0.00    -0.348 OA
ATOM     14  C   UNL     1      -1.203   1.448  24.103  0.00  0.00    +0.171 C 
ATOM     15  C   UNL     1      -0.687   0.932  24.488  0.00  0.00    +0.168 C 
ATOM     16  C   UNL     1      -0.627   1.169  25.276  0.00  0.00    +0.169 C 
ATOM     17  O   UNL     1      -1.106   1.833  25.378  0.00  0.00    -0.348 OA
ATOM     18  C   UNL     1      -1.461   2.006  24.653  0.00  0.00    +0.187 C 
ENDROOT
BRANCH  15  19
ATOM     19  N   UNL     1      -0.299   0.289  24.145  0.00  0.00    -0.205 N 
ATOM     20  N   UNL     1       0.371   0.327  23.664  0.00  0.00    -0.042 NA
ATOM     21  N   UNL     1       0.570  -0.443  23.445  0.00  0.00    -0.022 NA
ATOM     22  N   UNL     1       0.024  -0.956  23.789  0.00  0.00    -0.101 NA
ATOM     23  C   UNL     1      -0.513  -0.504  24.222  0.00  0.00    +0.211 A 
BRANCH  23  24
ATOM     24  S   UNL     1      -1.153  -0.794  24.656  0.00  0.00    -0.066 S 
BRANCH  24  25
ATOM     25  C   UNL     1      -1.361  -1.591  24.600  0.00  0.00    +0.129 C 
BRANCH  25  26
ATOM     26  C   UNL     1      -2.118  -1.834  24.819  0.00  0.00    +0.134 A 
ATOM     27  C   UNL     1      -2.575  -2.403  24.434  0.00  0.00    +0.037 A 
ATOM     28  C   UNL     1      -3.290  -2.472  24.839  0.00  0.00    +0.043 A 
ATOM     29  C   UNL     1      -3.276  -1.947  25.475  0.00  0.00    +0.179 A 
ATOM     30  O   UNL     1      -2.551  -1.553  25.463  0.00  0.00    -0.454 OA
ENDBRANCH  25  26
ENDBRANCH  24  25
ENDBRANCH  23  24
ENDBRANCH  15  19
BRANCH  11  10
ATOM     10  O   UNL     1      -2.364   3.165  24.613  0.00  0.00    -0.432 OA
BRANCH  10   2
ATOM      1  O   UNL     1      -3.643   3.228  23.977  0.00  0.00    -0.224 OA
ATOM      2  C   UNL     1      -3.188   3.171  24.664  0.00  0.00    +0.425 C 
ATOM      3  N   UNL     1      -3.556   3.121  25.399  0.00  0.00    -0.142 NA
BRANCH   3   4
ATOM      4  C   UNL     1      -4.380   3.127  25.450  0.00  0.00    +0.077 A 
ATOM      5  C   UNL     1      -4.786   3.843  25.484  0.00  0.00    +0.017 A 
ATOM      6  C   UNL     1      -5.610   3.849  25.535  0.00  0.00    +0.001 A 
ATOM      7  C   UNL     1      -6.027   3.138  25.552  0.00  0.00    +0.000 A 
ATOM      8  C   UNL     1      -5.620   2.420  25.518  0.00  0.00    +0.001 A 
ATOM      9  C   UNL     1      -4.797   2.415  25.467  0.00  0.00    +0.017 A 
ENDBRANCH   3   4
ENDBRANCH  10   2
ENDBRANCH  11  10
TORSDOF 7
ENDMDL
MODEL 5
REMARK VINA RESULT:     -10.0      1.715      4.683
REMARK  Name = 
REMARK  7 active torsions:
REMARK  status: ('A' for Active; 'I' for Inactive)
REMARK    1  A    between atoms: C_2  and  O_10
REMARK    2  A    between atoms: N_3  and  C_4
REMARK    3  A    between atoms: O_10  and  C_11
REMARK    4  A    between atoms: C_15  and  N_19
REMARK    5  A    between atoms: C_23  and  S_24
REMARK    6  A    between atoms: S_24  and  C_25
REMARK    7  A    between atoms: C_25  and  C_26
REMARK                            x       y       z     vdW  Elec       q    Type
REMARK                         _______ _______ _______ _____ _____    ______ ____
ROOT
ATOM     11  C   UNL     1      -0.327   1.179  24.591  0.00  0.00    +0.229 C 
ATOM     12  C   UNL     1      -0.475   0.965  23.808  0.00  0.00    +0.188 C 
ATOM     13  O   UNL     1      -0.851   0.232  23.811  0.00  0.00    -0.348 OA
ATOM     14  C   UNL     1      -0.936  -0.009  24.595  0.00  0.00    +0.171 C 
ATOM     15  C   UNL     1      -1.221  -0.610  25.083  0.00  0.00    +0.168 C 
ATOM     16  C   UNL     1      -1.073  -0.397  25.866  0.00  0.00    +0.169 C 
ATOM     17  O   UNL     1      -0.697   0.337  25.862  0.00  0.00    -0.348 OA
ATOM     18  C   UNL     1      -0.612   0.577  25.077  0.00  0.00    +0.187 C 
ENDROOT
BRANCH  15  19
ATOM     19  N   UNL     1      -1.590  -1.304  24.831  0.00  0.00    -0.205 N 
ATOM     20  N   UNL     1      -1.213  -1.965  24.511  0.00  0.00    -0.042 NA
ATOM     21  N   UNL     1      -1.790  -2.528  24.337  0.00  0.00    -0.022 NA
ATOM     22  N   UNL     1      -2.523  -2.216  24.549  0.00  0.00    -0.101 NA
ATOM     23  C   UNL     1      -2.399  -1.459  24.854  0.00  0.00    +0.211 A 
BRANCH  23  24
ATOM     24  S   UNL     1      -2.983  -0.948  25.134  0.00  0.00    -0.066 S 
BRANCH  24  25
ATOM     25  C   UNL     1      -3.742  -0.970  24.809  0.00  0.00    +0.129 C 
BRANCH  25  26
ATOM     26  C   UNL     1      -4.240  -0.317  24.880  0.00  0.00    +0.134 A 
ATOM     27  C   UNL     1      -4.559   0.119  24.256  0.00  0.00    +0.037 A 
ATOM     28  C   UNL     1      -5.022   0.721  24.577  0.00  0.00    +0.043 A 
ATOM     29  C   UNL     1      -4.989   0.659  25.398  0.00  0.00    +0.179 A 
ATOM     30  O   UNL     1      -4.506   0.017  25.586  0.00  0.00    -0.454 OA
ENDBRANCH  25  26
ENDBRANCH  24  25
ENDBRANCH  23  24
ENDBRANCH  15  19
BRANCH  11  10
ATOM     10  O   UNL     1       0.042   1.873  24.843  0.00  0.00    -0.432 OA
BRANCH  10   2
ATOM      1  O   UNL     1      -0.580   2.837  23.990  0.00  0.00    -0.224 OA
ATOM      2  C   UNL     1      -0.335   2.600  24.742  0.00  0.00    +0.425 C 
ATOM      3  N   UNL     1      -0.466   3.091  25.392  0.00  0.00    -0.142 NA
BRANCH   3   4
ATOM      4  C   UNL     1      -0.842   3.818  25.291  0.00  0.00    +0.077 A 
ATOM      5  C   UNL     1      -0.436   4.449  24.951  0.00  0.00    +0.017 A 
ATOM      6  C   UNL     1      -0.812   5.177  24.850  0.00  0.00    +0.001 A 
ATOM      7  C   UNL     1      -1.596   5.272  25.090  0.00  0.00    +0.000 A 
ATOM      8  C   UNL     1      -2.003   4.640  25.431  0.00  0.00    +0.001 A 
ATOM      9  C   UNL     1      -1.625   3.913  25.532  0.00  0.00    +0.017 A 
ENDBRANCH   3   4
ENDBRANCH  10   2
ENDBRANCH  11  10
TORSDOF 7
ENDMDL
