MODEL 1
REMARK VINA RESULT:     -11.0      0.000      0.000
REMARK  Name = 
REMARK  4 active torsions:
REMARK  status: ('A' for Active; 'I' for Inactive)
REMARK    1  A    between atoms: O_2  and  C_3
REMARK    2  A    between atoms: C_3  and  C_5
REMARK    3  A    between atoms: C_12  and  C_14
REMARK    4  A    between atoms: N_17  and  C_19
REMARK                            x       y       z     vdW  Elec       q    Type
REMARK                         _______ _______ _______ _____ _____    ______ ____
ROOT
ATOM      5  C   UNL     1      -4.251   3.403  25.288  0.00  0.00    +0.112 A 
ATOM      6  C   UNL     1      -4.877   3.860  25.571  0.00  0.00    +0.010 A 
ATOM      7  C   UNL     1      -5.626   3.525  25.660  0.00  0.00    +0.002 A 
ATOM      8  C   UNL     1      -5.749   2.734  25.465  0.00  0.00    +0.022 A 
ATOM      9  C   UNL     1      -5.124   2.276  25.182  0.00  0.00    +0.119 A 
ATOM     10  C   UNL     1      -4.375   2.610  25.094  0.00  0.00    +0.171 A 
ATOM     11  O   UNL     1      -3.868   2.028  24.804  0.00  0.00    -0.438 OA
ATOM     12  C   UNL     1      -4.304   1.333  24.714  0.00  0.00    +0.207 A 
ATOM     13  N   UNL     1      -5.080   1.487  24.947  0.00  0.00    -0.212 NA
ENDROOT
BRANCH  12  14
ATOM     14  C   UNL     1      -4.014   0.611  24.438  0.00  0.00    +0.094 C 
ATOM     15  C   UNL     1      -3.574   0.497  23.750  0.00  0.00    +0.028 C 
ATOM     16  C   UNL     1      -3.401  -0.308  23.689  0.00  0.00    +0.073 C 
ATOM     17  N   UNL     1      -3.736  -0.691  24.339  0.00  0.00    -0.273 NA
ATOM     18  C   UNL     1      -4.115  -0.123  24.802  0.00  0.00    +0.081 C 
BRANCH  17  19
ATOM     19  C   UNL     1      -3.698  -1.499  24.498  0.00  0.00    +0.063 C 
ATOM     20  C   UNL     1      -3.340  -1.766  25.192  0.00  0.00    +0.048 C 
ATOM     21  C   UNL     1      -3.302  -2.575  25.351  0.00  0.00    +0.144 C 
ATOM     22  O   UNL     1      -3.622  -3.117  24.817  0.00  0.00    -0.354 OA
ATOM     23  C   UNL     1      -3.980  -2.849  24.123  0.00  0.00    +0.144 C 
ATOM     24  C   UNL     1      -4.017  -2.040  23.964  0.00  0.00    +0.048 C 
ENDBRANCH  17  19
ENDBRANCH  12  14
BRANCH   5   3
ATOM      3  C   UNL     1      -3.503   3.737  25.200  0.00  0.00    +0.344 C 
ATOM      4  O   UNL     1      -3.261   4.018  24.462  0.00  0.00    -0.245 OA
BRANCH   3   2
ATOM      1  C   UNL     1      -2.290   4.213  25.786  0.00  0.00    +0.256 C 
ATOM      2  O   UNL     1      -2.996   3.792  25.848  0.00  0.00    -0.441 OA
ENDBRANCH   3   2
ENDBRANCH   5   3
TORSDOF 4
ENDMDL
MODEL 2
REMARK VINA RESULT:     -10.9      1.441      2.163
REMARK  Name = 
REMARK  4 active torsions:
REMARK  status: ('A' for Active; 'I' for Inactive)
REMARK    1  A    between atoms: O_2  and  C_3
REMARK    2  A    between atoms: C_3  and  C_5
REMARK    3  A    between atoms: C_12  and  C_14
REMARK    4  A    between atoms: N_17  and  C_19
REMARK                            x       y       z     vdW  Elec       q    Type
REMARK                         _______ _______ _______ _____ _____    ______ ____
ROOT
ATOM      5  C   UNL     1      -1.483   3.334  25.315  0.00  0.00    +0.112 A 
ATOM      6  C   UNL     1      -1.451   4.158  25.335  0.00  0.00    +0.010 A 
ATOM      7  C   UNL     1      -2.135   4.602  25.211  0.00  0.00    +0.002 A 
ATOM      8  C   UNL     1      -2.852   4.222  25.069  0.00  0.00    +0.022 A 
ATOM      9  C   UNL     1      -2.887   3.397  25.049  0.00  0.00    +0.119 A 
ATOM     10  C   UNL     1      -2.202   2.954  25.172  0.00  0.00    +0.171 A 
ATOM     11  O   UNL     1      -2.403   2.156  25.121  0.00  0.00    -0.438 OA
ATOM     12  C   UNL     1      -3.212   2.106  24.966  0.00  0.00    +0.207 A 
ATOM     13  N   UNL     1      -3.510   2.874  24.922  0.00  0.00    -0.212 NA
ENDROOT
BRANCH  12  14
ATOM     14  C   UNL     1      -3.646   1.411  24.873  0.00  0.00    +0.094 C 
ATOM     15  C   UNL     1      -4.464   1.357  24.787  0.00  0.00    +0.028 C 
ATOM     16  C   UNL     1      -4.662   0.560  24.709  0.00  0.00    +0.073 C 
ATOM     17  N   UNL     1      -3.965   0.120  24.747  0.00  0.00    -0.273 NA
ATOM     18  C   UNL     1      -3.337   0.646  24.848  0.00  0.00    +0.081 C 
BRANCH  17  19
ATOM     19  C   UNL     1      -3.906  -0.701  24.694  0.00  0.00    +0.063 C 
ATOM     20  C   UNL     1      -3.589  -1.133  25.322  0.00  0.00    +0.048 C 
ATOM     21  C   UNL     1      -3.530  -1.954  25.268  0.00  0.00    +0.144 C 
ATOM     22  O   UNL     1      -3.788  -2.343  24.587  0.00  0.00    -0.354 OA
ATOM     23  C   UNL     1      -4.104  -1.911  23.960  0.00  0.00    +0.144 C 
ATOM     24  C   UNL     1      -4.163  -1.090  24.013  0.00  0.00    +0.048 C 
ENDBRANCH  17  19
ENDBRANCH  12  14
BRANCH   5   3
ATOM      3  C   UNL     1      -0.800   2.891  25.438  0.00  0.00    +0.344 C 
ATOM      4  O   UNL     1      -0.357   2.626  24.793  0.00  0.00    -0.245 OA
BRANCH   3   2
ATOM      1  C   UNL     1       0.192   2.391  26.338  0.00  0.00    +0.256 C 
ATOM      2  O   UNL     1      -0.556   2.712  26.206  0.00  0.00    -0.441 OA
ENDBRANCH   3   2
ENDBRANCH   5   3
TORSDOF 4
ENDMDL
MODEL 3
REMARK VINA RESULT:     -10.9      1.430      4.826
REMARK  Name = 
REMARK  4 active torsions:
REMARK  status: ('A' for Active; 'I' for Inactive)
REMARK    1  A    between atoms: O_2  and  C_3
REMARK    2  A    between atoms: C_3  and  C_5
REMARK    3  A    between atoms: C_12  and  C_14
REMARK    4  A    between atoms: N_17  and  C_19
REMARK                            x       y       z     vdW  Elec       q    Type
REMARK                         _______ _______ _______ _____ _____    ______ ____
ROOT
ATOM      5  C   UNL     1      -2.492  -1.783  24.683  0.00  0.00    +0.112 A 
ATOM      6  C   UNL     1      -2.712  -2.571  24.579  0.00  0.00    +0.010 A 
ATOM      7  C   UNL     1      -3.475  -2.757  24.325  0.00  0.00    +0.002 A 
ATOM      8  C   UNL     1      -4.017  -2.154  24.175  0.00  0.00    +0.022 A 
ATOM      9  C   UNL     1      -3.798  -1.366  24.279  0.00  0.00    +0.119 A 
ATOM     10  C   UNL     1      -3.035  -1.180  24.533  0.00  0.00    +0.171 A 
ATOM     11  O   UNL     1      -2.976  -0.359  24.586  0.00  0.00    -0.438 OA
ATOM     12  C   UNL     1      -3.704  -0.038  24.365  0.00  0.00    +0.207 A 
ATOM     13  N   UNL     1      -4.211  -0.660  24.175  0.00  0.00    -0.212 NA
ENDROOT
BRANCH  12  14
ATOM     14  C   UNL     1      -3.890   0.766  24.338  0.00  0.00    +0.094 C 
ATOM     15  C   UNL     1      -3.646   1.301  23.760  0.00  0.00    +0.028 C 
ATOM     16  C   UNL     1      -3.959   2.041  23.950  0.00  0.00    +0.073 C 
ATOM     17  N   UNL     1      -4.396   1.963  24.645  0.00  0.00    -0.273 NA
ATOM     18  C   UNL     1      -4.354   1.174  24.885  0.00  0.00    +0.081 C 
BRANCH  17  19
ATOM     19  C   UNL     1      -4.804   2.566  25.032  0.00  0.00    +0.063 C 
ATOM     20  C   UNL     1      -4.448   3.304  25.135  0.00  0.00    +0.048 C 
ATOM     21  C   UNL     1      -4.856   3.907  25.522  0.00  0.00    +0.144 C 
ATOM     22  O   UNL     1      -5.620   3.774  25.806  0.00  0.00    -0.354 OA
ATOM     23  C   UNL     1      -5.975   3.036  25.703  0.00  0.00    +0.144 C 
ATOM     24  C   UNL     1      -5.567   2.433  25.315  0.00  0.00    +0.048 C 
ENDBRANCH  17  19
ENDBRANCH  12  14
BRANCH   5   3
ATOM      3  C   UNL     1      -1.730  -1.598  24.936  0.00  0.00    +0.344 C 
ATOM      4  O   UNL     1      -1.585  -1.450  25.736  0.00  0.00    -0.245 OA
BRANCH   3   2
ATOM      1  C   UNL     1      -0.345  -1.392  24.648  0.00  0.00    +0.256 C 
ATOM      2  O   UNL     1      -1.111  -1.561  24.392  0.00  0.00    -0.441 OA
ENDBRANCH   3   2
ENDBRANCH   5   3
TORSDOF 4
ENDMDL
MODEL 4
REMARK VINA RESULT:     -10.6      1.374      4.887
REMARK  Name = 
REMARK  4 active torsions:
REMARK  status: ('A' for Active; 'I' for Inactive)
REMARK    1  A    between atoms: O_2  and  C_3
REMARK    2  A    between atoms: C_3  and  C_5
REMARK    3  A    between atoms: C_12  and  C_14
REMARK    4  A    between atoms: N_17  and  C_19
REMARK                            x       y       z     vdW  Elec       q    Type
REMARK                         _______ _______ _______ _____ _____    ______ ____
ROOT
ATOM      5  C   UNL     1      -2.818  -1.404  24.749  0.00  0.00    +0.112 A 
ATOM      6  C   UNL     1      -3.170  -2.118  24.533  0.00  0.00    +0.010 A 
ATOM      7  C   UNL     1      -3.911  -2.120  24.170  0.00  0.00    +0.002 A 
ATOM      8  C   UNL     1      -4.300  -1.408  24.023  0.00  0.00    +0.022 A 
ATOM      9  C   UNL     1      -3.948  -0.693  24.239  0.00  0.00    +0.119 A 
ATOM     10  C   UNL     1      -3.208  -0.691  24.602  0.00  0.00    +0.171 A 
ATOM     11  O   UNL     1      -2.999   0.092  24.752  0.00  0.00    -0.438 OA
ATOM     12  C   UNL     1      -3.612   0.575  24.481  0.00  0.00    +0.207 A 
ATOM     13  N   UNL     1      -4.198   0.089  24.165  0.00  0.00    -0.212 NA
ENDROOT
BRANCH  12  14
ATOM     14  C   UNL     1      -3.634   1.399  24.521  0.00  0.00    +0.094 C 
ATOM     15  C   UNL     1      -4.189   1.888  24.157  0.00  0.00    +0.028 C 
ATOM     16  C   UNL     1      -4.003   2.670  24.343  0.00  0.00    +0.073 C 
ATOM     17  N   UNL     1      -3.332   2.664  24.823  0.00  0.00    -0.273 NA
ATOM     18  C   UNL     1      -3.104   1.879  24.934  0.00  0.00    +0.081 C 
BRANCH  17  19
ATOM     19  C   UNL     1      -2.955   3.327  25.138  0.00  0.00    +0.063 C 
ATOM     20  C   UNL     1      -3.291   3.727  25.777  0.00  0.00    +0.048 C 
ATOM     21  C   UNL     1      -2.914   4.390  26.091  0.00  0.00    +0.144 C 
ATOM     22  O   UNL     1      -2.202   4.653  25.767  0.00  0.00    -0.354 OA
ATOM     23  C   UNL     1      -1.867   4.252  25.129  0.00  0.00    +0.144 C 
ATOM     24  C   UNL     1      -2.244   3.590  24.814  0.00  0.00    +0.048 C 
ENDBRANCH  17  19
ENDBRANCH  12  14
BRANCH   5   3
ATOM      3  C   UNL     1      -2.078  -1.402  25.111  0.00  0.00    +0.344 C 
ATOM      4  O   UNL     1      -2.020  -1.324  25.931  0.00  0.00    -0.245 OA
BRANCH   3   2
ATOM      1  C   UNL     1      -0.658  -1.533  25.022  0.00  0.00    +0.256 C 
ATOM      2  O   UNL     1      -1.394  -1.478  24.656  0.00  0.00    -0.441 OA
ENDBRANCH   3   2
ENDBRANCH   5   3
TORSDOF 4
ENDMDL
MODEL 5
REMARK VINA RESULT:     -10.5      1.416      2.167
REMARK  Name = 
REMARK  4 active torsions:
REMARK  status: ('A' for Active; 'I' for Inactive)
REMARK    1  A    between atoms: O_2  and  C_3
REMARK    2  A    between atoms: C_3  and  C_5
REMARK    3  A    between atoms: C_12  and  C_14
REMARK    4  A    between atoms: N_17  and  C_19
REMARK                            x       y       z     vdW  Elec       q    Type
REMARK                         _______ _______ _______ _____ _____    ______ ____
ROOT
ATOM      5  C   UNL     1      -2.850   3.502  25.170  0.00  0.00    +0.112 A 
ATOM      6  C   UNL     1      -2.422   4.186  25.340  0.00  0.00    +0.010 A 
ATOM      7  C   UNL     1      -1.612   4.139  25.490  0.00  0.00    +0.002 A 
ATOM      8  C   UNL     1      -1.230   3.409  25.469  0.00  0.00    +0.022 A 
ATOM      9  C   UNL     1      -1.658   2.724  25.299  0.00  0.00    +0.119 A 
ATOM     10  C   UNL     1      -2.468   2.770  25.149  0.00  0.00    +0.171 A 
ATOM     11  O   UNL     1      -2.743   2.008  24.999  0.00  0.00    -0.438 OA
ATOM     12  C   UNL     1      -2.103   1.490  25.055  0.00  0.00    +0.207 A 
ATOM     13  N   UNL     1      -1.432   1.933  25.241  0.00  0.00    -0.212 NA
ENDROOT
BRANCH  12  14
ATOM     14  C   UNL     1      -2.129   0.673  24.945  0.00  0.00    +0.094 C 
ATOM     15  C   UNL     1      -1.484   0.160  24.963  0.00  0.00    +0.028 C 
ATOM     16  C   UNL     1      -1.761  -0.605  24.827  0.00  0.00    +0.073 C 
ATOM     17  N   UNL     1      -2.579  -0.565  24.725  0.00  0.00    -0.273 NA
ATOM     18  C   UNL     1      -2.807   0.225  24.798  0.00  0.00    +0.081 C 
BRANCH  17  19
ATOM     19  C   UNL     1      -3.081  -1.202  24.576  0.00  0.00    +0.063 C 
ATOM     20  C   UNL     1      -2.959  -1.922  24.962  0.00  0.00    +0.048 C 
ATOM     21  C   UNL     1      -3.461  -2.559  24.813  0.00  0.00    +0.144 C 
ATOM     22  O   UNL     1      -4.085  -2.478  24.279  0.00  0.00    -0.354 OA
ATOM     23  C   UNL     1      -4.206  -1.758  23.894  0.00  0.00    +0.144 C 
ATOM     24  C   UNL     1      -3.704  -1.121  24.042  0.00  0.00    +0.048 C 
ENDBRANCH  17  19
ENDBRANCH  12  14
BRANCH   5   3
ATOM      3  C   UNL     1      -3.659   3.548  25.020  0.00  0.00    +0.344 C 
ATOM      4  O   UNL     1      -3.933   3.613  24.244  0.00  0.00    -0.245 OA
BRANCH   3   2
ATOM      1  C   UNL     1      -5.000   3.657  25.504  0.00  0.00    +0.256 C 
ATOM      2  O   UNL     1      -4.197   3.529  25.645  0.00  0.00    -0.441 OA
ENDBRANCH   3   2
ENDBRANCH   5   3
TORSDOF 4
ENDMDL
MODEL 6
REMARK VINA RESULT:     -10.0      2.325      5.495
REMARK  Name = 
REMARK  4 active torsions:
REMARK  status: ('A' for Active; 'I' for Inactive)
REMARK    1  A    between atoms: O_2  and  C_3
REMARK    2  A    between atoms: C_3  and  C_5
REMARK    3  A    between atoms: C_12  and  C_14
REMARK    4  A    between atoms: N_17  and  C_19
REMARK                            x       y       z     vdW  Elec       q    Type
REMARK                         _______ _______ _______ _____ _____    ______ ____
ROOT
ATOM      5  C   UNL     1      -2.429  -1.090  24.986  0.00  0.00    +0.112 A 
ATOM      6  C   UNL     1      -2.185  -1.862  24.829  0.00  0.00    +0.010 A 
ATOM      7  C   UNL     1      -1.381  -2.044  24.799  0.00  0.00    +0.002 A 
ATOM      8  C   UNL     1      -0.820  -1.453  24.926  0.00  0.00    +0.022 A 
ATOM      9  C   UNL     1      -1.062  -0.680  25.083  0.00  0.00    +0.119 A 
ATOM     10  C   UNL     1      -1.867  -0.498  25.114  0.00  0.00    +0.171 A 
ATOM     11  O   UNL     1      -1.940   0.306  25.279  0.00  0.00    -0.438 OA
ATOM     12  C   UNL     1      -1.181   0.622  25.351  0.00  0.00    +0.207 A 
ATOM     13  N   UNL     1      -0.639   0.012  25.230  0.00  0.00    -0.212 NA
ENDROOT
BRANCH  12  14
ATOM     14  C   UNL     1      -0.997   1.409  25.516  0.00  0.00    +0.094 C 
ATOM     15  C   UNL     1      -0.345   1.675  25.945  0.00  0.00    +0.028 C 
ATOM     16  C   UNL     1      -0.378   2.499  25.975  0.00  0.00    +0.073 C 
ATOM     17  N   UNL     1      -1.050   2.742  25.563  0.00  0.00    -0.273 NA
ATOM     18  C   UNL     1      -1.433   2.068  25.280  0.00  0.00    +0.081 C 
BRANCH  17  19
ATOM     19  C   UNL     1      -1.297   3.522  25.454  0.00  0.00    +0.063 C 
ATOM     20  C   UNL     1      -0.796   4.065  25.087  0.00  0.00    +0.048 C 
ATOM     21  C   UNL     1      -1.043   4.845  24.978  0.00  0.00    +0.144 C 
ATOM     22  O   UNL     1      -1.790   5.081  25.236  0.00  0.00    -0.354 OA
ATOM     23  C   UNL     1      -2.290   4.538  25.604  0.00  0.00    +0.144 C 
ATOM     24  C   UNL     1      -2.044   3.758  25.712  0.00  0.00    +0.048 C 
ENDBRANCH  17  19
ENDBRANCH  12  14
BRANCH   5   3
ATOM      3  C   UNL     1      -3.232  -0.908  25.016  0.00  0.00    +0.344 C 
ATOM      4  O   UNL     1      -3.627  -0.900  25.741  0.00  0.00    -0.245 OA
BRANCH   3   2
ATOM      1  C   UNL     1      -4.467  -0.706  24.326  0.00  0.00    +0.256 C 
ATOM      2  O   UNL     1      -3.642  -0.734  24.322  0.00  0.00    -0.441 OA
ENDBRANCH   3   2
ENDBRANCH   5   3
TORSDOF 4
ENDMDL
